data_image0
_chemical_formula_structural       Zn4H14C35O17
_chemical_formula_sum              "Zn4 H14 C35 O17"
_cell_length_a       16.135117153371617
_cell_length_b       16.129823501179096
_cell_length_c       19.559209911155023
_cell_angle_alpha    83.47057673876958
_cell_angle_beta     89.09211674618592
_cell_angle_gamma    83.19772919178735

_space_group_name_H-M_alt    "P 1"
_space_group_IT_number       1

loop_
  _space_group_symop_operation_xyz
  'x, y, z'

loop_
  _atom_site_type_symbol
  _atom_site_label
  _atom_site_symmetry_multiplicity
  _atom_site_fract_x
  _atom_site_fract_y
  _atom_site_fract_z
  _atom_site_occupancy
  Zn  Zn1       1.0  0.4261531953004151  0.571050559715701  0.5580650411596936  1.0000
  Zn  Zn2       1.0  0.562019893353906  0.5720957542159937  0.43371340326649493  1.0000
  Zn  Zn3       1.0  0.4299445131619778  0.4396237966935104  0.4468101547723223  1.0000
  Zn  Zn4       1.0  0.5779127892865361  0.42334498877772836  0.5590149625603402  1.0000
  H   H1        1.0  0.38289133874173586  0.5427766902477844  0.7703519978092715  1.0000
  H   H2        1.0  0.6237728670671244  0.39775634157781076  0.7713168193090854  1.0000
  H   H3        1.0  0.6136195106914286  0.5799511924448525  0.043974322055184714  1.0000
  H   H4        1.0  0.6275501122558325  0.019155453727989904  0.6028263361725195  1.0000
  H   H5        1.0  0.5155408594879205  0.3016068928009048  0.9797876327600722  1.0000
  H   H6        1.0  0.3067906321524347  0.5631956902219528  0.866666468376458  1.0000
  H   H7        1.0  0.9890042680566894  0.5643943032766431  0.5532396454252577  1.0000
  H   H8        1.0  0.009819673661823514  0.435664120845736  0.44663773043372873  1.0000
  H   H9        1.0  0.43810341168973815  0.013872166117899107  0.45014755752716706  1.0000
  H   H10       1.0  0.3886660722694301  0.43732419520978283  0.23668426087299826  1.0000
  H   H11       1.0  0.5901485786782956  0.5919546491733101  0.22219198704739548  1.0000
  H   H12       1.0  0.4997456921068917  0.5673049828767276  0.9890992074803009  1.0000
  H   H13       1.0  0.6222830072234514  0.37934079290393197  0.8994530205637122  1.0000
  H   H14       1.0  0.3958968081119139  0.43201083892717673  0.10943094169541473  1.0000
  C   C1        1.0  0.7241539799836829  0.4885730376018175  0.4893319494876422  1.0000
  C   C2        1.0  0.504225514014095  0.4376985658101092  0.9844244010741438  1.0000
  C   C3        1.0  0.5014783363255972  0.5057893746949205  0.019976738651564616  1.0000
  C   C4        1.0  0.27415329055615695  0.5115277891850383  0.5103159393021883  1.0000
  C   C5        1.0  0.4894187772840939  0.514362181204909  0.2369514031818057  1.0000
  C   C6        1.0  0.8138668810669358  0.4841447135789353  0.4855947417309423  1.0000
  C   C7        1.0  0.9769849976390288  0.47747416657545483  0.4810879458680688  1.0000
  C   C8        1.0  0.021752375166698777  0.5224557975278119  0.5188992165927857  1.0000
  C   C9        1.0  0.10899624975674271  0.5177326155708429  0.5157936428240077  1.0000
  C   C10       1.0  0.8897733297136766  0.4814611718843835  0.48364969058236085  1.0000
  C   C11       1.0  0.1849187241322099  0.5149001688866477  0.5139845649534324  1.0000
  C   C12       1.0  0.500612811383867  0.44857697612541614  0.9083385140244292  1.0000
  C   C13       1.0  0.4838139137179099  0.8157721273391302  0.4880863914325389  1.0000
  C   C14       1.0  0.483212171956488  0.9779835971578023  0.48669674520445494  1.0000
  C   C15       1.0  0.5305550777112414  0.021768926806920802  0.524529855237134  1.0000
  C   C16       1.0  0.486859909254946  0.7260700061253332  0.4904364925551051  1.0000
  C   C17       1.0  0.5219600003450324  0.11021328177093183  0.5173714529614983  1.0000
  C   C18       1.0  0.4870779531363709  0.8908735255206041  0.49031669918623794  1.0000
  C   C19       1.0  0.5190972791783041  0.18640355751328744  0.5151437212472204  1.0000
  C   C20       1.0  0.513905067594486  0.27648014072208577  0.5111537089604994  1.0000
  C   C21       1.0  0.48927231126600645  0.5138003364415554  0.313197375093786  1.0000
  C   C22       1.0  0.5057107926062726  0.4853298879498452  0.6860292026923532  1.0000
  C   C23       1.0  0.5688215931364837  0.4140043145347292  0.8712949211305556  1.0000
  C   C24       1.0  0.5041780412095489  0.47293506588837897  0.7629243278712963  1.0000
  C   C25       1.0  0.4353974856428025  0.5070576669837196  0.7991002815801026  1.0000
  C   C26       1.0  0.43154944062587225  0.4934419176301361  0.8710263745890003  1.0000
  C   C27       1.0  0.5931059434257833  0.9771037072819201  0.57529252062281  1.0000
  C   C28       1.0  0.5209633304965279  0.34886989616288844  0.01662460141645991  1.0000
  C   C29       1.0  0.3498881963374671  0.5201304720934345  0.9027393649531633  1.0000
  C   C30       1.0  0.5706089634085316  0.4250590806391373  0.7996236365210123  1.0000
  C   C31       1.0  0.4387394840330288  0.4658112687637442  0.13495487720383184  1.0000
  C   C32       1.0  0.43408941415358265  0.46934904732537325  0.20531112955000452  1.0000
  C   C33       1.0  0.5470654825082165  0.5575456796269905  0.19758768461884563  1.0000
  C   C34       1.0  0.5511025059271901  0.5540660583552112  0.12669130929092634  1.0000
  C   C35       1.0  0.49769844926869683  0.5070455901722754  0.09437392159100712  1.0000
  O   O1        1.0  0.49964709595249696  0.5018656320014045  0.5001101542584652  1.0000
  O   O2        1.0  0.539488632685277  0.5579331946796556  0.3384966554911983  1.0000
  O   O3        1.0  0.563981190119577  0.44185163535699695  0.6564321936180237  1.0000
  O   O4        1.0  0.4398012084883263  0.4684652998096013  0.3475881791083496  1.0000
  O   O5        1.0  0.4483693380180184  0.5379340539434808  0.6565676268673856  1.0000
  O   O6        1.0  0.6105118893592661  0.5952913917391882  0.09082831455842923  1.0000
  O   O7        1.0  0.6062738290218732  0.900583623180296  0.5865160494028319  1.0000
  O   O8        1.0  0.5417094837503597  0.3259767923260952  0.0763029329002336  1.0000
  O   O9        1.0  0.32673767541194104  0.4963885229092285  0.96078691767022  1.0000
  O   O10       1.0  0.44078606754485605  0.6908761427324351  0.5357624590579351  1.0000
  O   O11       1.0  0.5617842710809667  0.30570793504499966  0.5516067270488706  1.0000
  O   O12       1.0  0.6836249648416198  0.5444270362656383  0.4473971440664428  1.0000
  O   O13       1.0  0.3113091799564458  0.46070917151122615  0.47108744031339006  1.0000
  O   O14       1.0  0.6950290169275917  0.43613164139291183  0.5344796249840088  1.0000
  O   O15       1.0  0.3075437786500644  0.5597853396538568  0.54660036182689  1.0000
  O   O16       1.0  0.535500085698537  0.6918305106919433  0.4470757965237056  1.0000
  O   O17       1.0  0.46204001142139356  0.3177135979228539  0.4677172426422872  1.0000
