data_image0
_chemical_formula_structural       Zn4H36C40N12O8
_chemical_formula_sum              "Zn4 H36 C40 N12 O8"
_cell_length_a       4.815195878782303
_cell_length_b       9.781211424426044
_cell_length_c       22.511538370002373
_cell_angle_alpha    90.00000257022856
_cell_angle_beta     90.00005132509348
_cell_angle_gamma    99.78040774131082

_space_group_name_H-M_alt    "P 1"
_space_group_IT_number       1

loop_
  _space_group_symop_operation_xyz
  'x, y, z'

loop_
  _atom_site_type_symbol
  _atom_site_label
  _atom_site_symmetry_multiplicity
  _atom_site_fract_x
  _atom_site_fract_y
  _atom_site_fract_z
  _atom_site_occupancy
  Zn  Zn1       1.0  0.9265210686464799  0.6660061821719766  0.31508118311839434  1.0000
  Zn  Zn2       1.0  0.07348014078306869  0.8339942305335982  0.8150806950412742  1.0000
  Zn  Zn3       1.0  0.0734804818924317  0.3339938535021503  0.6849194390071601  1.0000
  Zn  Zn4       1.0  0.9265217669383007  0.1660068425866896  0.18491903865103856  1.0000
  H   H1        1.0  0.415091858318533  0.3704218335762165  0.0967744158686017  1.0000
  H   H2        1.0  0.5849117267488708  0.12957778428207692  0.5967744659934267  1.0000
  H   H3        1.0  0.5849096922194121  0.6295782020978039  0.9032257620403072  1.0000
  H   H4        1.0  0.415089823788101  0.8704222513918372  0.4032252676988505  1.0000
  H   H5        1.0  0.757388179703483  0.5863205180008678  0.0753574337502343  1.0000
  H   H6        1.0  0.24261198680365934  0.9136797826950983  0.5753574238368343  1.0000
  H   H7        1.0  0.24261129393654815  0.41367951727200153  0.9246422999418369  1.0000
  H   H8        1.0  0.757389563732353  0.0863202529787088  0.42464186563879025  1.0000
  H   H9        1.0  0.7626393361955907  0.7986789242925882  0.13539731354934756  1.0000
  H   H10       1.0  0.23736073433196478  0.7013203670103395  0.6353972984983044  1.0000
  H   H11       1.0  0.23736185715796407  0.20132007393505094  0.8646028643595187  1.0000
  H   H12       1.0  0.7626383821236759  0.29867863081615553  0.3646024351937243  1.0000
  H   H13       1.0  0.4202301275460272  0.807492775214037  0.21682396834157908  1.0000
  H   H14       1.0  0.5797685775175624  0.69250759118043  0.7168240187061129  1.0000
  H   H15       1.0  0.5797717801763015  0.19250829790635757  0.7831762095673795  1.0000
  H   H16       1.0  0.4202288192264874  0.3074924436915012  0.28317615920240496  1.0000
  H   H17       1.0  0.6977743374239792  0.49479995211549976  0.42167982732859594  1.0000
  H   H18       1.0  0.30222650735658624  0.0051998167510021  0.9216793766697648  1.0000
  H   H19       1.0  0.30222721311396583  0.5052000835585134  0.5783203505803199  1.0000
  H   H20       1.0  0.6977750431803856  0.9948002189229116  0.0783203570225055  1.0000
  H   H21       1.0  0.7314620024666711  0.7305307706929656  0.46148919573008834  1.0000
  H   H22       1.0  0.26853776701824467  0.7694697100200757  0.9614891879768663  1.0000
  H   H23       1.0  0.2685374711743194  0.26946926458000325  0.5385109821786287  1.0000
  H   H24       1.0  0.7314637835196935  0.23053032565393755  0.0385109899320497  1.0000
  H   H25       1.0  0.38675026947677793  0.6901257942553088  0.49170211306936534  1.0000
  H   H26       1.0  0.6132471973679544  0.8098736627270642  0.9917017279136431  1.0000
  H   H27       1.0  0.6132488469798291  0.3098732035712929  0.5082980648393018  1.0000
  H   H28       1.0  0.3867526334564673  0.19012740999217934  0.008298005778471  1.0000
  H   H29       1.0  0.0978341469816044  0.43826842132207855  0.4723888759678373  1.0000
  H   H30       1.0  0.9021669184100388  0.061731371237996824  0.9723885413252232  1.0000
  H   H31       1.0  0.9021653266593859  0.5617316139508903  0.5276113019408726  1.0000
  H   H32       1.0  0.09783463212693282  0.9382686644359169  0.027611192367047004  1.0000
  H   H33       1.0  0.25766362838595575  0.3212063373777525  0.429722770024398  1.0000
  H   H34       1.0  0.7423372513867649  0.1787934352468952  0.9297228512613172  1.0000
  H   H35       1.0  0.7423358452540755  0.6787936978951167  0.5702769636676733  1.0000
  H   H36       1.0  0.2576642991511805  0.8212066004271181  0.0702773266475987  1.0000
  C   C1        1.0  0.2216559146567292  0.5921311871847692  0.20223098629428898  1.0000
  C   C2        1.0  0.7783444466324237  0.907868135345879  0.7022310788853331  1.0000
  C   C3        1.0  0.7783456358812159  0.40786884848924404  0.7977691916146198  1.0000
  C   C4        1.0  0.22165502700857329  0.09213189992709661  0.2977690990233768  1.0000
  C   C5        1.0  0.22417043714909113  0.46901156559717105  0.1694393569791828  1.0000
  C   C6        1.0  0.7758272333579725  0.03098808501032121  0.6694394417554788  1.0000
  C   C7        1.0  0.7758311133888469  0.5309884700768421  0.8305608209297332  1.0000
  C   C8        1.0  0.22416808648912942  0.9690119494605586  0.3305607361528331  1.0000
  C   C9        1.0  0.4136022339547551  0.46477206390093073  0.12227644989290098  1.0000
  C   C10       1.0  0.5863952313680016  0.0352275646698175  0.6222760542500865  1.0000
  C   C11       1.0  0.5863972396862422  0.5352279713720378  0.8777237280158088  1.0000
  C   C12       1.0  0.41360216537411537  0.9647724702019007  0.3777232352251474  1.0000
  C   C13       1.0  0.6023450352812745  0.585630815663798  0.11074060714710039  1.0000
  C   C14       1.0  0.3976552851612  0.9143695015647855  0.6107406269450664  1.0000
  C   C15       1.0  0.3976544383597158  0.4143692196091707  0.8892595707616164  1.0000
  C   C16       1.0  0.6023441884788313  0.08563053370807688  0.38925910674700487  1.0000
  C   C17       1.0  0.6038660742700089  0.7077563718566681  0.1447036361262164  1.0000
  C   C18       1.0  0.39613439392937283  0.7922439612409776  0.6447036532566911  1.0000
  C   C19       1.0  0.3961354762679363  0.2922436638173522  0.8552965417826924  1.0000
  C   C20       1.0  0.6038650797106584  0.20775607403189167  0.35529608043538013  1.0000
  C   C21       1.0  0.41304232443937394  0.7139728457403579  0.19034154736353062  1.0000
  C   C22       1.0  0.5869583423097778  0.7860275086814781  0.6903420451412785  1.0000
  C   C23       1.0  0.5869575063850405  0.28602822697888547  0.8096581863285832  1.0000
  C   C24       1.0  0.41304113133121945  0.21397252659149055  0.3096581327674315  1.0000
  C   C25       1.0  0.3745220391938702  0.58668339447717  0.3814248850889683  1.0000
  C   C26       1.0  0.6254794588666073  0.9133170492272953  0.8814249485052059  1.0000
  C   C27       1.0  0.6254774344471272  0.4133166407958059  0.6185752928197488  1.0000
  C   C28       1.0  0.3745224488557213  0.086684023893099  0.11857522940375277  1.0000
  C   C29       1.0  0.5010837736693006  0.5283958247990271  0.43533991480189366  1.0000
  C   C30       1.0  0.4989183161340379  0.9716056815433237  0.9353399551098532  1.0000
  C   C31       1.0  0.4989177768686375  0.4716042108749861  0.5646602631070222  1.0000
  C   C32       1.0  0.5010835915873315  0.0283953915769573  0.06465977858245958  1.0000
  C   C33       1.0  0.5775349645309406  0.6465180899474634  0.4810897953196119  1.0000
  C   C34       1.0  0.42246489022591766  0.8534823999237705  0.9810893744685031  1.0000
  C   C35       1.0  0.4224665860069976  0.353481945726557  0.5189103825893042  1.0000
  C   C36       1.0  0.5775345834141136  0.1465176353490989  0.0189103592235753  1.0000
  C   C37       1.0  0.3001904255905359  0.4057411048828996  0.462411345016747  1.0000
  C   C38       1.0  0.6998105963945277  0.09425868301531891  0.9624114164630625  1.0000
  C   C39       1.0  0.699811124947402  0.5942589307911134  0.5375888328921619  1.0000
  C   C40       1.0  0.30018887724550325  0.9057413522575503  0.0375883172290088  1.0000
  N   N1        1.0  0.01591546140959825  0.5598414803033196  0.24464965771768726  1.0000
  N   N2        1.0  0.9840833647104503  0.9401588990925729  0.7446497903456473  1.0000
  N   N3        1.0  0.9840840122313992  0.4401585549696493  0.7553505201910297  1.0000
  N   N4        1.0  0.015916108930547096  0.05984113618039541  0.25535038756306955  1.0000
  N   N5        1.0  0.9010516508230636  0.42692932531153355  0.23951592945554975  1.0000
  N   N6        1.0  0.09894875863376741  0.07307139588616712  0.7395154411802237  1.0000
  N   N7        1.0  0.09895025689927191  0.5730717478088536  0.7604842484534088  1.0000
  N   N8        1.0  0.9010507150062637  0.926928639386702  0.2604842925118476  1.0000
  N   N9        1.0  0.021948214308231708  0.3699486254952404  0.19461664753119118  1.0000
  N   N10       1.0  0.9780492085479295  0.130049999429751  0.6946163287531488  1.0000
  N   N11       1.0  0.9780512593327657  0.6300514097777281  0.8053835303775259  1.0000
  N   N12       1.0  0.02194783101077044  0.8699489979956995  0.3053834049386808  1.0000
  O   O1        1.0  0.1144814240425234  0.5987736097224925  0.3853210844760824  1.0000
  O   O2        1.0  0.8855200909685621  0.9012268358024546  0.8853211974668793  1.0000
  O   O3        1.0  0.8855180495975078  0.4012264255503696  0.614678649215989  1.0000
  O   O4        1.0  0.1144814595684167  0.09877319987145944  0.11467853622539079  1.0000
  O   O5        1.0  0.5190955724690768  0.6268806283609296  0.3353480838305316  1.0000
  O   O6        1.0  0.4809057251332051  0.8731197938143752  0.8353481187721241  1.0000
  O   O7        1.0  0.4809039011719206  0.3731194069120393  0.6646520940781855  1.0000
  O   O8        1.0  0.5190937485077924  0.12688024145860066  0.1646520591365928  1.0000
