data_image0
_chemical_formula_structural       K4H8C8N16O16
_chemical_formula_sum              "K4 H8 C8 N16 O16"
_cell_length_a       5.964809059613833
_cell_length_b       6.429879532475084
_cell_length_c       16.152038976042473
_cell_angle_alpha    90.00020429979979
_cell_angle_beta     90.00013557933565
_cell_angle_gamma    98.636534203647

_space_group_name_H-M_alt    "P 1"
_space_group_IT_number       1

loop_
  _space_group_symop_operation_xyz
  'x, y, z'

loop_
  _atom_site_type_symbol
  _atom_site_label
  _atom_site_symmetry_multiplicity
  _atom_site_fract_x
  _atom_site_fract_y
  _atom_site_fract_z
  _atom_site_occupancy
  K   K1        1.0  0.9658541120614575  0.7102524698256617  0.7808286651609463  1.0000
  K   K2        1.0  0.5341599540512263  0.7897350817963016  0.2808272642504618  1.0000
  K   K3        1.0  0.03415811531664303  0.2897406793465508  0.2191737901331905  1.0000
  K   K4        1.0  0.46583138042742434  0.21025345638335574  0.7191714763299755  1.0000
  H   H1        1.0  0.9273145523854681  0.2210038386276807  0.8419468964874639  1.0000
  H   H2        1.0  0.5726778811415444  0.2789942643755126  0.3419461328284185  1.0000
  H   H3        1.0  0.07268004257267795  0.778994128847181  0.15805308233493068  1.0000
  H   H4        1.0  0.4273242065961895  0.7210083861888847  0.6580532268837159  1.0000
  H   H5        1.0  0.7118790993764678  0.28361991616464627  0.8858478065503376  1.0000
  H   H6        1.0  0.788117301436536  0.21638017964817646  0.3858465215463481  1.0000
  H   H7        1.0  0.28811769908172385  0.7163811883966743  0.1141521722752685  1.0000
  H   H8        1.0  0.21187896853441401  0.7836177788118589  0.6141534572767638  1.0000
  C   C1        1.0  0.1095745338778045  0.0625875870959405  0.0032015460669753996  1.0000
  C   C2        1.0  0.3904290930208347  0.43740903291960354  0.5031988736657877  1.0000
  C   C3        1.0  0.8904329327079881  0.9374071621744804  0.9968015283431126  1.0000
  C   C4        1.0  0.6095679696809739  0.562593644692356  0.4968011051610615  1.0000
  C   C5        1.0  0.4154755995201072  0.23369260325478078  0.0440028429048027  1.0000
  C   C6        1.0  0.08451883387346731  0.2663076238202606  0.5439978009195201  1.0000
  C   C7        1.0  0.584521727422832  0.7663116474047343  0.955996516806408  1.0000
  C   C8        1.0  0.9154732037899292  0.7336950808361706  0.4560021779051553  1.0000
  N   N1        1.0  0.24927550139794621  0.1210012057342809  0.9350369436153086  1.0000
  N   N2        1.0  0.2507282479744363  0.37899973868076137  0.4350333831043684  1.0000
  N   N3        1.0  0.7507272043855836  0.8789951436219852  0.06496427344320917  1.0000
  N   N4        1.0  0.7492716362607652  0.6209997747940933  0.5649653574876722  1.0000
  N   N5        1.0  0.447957481043872  0.227222916562944  0.9614925898975384  1.0000
  N   N6        1.0  0.05204533453850501  0.272781446789132  0.4614887037473067  1.0000
  N   N7        1.0  0.5520398459040409  0.7727813341027456  0.03850800804743668  1.0000
  N   N8        1.0  0.9479514639171998  0.7272196577690978  0.5385106559614172  1.0000
  N   N9        1.0  0.2152637996987039  0.13857313536486524  0.07231861708004318  1.0000
  N   N10       1.0  0.2847364149213973  0.36143049314694037  0.572315124363669  1.0000
  N   N11       1.0  0.7847447238540968  0.8614279060988607  0.9276825999843792  1.0000
  N   N12       1.0  0.7152583547292792  0.6385784946972352  0.4276848544667118  1.0000
  N   N13       1.0  0.5873119809213919  0.33178350463287387  0.09801969786629877  1.0000
  N   N14       1.0  0.9126870408647606  0.16822314114287448  0.5980154200389407  1.0000
  N   N15       1.0  0.4126923103138936  0.6682222830148987  0.901979042732165  1.0000
  N   N16       1.0  0.08731284337541473  0.8317763723381475  0.4019845587868572  1.0000
  O   O1        1.0  0.8047888869240651  0.30625650572340396  0.8353650727630322  1.0000
  O   O2        1.0  0.6952059614203565  0.19374624178116312  0.3353642934236872  1.0000
  O   O3        1.0  0.19520817577774355  0.6937461718885559  0.16463490606381725  1.0000
  O   O4        1.0  0.3047941870609563  0.8062548447474143  0.6646350662864788  1.0000
  O   O5        1.0  0.2022742131689341  0.08916602232272199  0.8578949368521407  1.0000
  O   O6        1.0  0.29772583009999215  0.41083574388991206  0.3578908438904377  1.0000
  O   O7        1.0  0.7977223210506141  0.910833509194127  0.14210628020597227  1.0000
  O   O8        1.0  0.7022737898915921  0.5891621965342964  0.6421078967003595  1.0000
  O   O9        1.0  0.7808052049358026  0.3875159023746662  0.0686947319656355  1.0000
  O   O10       1.0  0.7191962278853766  0.11247626646345311  0.5686902055160343  1.0000
  O   O11       1.0  0.2192016435917452  0.6124851480884458  0.9313033895136582  1.0000
  O   O12       1.0  0.2808018066494711  0.8875122356630809  0.4313097733010594  1.0000
  O   O13       1.0  0.5367385292227168  0.35538974769647785  0.17248707128816676  1.0000
  O   O14       1.0  0.9632582698419799  0.14462080482434198  0.6724840418560729  1.0000
  O   O15       1.0  0.4632616192561018  0.6446113388290157  0.8275116693051174  1.0000
  O   O16       1.0  0.03674584670575603  0.8553739624602841  0.32751593696816866  1.0000
