data_image0
_chemical_formula_structural       Zn2H28C36N8O8
_chemical_formula_sum              "Zn2 H28 C36 N8 O8"
_cell_length_a       7.481627670107086
_cell_length_b       10.518841909413984
_cell_length_c       11.700102497538458
_cell_angle_alpha    70.34130968871305
_cell_angle_beta     85.7289643368648
_cell_angle_gamma    72.64552550912998

_space_group_name_H-M_alt    "P 1"
_space_group_IT_number       1

loop_
  _space_group_symop_operation_xyz
  'x, y, z'

loop_
  _atom_site_type_symbol
  _atom_site_label
  _atom_site_symmetry_multiplicity
  _atom_site_fract_x
  _atom_site_fract_y
  _atom_site_fract_z
  _atom_site_occupancy
  Zn  Zn1       1.0  0.1820418827763319  0.4722668378681334  0.37604657129541863  1.0000
  Zn  Zn2       1.0  0.8179604427542061  0.5277318022589339  0.6239518369408473  1.0000
  H   H1        1.0  0.9958577088165301  0.4931776468139261  0.1495990846177548  1.0000
  H   H2        1.0  0.004136154509346711  0.5068220723149606  0.8504028108772916  1.0000
  H   H3        1.0  0.8054884511418763  0.675535363338497  0.9691788530612514  1.0000
  H   H4        1.0  0.19450272207435407  0.32446436496897485  0.030825729323417806  1.0000
  H   H5        1.0  0.8669764526364573  0.9912747039816093  0.11141879942296394  1.0000
  H   H6        1.0  0.13302908928919516  0.008726036753664297  0.88857967759472  1.0000
  H   H7        1.0  0.05321543757532513  0.7962321412747854  0.2837963258380541  1.0000
  H   H8        1.0  0.9467976280608211  0.20376646878282395  0.7161990260283702  1.0000
  H   H9        1.0  0.6938258139585756  0.07158403417091819  0.9305909443316838  1.0000
  H   H10       1.0  0.3061689878614758  0.9284167366338136  0.06941058905583483  1.0000
  H   H11       1.0  0.6413774968685078  0.851474584599657  0.8246885325222311  1.0000
  H   H12       1.0  0.35861744162050974  0.14852934671958448  0.17531032854974882  1.0000
  H   H13       1.0  0.5646420032810227  0.2463074287741591  0.784314146894147  1.0000
  H   H14       1.0  0.4353582973535311  0.7536964900944836  0.21568617701071705  1.0000
  H   H15       1.0  0.38615157845425324  0.4337833380526419  0.6100250408253133  1.0000
  H   H16       1.0  0.6138540933627114  0.5662205654121095  0.3899733276063771  1.0000
  H   H17       1.0  0.2678574209346394  0.14937419312191477  0.4745381615945093  1.0000
  H   H18       1.0  0.7321396565271312  0.8506276273534965  0.5254646572584748  1.0000
  H   H19       1.0  0.45023142538371996  0.9447618082231414  0.6453083038218993  1.0000
  H   H20       1.0  0.5497571921326101  0.05524109051575719  0.3546971477133668  1.0000
  H   H21       1.0  0.6284039251453564  0.5169440664059762  0.08792390578171456  1.0000
  H   H22       1.0  0.3716046965064521  0.4830556144229874  0.9120773123329258  1.0000
  H   H23       1.0  0.761335835294247  0.3702082164462439  0.20473051929560884  1.0000
  H   H24       1.0  0.2386744080817282  0.6297872407987979  0.7952684826229446  1.0000
  H   H25       1.0  0.801340074485431  0.13925568241494798  0.5551590217580228  1.0000
  H   H26       1.0  0.1986614356645903  0.8607450709807266  0.444842203729323  1.0000
  H   H27       1.0  0.6466630325980419  0.2642251566067769  0.43419209729674446  1.0000
  H   H28       1.0  0.353338352179101  0.7357724325827633  0.5658075276235552  1.0000
  C   C1        1.0  0.9615017566434146  0.6052788498245788  0.1370277711676807  1.0000
  C   C2        1.0  0.03850056210946215  0.39471979251745637  0.8629732007981233  1.0000
  C   C3        1.0  0.8569612291192712  0.7072991564086947  0.037060728893742165  1.0000
  C   C4        1.0  0.14303787097927068  0.29269738606345896  0.9629410288671566  1.0000
  C   C5        1.0  0.8179717265085172  0.85107769404285  0.024730308906114815  1.0000
  C   C6        1.0  0.18202724595794  0.14891568496149427  0.975270702864272  1.0000
  C   C7        1.0  0.8915930202121135  0.8822101018179322  0.11583007008587036  1.0000
  C   C8        1.0  0.108414129882398  0.11778641976335541  0.8841713181948097  1.0000
  C   C9        1.0  0.9954826131279332  0.7737053816310462  0.21268837071406932  1.0000
  C   C10       1.0  0.004523732882148643  0.2262932495272309  0.7873115619351125  1.0000
  C   C11       1.0  0.7091334469687138  0.9674011689543958  0.9247693906849295  1.0000
  C   C12       1.0  0.2908608263066412  0.03259749280185528  0.07523024160806811  1.0000
  C   C13       1.0  0.6296708670609592  0.9552998605197089  0.8303756057369471  1.0000
  C   C14       1.0  0.3703199165387616  0.044700918515481185  0.16962354866114282  1.0000
  C   C15       1.0  0.524112482672109  0.07548166442945357  0.7315878043769859  1.0000
  C   C16       1.0  0.47587922360725127  0.9245201714498487  0.2684169699491793  1.0000
  C   C17       1.0  0.5020634638440314  0.2173547788038945  0.719160320795105  1.0000
  C   C18       1.0  0.49793710555259446  0.78264492365426  0.2808421213762814  1.0000
  C   C19       1.0  0.39977318470574374  0.32447940297128497  0.6210296791135265  1.0000
  C   C20       1.0  0.6002234963618707  0.675523470446812  0.3789702754824307  1.0000
  C   C21       1.0  0.33646827634080984  0.16542755116457636  0.5454383316931414  1.0000
  C   C22       1.0  0.6635234367162112  0.8345742824997585  0.4545638789034783  1.0000
  C   C23       1.0  0.43822510715362034  0.0522756994277671  0.6403240695384299  1.0000
  C   C24       1.0  0.5617670068159982  0.9477250798172323  0.3596792961621987  1.0000
  C   C25       1.0  0.4571997486203614  0.4074520155167463  0.2152583141307858  1.0000
  C   C26       1.0  0.5428070095984198  0.5925455575305776  0.7847385007398275  1.0000
  C   C27       1.0  0.6390630871562595  0.40685771857034325  0.14291784883612024  1.0000
  C   C28       1.0  0.3609441860518957  0.5931419679553968  0.857085994588104  1.0000
  C   C29       1.0  0.6656976832755678  0.32229862007563526  0.06419054799653175  1.0000
  C   C30       1.0  0.33431001569660174  0.6777000039092228  0.9358050501900409  1.0000
  C   C31       1.0  0.8834971764392565  0.32660112905806926  0.45844503772334383  1.0000
  C   C32       1.0  0.11650300334086688  0.6733996241277964  0.5415519764614629  1.0000
  C   C33       1.0  0.7953928716176719  0.210845251264594  0.4611668201229549  1.0000
  C   C34       1.0  0.20460891859051605  0.7891512820289677  0.5388322507483282  1.0000
  C   C35       1.0  0.8826876334239632  0.12930869322622837  0.38327234855626824  1.0000
  C   C36       1.0  0.1173106603309365  0.8706899595612397  0.6167288081496453  1.0000
  N   N1        1.0  0.02935958374838084  0.6365876880855835  0.22491863949495897  1.0000
  N   N2        1.0  0.9706405982909558  0.36341306436196413  0.7750775201133351  1.0000
  N   N3        1.0  0.3161395512816583  0.3009187504390667  0.5347723157983283  1.0000
  N   N4        1.0  0.6838579361295986  0.699082012663723  0.46522823985260703  1.0000
  N   N5        1.0  0.6783426259087549  0.25574639188456405  0.00043383534988814416  1.0000
  N   N6        1.0  0.3216586312937224  0.7442585727533382  0.9995592898353325  1.0000
  N   N7        1.0  0.9518678310001149  0.06145846547529739  0.32196404885193897  1.0000
  N   N8        1.0  0.048130202972167545  0.9385338618532015  0.678037325025969  1.0000
  O   O1        1.0  0.442457092923874  0.46333425204220174  0.29903788710812057  1.0000
  O   O2        1.0  0.5575446995435341  0.5366622805130346  0.7009603291866429  1.0000
  O   O3        1.0  0.33991967981280174  0.35768525603981505  0.1893189659293314  1.0000
  O   O4        1.0  0.6600905658223939  0.6423102004669018  0.8106791814127094  1.0000
  O   O5        1.0  0.9969696474432725  0.3575941299398409  0.3753509517830409  1.0000
  O   O6        1.0  0.0030300105698160933  0.6424045119825833  0.6246415975776929  1.0000
  O   O7        1.0  0.8287388072620062  0.38042619093520347  0.5409170414074044  1.0000
  O   O8        1.0  0.17126111053369203  0.6195787764461896  0.4590752907813426  1.0000
