data_image0
_chemical_formula_structural       Co6H16C28N12O12
_chemical_formula_sum              "Co6 H16 C28 N12 O12"
_cell_length_a       10.865061832221011
_cell_length_b       10.85959865869838
_cell_length_c       10.846270318329942
_cell_angle_alpha    89.26874631253995
_cell_angle_beta     89.06334967999304
_cell_angle_gamma    63.781047120339565

_space_group_name_H-M_alt    "P 1"
_space_group_IT_number       1

loop_
  _space_group_symop_operation_xyz
  'x, y, z'

loop_
  _atom_site_type_symbol
  _atom_site_label
  _atom_site_symmetry_multiplicity
  _atom_site_fract_x
  _atom_site_fract_y
  _atom_site_fract_z
  _atom_site_occupancy
  Co  Co1       1.0  0.9063912217160492  0.09436013311123757  0.24990429800270422  1.0000
  Co  Co2       1.0  0.09360392572813228  0.9056480861120804  0.7500949778075209  1.0000
  Co  Co3       1.0  0.8452909317900037  0.9930853818732075  0.0010184996741742032  1.0000
  Co  Co4       1.0  0.006271581812654901  0.15499017972555154  0.49887222691976524  1.0000
  Co  Co5       1.0  0.1547155639674571  0.006911471237906116  0.9989826015890132  1.0000
  Co  Co6       1.0  0.9937215754168138  0.8450152961767898  0.5011299971795466  1.0000
  H   H1        1.0  0.5374804181811114  0.1662337212752478  0.41128938344343885  1.0000
  H   H2        1.0  0.8324433198546403  0.4631134684861634  0.0899033481095231  1.0000
  H   H3        1.0  0.4625190365866346  0.833753438144491  0.5887169703756215  1.0000
  H   H4        1.0  0.167562074717587  0.536887458288369  0.910093954084857  1.0000
  H   H5        1.0  0.3343629969597687  0.1545183847369671  0.5136931337328364  1.0000
  H   H6        1.0  0.8432038036170296  0.6664824080139197  0.9873369856787307  1.0000
  H   H7        1.0  0.6656281495757383  0.8454806060309322  0.48630941297241753  1.0000
  H   H8        1.0  0.15680151053678767  0.3335230662953279  0.012656459522574404  1.0000
  H   H9        1.0  0.4281467760171083  0.07186730460525587  0.056467312821268906  1.0000
  H   H10       1.0  0.9320182981627668  0.5715167533457189  0.443136542581577  1.0000
  H   H11       1.0  0.5718587468121399  0.9281328499272803  0.9435383143969388  1.0000
  H   H12       1.0  0.0679738194802724  0.4284891548443568  0.5568647838086279  1.0000
  H   H13       1.0  0.8795158348999763  0.20885311794851447  0.0458073055406203  1.0000
  H   H14       1.0  0.791411054442783  0.12047668460896693  0.4543631993532458  1.0000
  H   H15       1.0  0.12048549708425332  0.7911496551543421  0.9541928540339627  1.0000
  H   H16       1.0  0.208586127735451  0.8795287572830827  0.5456342560991203  1.0000
  C   C1        1.0  0.6230087475609807  0.11731472113159921  0.17736333211316688  1.0000
  C   C2        1.0  0.8833943411206135  0.37741055346262437  0.3229973945364435  1.0000
  C   C3        1.0  0.3769916594946779  0.882680261869318  0.8226408457574623  1.0000
  C   C4        1.0  0.1166038995441951  0.6225861165746451  0.6769994264135448  1.0000
  C   C5        1.0  0.49382289947206465  0.11898671356997423  0.22958704609546743  1.0000
  C   C6        1.0  0.882404126161589  0.506129646993891  0.27070144961438564  1.0000
  C   C7        1.0  0.5061775145442199  0.8809971276887082  0.7704138605947648  1.0000
  C   C8        1.0  0.1175993312549934  0.4938639554456968  0.7293008155145487  1.0000
  C   C9        1.0  0.46620467114284025  0.1432092761235495  0.35807713103488226  1.0000
  C   C10       1.0  0.856495323206012  0.5341723491541189  0.142598862515932  1.0000
  C   C11       1.0  0.5337915365280778  0.856787385809419  0.6419206924778676  1.0000
  C   C12       1.0  0.1435070346849727  0.46582997492136974  0.8574012735939506  1.0000
  C   C13       1.0  0.3544113488329614  0.1370799797580915  0.4151388777013167  1.0000
  C   C14       1.0  0.8620328065173695  0.6460924068883571  0.0855361127129228  1.0000
  C   C15       1.0  0.6455910706568204  0.8629187029417122  0.5848641597682659  1.0000
  C   C16       1.0  0.1379725795151288  0.3539075802479132  0.9144603027672176  1.0000
  C   C17       1.0  0.2680729730515523  0.10587939023997005  0.33989182943564344  1.0000
  C   C18       1.0  0.8942382994660039  0.7322149782573388  0.16037250351686078  1.0000
  C   C19       1.0  0.7319263910178934  0.8941141625117691  0.6601105984711994  1.0000
  C   C20       1.0  0.1057620339708194  0.2677882773521318  0.8396295218700233  1.0000
  C   C21       1.0  0.2941611149663217  0.08230021529922031  0.2116028280263862  1.0000
  C   C22       1.0  0.9193998179261487  0.7057172710653599  0.2882555164439609  1.0000
  C   C23       1.0  0.7058340958168117  0.9177015771128437  0.7883985313484415  1.0000
  C   C24       1.0  0.0806015602370422  0.29428462935773325  0.7117474411116048  1.0000
  C   C25       1.0  0.40749234921434413  0.08937422619384708  0.15464252502405884  1.0000
  C   C26       1.0  0.9130411197993669  0.5922096595241583  0.34526813256966454  1.0000
  C   C27       1.0  0.5925029317878483  0.9106174310727512  0.8453601345798417  1.0000
  C   C28       1.0  0.08695409952350272  0.407793072526175  0.654734113519396  1.0000
  N   N1        1.0  0.15122261024610142  0.09258968114426838  0.36600823278042327  1.0000
  N   N2        1.0  0.9073075363662964  0.8491219635714057  0.13419056097590953  1.0000
  N   N3        1.0  0.848772489359483  0.9074147627863384  0.6339865749990493  1.0000
  N   N4        1.0  0.092704041005824  0.1508763025182276  0.8658084427779187  1.0000
  N   N5        1.0  0.10791599226660512  0.06361464979971738  0.26093486164781865  1.0000
  N   N6        1.0  0.9375177799954173  0.8921881755515242  0.2388953519240715  1.0000
  N   N7        1.0  0.8920800819268281  0.9363911406819341  0.7390570902263961  1.0000
  N   N8        1.0  0.06248759741682619  0.10781830535450611  0.761102664686696  1.0000
  N   N9        1.0  0.1907087187949656  0.05593217113879941  0.16602158863322103  1.0000
  N   N10       1.0  0.9462805520019086  0.8090561487210194  0.3335760064106879  1.0000
  N   N11       1.0  0.8092925602107216  0.9440677495699813  0.8339740684510277  1.0000
  N   N12       1.0  0.05371565550795761  0.19095538002802212  0.6664267927917962  1.0000
  O   O1        1.0  0.926075127040349  0.11034056537764758  0.061407783096250085  1.0000
  O   O2        1.0  0.8898880996287276  0.0739123835395005  0.43828767961402804  1.0000
  O   O3        1.0  0.07392408647215379  0.889660236646229  0.9385869997435846  1.0000
  O   O4        1.0  0.1101112284611077  0.9260876295027456  0.5617145070758268  1.0000
  O   O5        1.0  0.697579657570607  0.14520036305751907  0.2500190821611882  1.0000
  O   O6        1.0  0.8543825132952206  0.30319706005742836  0.25049632443901254  1.0000
  O   O7        1.0  0.30242982362970844  0.8547894549230007  0.7499738649010796  1.0000
  O   O8        1.0  0.14561041303941383  0.6968127792437284  0.7494919097553492  1.0000
  O   O9        1.0  0.6519629254990136  0.0836661778473271  0.06343689247876938  1.0000
  O   O10       1.0  0.9173053271273732  0.3484122776054757  0.43656376443020417  1.0000
  O   O11       1.0  0.3480499327953055  0.9163105799423975  0.9365720921185313  1.0000
  O   O12       1.0  0.08268781808205722  0.6515978295297131  0.5634392085450628  1.0000
