data_image0
_chemical_formula_structural       Ba4H4C8O18
_chemical_formula_sum              "Ba4 H4 C8 O18"
_cell_length_a       6.27971924347577
_cell_length_b       8.721862071054652
_cell_length_c       9.26420515672143
_cell_angle_alpha    65.16826049007999
_cell_angle_beta     85.28155745755416
_cell_angle_gamma    84.52074820608779

_space_group_name_H-M_alt    "P 1"
_space_group_IT_number       1

loop_
  _space_group_symop_operation_xyz
  'x, y, z'

loop_
  _atom_site_type_symbol
  _atom_site_label
  _atom_site_symmetry_multiplicity
  _atom_site_fract_x
  _atom_site_fract_y
  _atom_site_fract_z
  _atom_site_occupancy
  Ba  Ba1       1.0  0.28114643501649544  0.044069134869722894  0.7936077973365913  1.0000
  Ba  Ba2       1.0  0.7188512209542424  0.9559320603420929  0.20639042506741137  1.0000
  Ba  Ba3       1.0  0.20609632708398357  0.6382206181037305  0.5816516699434331  1.0000
  Ba  Ba4       1.0  0.7939028278538559  0.361781857088026  0.41834811228920904  1.0000
  H   H1        1.0  0.31740008028382494  0.3903481083601931  0.9489768507423977  1.0000
  H   H2        1.0  0.6826076893345103  0.6096467382205758  0.05102225484367301  1.0000
  H   H3        1.0  0.3315750014393686  0.5779755660680551  0.9276730914820063  1.0000
  H   H4        1.0  0.6684267211060302  0.42201555025625487  0.07233649202973418  1.0000
  C   C1        1.0  0.8167314957610544  0.9220829623884231  0.6770533550879563  1.0000
  C   C2        1.0  0.18326274916101684  0.0779207608116721  0.3229429709447302  1.0000
  C   C3        1.0  0.6723544522354318  0.8178128171219257  0.6292449302302785  1.0000
  C   C4        1.0  0.3276477859880772  0.1821909055311792  0.3707520160054685  1.0000
  C   C5        1.0  0.8703956177362715  0.2781659858324517  0.8215049052527946  1.0000
  C   C6        1.0  0.1296085393981983  0.7218339442853862  0.17849452984283679  1.0000
  C   C7        1.0  0.6215540986476781  0.2959606047842982  0.816198567422994  1.0000
  C   C8        1.0  0.37844026918749296  0.704041890798493  0.18380364070017663  1.0000
  O   O1        1.0  0.014839915922273428  0.8795835720623302  0.6860987740105458  1.0000
  O   O2        1.0  0.9851539124706292  0.12042523136944538  0.31389769914948573  1.0000
  O   O3        1.0  0.7246410191257484  0.048917738680032095  0.6967531501429463  1.0000
  O   O4        1.0  0.27535184291293996  0.9510834614898586  0.3032453458343839  1.0000
  O   O5        1.0  0.7569384651043265  0.7536871323422147  0.5361605214579512  1.0000
  O   O6        1.0  0.24306388578821717  0.24631533954416077  0.4638390783924606  1.0000
  O   O7        1.0  0.47843983905325166  0.8093343597321122  0.6811473379386898  1.0000
  O   O8        1.0  0.5215625937760678  0.19066679193924324  0.3188452300989582  1.0000
  O   O9        1.0  0.9777814412447369  0.3549143395113248  0.6914802998398316  1.0000
  O   O10       1.0  0.0222193014263681  0.6450881108783122  0.30851616272588006  1.0000
  O   O11       1.0  0.9508901149933351  0.18090389845354338  0.9514371011011349  1.0000
  O   O12       1.0  0.049111269544994215  0.8190909701709542  0.04856452156657555  1.0000
  O   O13       1.0  0.5380429048490784  0.3773024738701665  0.6831214431372246  1.0000
  O   O14       1.0  0.4619577388117762  0.6227012581521053  0.3168766704482309  1.0000
  O   O15       1.0  0.5165769836645566  0.21919385651927573  0.9475860433546047  1.0000
  O   O16       1.0  0.4834226048759191  0.7808035770231854  0.05241897254370551  1.0000
  O   O17       1.0  0.23750033814597776  0.5019261686046407  0.9157241993885988  1.0000
  O   O18       1.0  0.7625074314723649  0.4980686779761285  0.08427490619746436  1.0000
