data_image0
_chemical_formula_structural       Mg2H36C28N4O16
_chemical_formula_sum              "Mg2 H36 C28 N4 O16"
_cell_length_a       9.506580446069893
_cell_length_b       10.131539787273033
_cell_length_c       10.131555621771119
_cell_angle_alpha    70.66222768295685
_cell_angle_beta     70.73353016573095
_cell_angle_gamma    70.73381772491872

_space_group_name_H-M_alt    "P 1"
_space_group_IT_number       1

loop_
  _space_group_symop_operation_xyz
  'x, y, z'

loop_
  _atom_site_type_symbol
  _atom_site_label
  _atom_site_symmetry_multiplicity
  _atom_site_fract_x
  _atom_site_fract_y
  _atom_site_fract_z
  _atom_site_occupancy
  Mg  Mg1       1.0  0.0  0.0  0.0  1.0000
  Mg  Mg2       1.0  0.499998758868429  0.999999801907208  8.379955360357247e-07  1.0000
  H   H1        1.0  0.6857140943409945  0.2665126077805553  0.9411518498315418  1.0000
  H   H2        1.0  0.814295055143191  0.05884534337506859  0.7334813515963532  1.0000
  H   H3        1.0  0.31428747913607685  0.7334838228102425  0.0588474637525351  1.0000
  H   H4        1.0  0.18570454488500593  0.94115432667153  0.26651947198092774  1.0000
  H   H5        1.0  0.5394396903612988  0.48166299531088425  0.8682324167009055  1.0000
  H   H6        1.0  0.9605661659299614  0.1317661485845818  0.5183316477235991  1.0000
  H   H7        1.0  0.460559903114799  0.5183366714623077  0.13176742300003486  1.0000
  H   H8        1.0  0.0394337253976502  0.8682324417882159  0.48166944613904406  1.0000
  H   H9        1.0  0.6102419199529762  0.591826054403903  0.6964975707037481  1.0000
  H   H10       1.0  0.8897639901680989  0.3035028708912932  0.408169716656701  1.0000
  H   H11       1.0  0.38975907747737176  0.4081725388078894  0.303502186185952  1.0000
  H   H12       1.0  0.11023782861767728  0.6964968081067013  0.5918294168510344  1.0000
  H   H13       1.0  0.6315344438570352  0.615731272519156  0.8549013069937388  1.0000
  H   H14       1.0  0.8684691640007499  0.1450991661459611  0.38426366020908626  1.0000
  H   H15       1.0  0.36846514306695594  0.38426839098064397  0.14509754883085438  1.0000
  H   H16       1.0  0.13153042947534732  0.8549005006272382  0.6157361794918543  1.0000
  H   H17       1.0  0.9614190001114481  0.5232464177768817  0.7497918241401818  1.0000
  H   H18       1.0  0.5385846843449683  0.25021067310793665  0.4767534050514967  1.0000
  H   H19       1.0  0.038579487261913  0.4767532461573225  0.2502093525336946  1.0000
  H   H20       1.0  0.4614143265323066  0.7497911530128577  0.5232458940787195  1.0000
  H   H21       1.0  0.88176269042453  0.5627062987664431  0.600010839082465  1.0000
  H   H22       1.0  0.6182443914989263  0.39998948440575083  0.4372936247874931  1.0000
  H   H23       1.0  0.11823550564941604  0.43729444484155505  0.3999900673060495  1.0000
  H   H24       1.0  0.38175742728684975  0.6000101945922437  0.5627055087202422  1.0000
  H   H25       1.0  0.0026481614937807975  0.3865107644832619  0.6581287778694858  1.0000
  H   H26       1.0  0.4973587819022354  0.3418704299312197  0.613491712230214  1.0000
  H   H27       1.0  0.9973511406829091  0.6134899819637313  0.34187079154609273  1.0000
  H   H28       1.0  0.5026416394813894  0.6581303259015813  0.3865084879651021  1.0000
  H   H29       1.0  0.6441860957529286  0.8594092355886289  0.6879379688138555  1.0000
  H   H30       1.0  0.8558154955108463  0.3120612291368587  0.14058940094783873  1.0000
  H   H31       1.0  0.3558143256306963  0.1405915202441648  0.3120622313814607  1.0000
  H   H32       1.0  0.14418632982702917  0.6879384531345353  0.8594107164362298  1.0000
  H   H33       1.0  0.15530953459808927  0.0866911786687226  0.6854111182290339  1.0000
  H   H34       1.0  0.3446906957166362  0.31459089459026757  0.9133056730462387  1.0000
  H   H35       1.0  0.8446900588780014  0.9133084881044763  0.31458872147190675  1.0000
  H   H36       1.0  0.6553100038621978  0.6854087750219267  0.08669282968175912  1.0000
  C   C1        1.0  0.7939763482183152  0.2933002728691037  0.8700297979992655  1.0000
  C   C2        1.0  0.7060330524394445  0.12996881925592163  0.7066948770000252  1.0000
  C   C3        1.0  0.2060221326029463  0.7066993877916943  0.12997039479827066  1.0000
  C   C4        1.0  0.29396764713938933  0.8700308503562725  0.29330362572796537  1.0000
  C   C5        1.0  0.632114273232162  0.53527146322174  0.8035833839536295  1.0000
  C   C6        1.0  0.8678903528570743  0.19641728981662962  0.46472398065455417  1.0000
  C   C7        1.0  0.36788561154335037  0.46472712387765813  0.1964167260326662  1.0000
  C   C8        1.0  0.1321100685265435  0.8035834660161711  0.5352762195407621  1.0000
  C   C9        1.0  0.9145262136255216  0.47827337738812764  0.6931711070702703  1.0000
  C   C10       1.0  0.5854795734039443  0.306829609514196  0.5217263040600811  1.0000
  C   C11       1.0  0.0854733798505762  0.5217262893850716  0.30682873263067023  1.0000
  C   C12       1.0  0.4145208414275743  0.6931711430451983  0.47827291225889473  1.0000
  C   C13       1.0  0.34489877224108056  0.9557163990609399  0.8037219727557813  1.0000
  C   C14       1.0  0.1550970582970308  0.1962766248273837  0.04428251692962703  1.0000
  C   C15       1.0  0.6551019338898528  0.0442832738246608  0.19627751384855685  1.0000
  C   C16       1.0  0.8449022504317583  0.8037241248930158  0.9557180363622919  1.0000
  C   C17       1.0  0.5818628692355717  0.920121637169892  0.6046821277400909  1.0000
  C   C18       1.0  0.918135820282579  0.3953180675963069  0.07987873357168254  1.0000
  C   C19       1.0  0.41813644604531675  0.0798791158239069  0.39531940942816846  1.0000
  C   C20       1.0  0.08186489240046056  0.604681608562693  0.9201217369089889  1.0000
  C   C21       1.0  0.42344781326750086  0.9789026127990468  0.646990544620877  1.0000
  C   C22       1.0  0.0765541310901838  0.3530093941652482  0.021094406261319358  1.0000
  C   C23       1.0  0.5765517802085967  0.021097053974152406  0.3530092950800636  1.0000
  C   C24       1.0  0.9234465750407496  0.6469902787203452  0.9789050803430186  1.0000
  C   C25       1.0  0.3397928315505041  0.0605904107813231  0.5406265203831921  1.0000
  C   C26       1.0  0.16020663619821113  0.4593752857596272  0.939407901276745  1.0000
  C   C27       1.0  0.6602075898331207  0.9394103450514705  0.45937367981212407  1.0000
  C   C28       1.0  0.8397937720812082  0.5406254635263679  0.06059033116589045  1.0000
  N   N1        1.0  0.7794344829557858  0.42901802421801705  0.7886710702165657  1.0000
  N   N2        1.0  0.7205714187479729  0.21132700858257894  0.5709804585758532  1.0000
  N   N3        1.0  0.2205665144745623  0.5709805689937754  0.21132868667313426  1.0000
  N   N4        1.0  0.27942817472812453  0.7886726581906204  0.4290193811250872  1.0000
  O   O1        1.0  0.19700166436570754  0.9932408567289458  0.8349393895706996  1.0000
  O   O2        1.0  0.30300160209716853  0.16506282748570564  0.006752804366584504  1.0000
  O   O3        1.0  0.8029979356624893  0.0067588133176528  0.1650614340065815  1.0000
  O   O4        1.0  0.696998819286449  0.8349379283470884  0.9932473958287317  1.0000
  O   O5        1.0  0.4239512611937926  0.9003517833240338  0.8963310514940942  1.0000
  O   O6        1.0  0.07605237508065699  0.10367248228174471  0.0996441175731988  1.0000
  O   O7        1.0  0.5760483388344041  0.09964788672256471  0.10366977208318669  1.0000
  O   O8        1.0  0.9239480463029609  0.896328273551049  0.9003560826221175  1.0000
  O   O9        1.0  0.9204086748157678  0.2007693543807179  0.8657379247671457  1.0000
  O   O10       1.0  0.5796006184084633  0.13425899763928578  0.7992304579973606  1.0000
  O   O11       1.0  0.07959483267156744  0.7992281681086765  0.13426041233837083  1.0000
  O   O12       1.0  0.4203964519064413  0.8657417333095127  0.20076883373508275  1.0000
  O   O13       1.0  0.18612259630278064  0.12150846148183798  0.5762161623654904  1.0000
  O   O14       1.0  0.3138773416875934  0.42378601675560656  0.8784882186231187  1.0000
  O   O15       1.0  0.8138758910705804  0.8784912024523664  0.423785014308386  1.0000
  O   O16       1.0  0.6861222452363974  0.5762136467441935  0.12151063720148156  1.0000
