data_image0
_chemical_formula_structural       Ni6H6C30O30
_chemical_formula_sum              "Ni6 H6 C30 O30"
_cell_length_a       6.728524276171732
_cell_length_b       15.079178483284743
_cell_length_c       15.077119893467179
_cell_angle_alpha    117.82750191223307
_cell_angle_beta     98.55360815721768
_cell_angle_gamma    98.549147217236

_space_group_name_H-M_alt    "P 1"
_space_group_IT_number       1

loop_
  _space_group_symop_operation_xyz
  'x, y, z'

loop_
  _atom_site_type_symbol
  _atom_site_label
  _atom_site_symmetry_multiplicity
  _atom_site_fract_x
  _atom_site_fract_y
  _atom_site_fract_z
  _atom_site_occupancy
  Ni  Ni1       1.0  0.9684181486704587  0.2689526203427235  0.5900306953701673  1.0000
  Ni  Ni2       1.0  0.6995338077773636  0.32109174172810384  0.7310149298737656  1.0000
  Ni  Ni3       1.0  0.3783648852106011  0.40990441340411377  0.6788913596486167  1.0000
  Ni  Ni4       1.0  0.031580951829717104  0.7310474046719972  0.4099687693093441  1.0000
  Ni  Ni5       1.0  0.300463788845036  0.6789082833517526  0.2689850978364845  1.0000
  Ni  Ni6       1.0  0.6216353320641373  0.5900948371951885  0.3211071548040821  1.0000
  H   H1        1.0  0.12518398170043105  0.9788272348867937  0.4402785983162191  1.0000
  H   H2        1.0  0.14646162170828347  0.46163357954886663  0.02128893515033076  1.0000
  H   H3        1.0  0.6847825187432475  0.559683325261993  0.5383887495295596  1.0000
  H   H4        1.0  0.8748155059029655  0.02117356447822521  0.5597212535593599  1.0000
  H   H5        1.0  0.8535355868406282  0.5383656712077851  0.9787113685685968  1.0000
  H   H6        1.0  0.3152161946537149  0.4403159254024446  0.46161032795387774  1.0000
  C   C1        1.0  0.31478726502978555  0.17488929440086304  0.5652153273194287  1.0000
  C   C2        1.0  0.13983429382373905  0.39037259101861105  0.8251343350622591  1.0000
  C   C3        1.0  0.7493581911296301  0.43470120767475606  0.6095197095715007  1.0000
  C   C4        1.0  0.6852133374076244  0.8251107306029084  0.4347849007388406  1.0000
  C   C5        1.0  0.8601663095839456  0.6096274339580746  0.17486522979126568  1.0000
  C   C6        1.0  0.2506394074333045  0.5652988173509215  0.3904789917292462  1.0000
  C   C7        1.0  0.4169356593202592  0.08801604878858171  0.5352114424472916  1.0000
  C   C8        1.0  0.3288215829913381  0.4473208407115833  0.9120071304614754  1.0000
  C   C9        1.0  0.8814481978187629  0.46467783564931153  0.5526425788758189  1.0000
  C   C10       1.0  0.5830638273128628  0.911984750603523  0.464789072633039  1.0000
  C   C11       1.0  0.6711771294353495  0.55267840997994  0.08799261022670633  1.0000
  C   C12       1.0  0.11855240558891467  0.5353221893273671  0.44735698597769874  1.0000
  C   C13       1.0  0.6348479767362462  0.10120080994486359  0.5706355010119282  1.0000
  C   C14       1.0  0.5335601641978158  0.46942057103996865  0.8987434302242862  1.0000
  C   C15       1.0  0.06408379874669375  0.42932155623775253  0.5305399432440439  1.0000
  C   C16       1.0  0.3651515108671504  0.8987999894201552  0.4293643508636508  1.0000
  C   C17       1.0  0.46643966500342765  0.5305779052361289  0.10125536023709004  1.0000
  C   C18       1.0  0.9359171917642044  0.5706792430892236  0.46946000880554817  1.0000
  C   C19       1.0  0.2904657510586759  0.9883008935750227  0.4667272535097455  1.0000
  C   C20       1.0  0.30221594561042037  0.47858543910923856  0.011765468543323708  1.0000
  C   C21       1.0  0.8235999483951416  0.5332031006607282  0.5214385690043173  1.0000
  C   C22       1.0  0.7095352394522222  0.011699905751953598  0.5332726985398466  1.0000
  C   C23       1.0  0.6977812639087586  0.5214138116203273  0.9882341719708521  1.0000
  C   C24       1.0  0.17639876597208115  0.4667961499766164  0.4785598452743685  1.0000
  C   C25       1.0  0.2538379624168883  0.9016776739789664  0.6428670639668042  1.0000
  C   C26       1.0  0.35231041352081155  0.7410619903703904  0.09840451093501211  1.0000
  C   C27       1.0  0.6111113797747335  0.35734760811015337  0.2587468577145772  1.0000
  C   C28       1.0  0.7461611806778448  0.0983254485562313  0.3571358389372321  1.0000
  C   C29       1.0  0.6476931908505321  0.25893803466566107  0.9015985702902753  1.0000
  C   C30       1.0  0.38888883458918844  0.6426516425704136  0.7412536463523695  1.0000
  O   O1        1.0  0.12047490154204606  0.15741250287496908  0.5310919104638004  1.0000
  O   O2        1.0  0.9629923483141453  0.3736816710309796  0.8426010217243557  1.0000
  O   O3        1.0  0.5891392414556619  0.4688077725001491  0.6261602573999241  1.0000
  O   O4        1.0  0.8795241999283973  0.8425875221126663  0.46890689101096  1.0000
  O   O5        1.0  0.03700636508281006  0.6263175796334509  0.15739805575908156  1.0000
  O   O6        1.0  0.4108587442104933  0.5311930268758189  0.3738388310968972  1.0000
  O   O7        1.0  0.430234578934474  0.2677642799886613  0.6256767010100717  1.0000
  O   O8        1.0  0.16240567231496772  0.35789754420873976  0.7322337020486315  1.0000
  O   O9        1.0  0.8044536559290948  0.3742935344540115  0.6420079534765152  1.0000
  O   O10       1.0  0.5697649067283734  0.7322365194305362  0.37432447727500323  1.0000
  O   O11       1.0  0.8375949310927165  0.6421024807679386  0.267765862804886  1.0000
  O   O12       1.0  0.19554544457108136  0.6257064905607166  0.35799151120299655  1.0000
  O   O13       1.0  0.7738090224334471  0.19167026823297562  0.637186078768778  1.0000
  O   O14       1.0  0.5820460404038315  0.4455060584163278  0.8082572760390861  1.0000
  O   O15       1.0  0.13651582636122575  0.3627972701127646  0.5545143438751765  1.0000
  O   O16       1.0  0.2261904651699425  0.8083305311320431  0.36281377310680807  1.0000
  O   O17       1.0  0.4179549481665318  0.5544947409648272  0.19174400242000192  1.0000
  O   O18       1.0  0.8634847770464588  0.6372027548639139  0.4454852209783412  1.0000
  O   O19       1.0  0.2529612996266053  0.8172010067226126  0.5795392304869084  1.0000
  O   O20       1.0  0.4358394512053677  0.7620881197720167  0.18285813045836366  1.0000
  O   O21       1.0  0.6735088387712691  0.4207685300390551  0.23770757015067548  1.0000
  O   O22       1.0  0.747037072172503  0.18280056703073197  0.4204609084107318  1.0000
  O   O23       1.0  0.5641592621915876  0.23791113089242097  0.8171409470250737  1.0000
  O   O24       1.0  0.326494041750358  0.5792330436001691  0.7622928692689968  1.0000
  O   O25       1.0  0.25722193826354095  0.9851972246971243  0.7072876396622833  1.0000
  O   O26       1.0  0.2722469890228396  0.7220793005891722  0.014916727217141297  1.0000
  O   O27       1.0  0.550209643438933  0.29284015448214973  0.27774583488038473  1.0000
  O   O28       1.0  0.7427760415809955  0.014803574841380403  0.2927154280630333  1.0000
  O   O29       1.0  0.7277513353303603  0.2779191757791466  0.985083289479725  1.0000
  O   O30       1.0  0.4497996358159353  0.7071621933551878  0.7222553924313999  1.0000
