data_image0
_chemical_formula_structural       Zn16H16C96S16Cl16O52
_chemical_formula_sum              "Zn16 H16 C96 S16 Cl16 O52"
_cell_length_a       19.65387331642565
_cell_length_b       19.72646785945704
_cell_length_c       33.342388123921495
_cell_angle_alpha    79.08070867208986
_cell_angle_beta     79.28435082645308
_cell_angle_gamma    64.021592789903

_space_group_name_H-M_alt    "P 1"
_space_group_IT_number       1

loop_
  _space_group_symop_operation_xyz
  'x, y, z'

loop_
  _atom_site_type_symbol
  _atom_site_label
  _atom_site_symmetry_multiplicity
  _atom_site_fract_x
  _atom_site_fract_y
  _atom_site_fract_z
  _atom_site_occupancy
  Zn  Zn1       1.0  0.056175201073621395  0.40049685907962385  0.4781791333730466  1.0000
  Zn  Zn2       1.0  0.984734340721154  0.4837482629428181  0.5598666370228216  1.0000
  Zn  Zn3       1.0  0.05873041008777589  0.5618221448772047  0.48331904423754674  1.0000
  Zn  Zn4       1.0  0.900450153500955  0.5536468015683057  0.4787836611533578  1.0000
  Zn  Zn5       1.0  0.6935581927915279  0.34960595722144217  0.2717205481470444  1.0000
  Zn  Zn6       1.0  0.6909721947280755  0.18842880004410037  0.2665618026788934  1.0000
  Zn  Zn7       1.0  0.767902760170159  0.2651125151531274  0.18961274469387493  1.0000
  Zn  Zn8       1.0  0.8473531201479357  0.19703630072355352  0.2723097054863146  1.0000
  Zn  Zn9       1.0  0.26524026775205556  0.7661318967751141  0.6902260766629736  1.0000
  Zn  Zn10      1.0  0.34941959148243734  0.6964438825644169  0.7712824028982295  1.0000
  Zn  Zn11      1.0  0.19367600973024676  0.8495024623661398  0.7719282832138672  1.0000
  Zn  Zn12      1.0  0.19111177373300584  0.6882423490186513  0.7667264518205668  1.0000
  Zn  Zn13      1.0  0.5588487921442604  0.0616665701270805  0.9834656743371254  1.0000
  Zn  Zn14      1.0  0.40261430353334754  0.05302696161381703  0.977715079337635  1.0000
  Zn  Zn15      1.0  0.5563776441307906  0.9002876583681069  0.9783856762383819  1.0000
  Zn  Zn16      1.0  0.4822579680783646  0.9847145671533614  0.060417928659887765  1.0000
  H   H1        1.0  0.7963858508399253  0.5019919527272735  0.3990564579656136  1.0000
  H   H2        1.0  0.95336985358157  0.2487370593660501  0.35080161427089246  1.0000
  H   H3        1.0  0.7476511078739562  0.45433225822180406  0.35070862694207244  1.0000
  H   H4        1.0  0.0021026875153324995  0.2964131510235575  0.3991118684318025  1.0000
  H   H5        1.0  0.15248523833205496  0.6526178451973408  0.5492695523008635  1.0000
  H   H6        1.0  0.09759123332501216  0.5973515415815314  0.7007253607493382  1.0000
  H   H7        1.0  0.20083115094972465  0.7005036317683137  0.5977195329262129  1.0000
  H   H8        1.0  0.04924702678348319  0.5494577932680897  0.6522787638348575  1.0000
  H   H9        1.0  0.7008922220272635  0.2003882465852199  0.0975616682370912  1.0000
  H   H10       1.0  0.549173522231541  0.049575612727387884  0.1524443898373562  1.0000
  H   H11       1.0  0.6522007314190715  0.15258573245837667  0.049269738668336074  1.0000
  H   H12       1.0  0.5978473386801041  0.09739681260204239  0.20073918655155856  1.0000
  H   H13       1.0  0.24803835251704237  0.9538299134149713  0.8507217635496858  1.0000
  H   H14       1.0  0.5024428784120614  0.7959341304000348  0.8991359367377708  1.0000
  H   H15       1.0  0.29675446783843995  0.0015082746200647998  0.8990631238845807  1.0000
  H   H16       1.0  0.45377937527291573  0.7482623829179148  0.8507775389237792  1.0000
  C   C1        1.0  0.06162692574887528  0.31636650346845846  0.5615581626338154  1.0000
  C   C2        1.0  0.06955338313443349  0.5699462757770208  0.5694589555437162  1.0000
  C   C3        1.0  0.18360845287012484  0.4397753936825311  0.4388128244086786  1.0000
  C   C4        1.0  0.9372753986584212  0.6838718848082979  0.43882175477730806  1.0000
  C   C5        1.0  0.9305898488707098  0.43015584274970564  0.4306157535341697  1.0000
  C   C6        1.0  0.8165780275853362  0.5608357191673934  0.5617964512373844  1.0000
  C   C7        1.0  0.5662015526364996  0.3103038090742913  0.31125482608398863  1.0000
  C   C8        1.0  0.6811600721454666  0.17970516716996343  0.18046404713180655  1.0000
  C   C9        1.0  0.6893608225712311  0.43306417844029704  0.18827386082858055  1.0000
  C   C10       1.0  0.9343606153957678  0.18831109699402768  0.18922233600672908  1.0000
  C   C11       1.0  0.8187887410977763  0.3204443631530581  0.31955496911559317  1.0000
  C   C12       1.0  0.8120884549759777  0.06626717484277832  0.31140655294326086  1.0000
  C   C13       1.0  0.43329112142337306  0.6892979783315311  0.6882745831273382  1.0000
  C   C14       1.0  0.3193934717416197  0.8200971638372611  0.8193069871999581  1.0000
  C   C15       1.0  0.18866036092353503  0.9334095399655382  0.6884689954327711  1.0000
  C   C16       1.0  0.0661573665497031  0.8103120915571367  0.8112392988726711  1.0000
  C   C17       1.0  0.18056354540126301  0.6799204710954143  0.6805544865940333  1.0000
  C   C18       1.0  0.3126509570343784  0.5661708468955596  0.8111420607060325  1.0000
  C   C19       1.0  0.4377365799621983  0.18381180826632004  0.9385919826823182  1.0000
  C   C20       1.0  0.43119570684363845  0.9297554051190032  0.9303857535977613  1.0000
  C   C21       1.0  0.6835423669549597  0.939815000423643  0.9387599552510791  1.0000
  C   C22       1.0  0.5609816242218882  0.8166936485435771  0.061784359510646446  1.0000
  C   C23       1.0  0.5689598062068482  0.07016172969294145  0.06955724614802958  1.0000
  C   C24       1.0  0.31580244011355046  0.06157387822533879  0.060861011532487894  1.0000
  C   C25       1.0  0.9019237734843341  0.4018390412063155  0.4017760520665163  1.0000
  C   C26       1.0  0.8477703066099449  0.3489343635370833  0.348123413602238  1.0000
  C   C27       1.0  0.8301502943338405  0.4466987847706748  0.3882531498209972  1.0000
  C   C28       1.0  0.9195985761132517  0.30404911281685554  0.36159940062602663  1.0000
  C   C29       1.0  0.8032091487491468  0.42038506732724545  0.36155469869181184  1.0000
  C   C30       1.0  0.9465454115714989  0.33039504230620054  0.3882949244719639  1.0000
  C   C31       1.0  0.09826413137653837  0.5984372738631549  0.598134476010351  1.0000
  C   C32       1.0  0.15187218938050506  0.6514550708137037  0.6518617860817598  1.0000
  C   C33       1.0  0.14091322478472526  0.640969437697038  0.582470961707969  1.0000
  C   C34       1.0  0.10919345243576829  0.6089615505699869  0.6675266816520348  1.0000
  C   C35       1.0  0.16762064435867782  0.6673738556251012  0.609225214653456  1.0000
  C   C36       1.0  0.08248887971335249  0.5825435334762902  0.6407763042719521  1.0000
  C   C37       1.0  0.30497019961980226  0.4544232851914103  0.40070147624491886  1.0000
  C   C38       1.0  0.44476191264678977  0.2956964348114185  0.3492714804580217  1.0000
  C   C39       1.0  0.2584379957042841  0.41583486115208496  0.4139077303685852  1.0000
  C   C40       1.0  0.49132594998292933  0.33426709315695297  0.33610751984183207  1.0000
  C   C41       1.0  0.3767944352156291  0.3395545475102821  0.37281745251151227  1.0000
  C   C42       1.0  0.37291440503522455  0.4105830562754988  0.37710477647616614  1.0000
  C   C43       1.0  0.7255604710611862  0.5759920611310251  0.6298193336117137  1.0000
  C   C44       1.0  0.524223211472062  0.6740889117222085  0.6202672679885166  1.0000
  C   C45       1.0  0.7423199177686826  0.5853936504265036  0.5871856240571985  1.0000
  C   C46       1.0  0.5075469486833909  0.6646996416575917  0.6628960619436696  1.0000
  C   C47       1.0  0.6038037884282443  0.6417199484218232  0.608210207016036  1.0000
  C   C48       1.0  0.6460027063856654  0.6083841692342987  0.6418588133467579  1.0000
  C   C49       1.0  0.07629591271395238  0.22517773089609255  0.6296644471893841  1.0000
  C   C50       1.0  0.17387192742285854  0.024524817199811425  0.6203639680335371  1.0000
  C   C51       1.0  0.0857433744772322  0.24215864205026347  0.5870240740217625  1.0000
  C   C52       1.0  0.16449281043283281  0.007613452409437131  0.6630013823699485  1.0000
  C   C53       1.0  0.1416364372310071  0.10393662471519603  0.6082151629267969  1.0000
  C   C54       1.0  0.10847728644259999  0.1457838993131446  0.6418054305845615  1.0000
  C   C55       1.0  0.8430035108466567  0.8014151411429185  0.3970651245954429  1.0000
  C   C56       1.0  0.9066308906311773  0.9485480264480587  0.3528399178217255  1.0000
  C   C57       1.0  0.911551475282479  0.7584635148460995  0.41373477171441647  1.0000
  C   C58       1.0  0.8379973474035793  0.9914655543326916  0.3362426033244859  1.0000
  C   C59       1.0  0.9084770337658836  0.8791527636889569  0.3750019805244876  1.0000
  C   C60       1.0  0.8412960052990355  0.8706961049935846  0.37482229803310924  1.0000
  C   C61       1.0  0.6521341624542669  0.15141396463321394  0.15180192156537234  1.0000
  C   C62       1.0  0.5980011263359158  0.0984621359864022  0.09820230970948529  1.0000
  C   C63       1.0  0.6676809881080458  0.16728126946096467  0.1091477203599638  1.0000
  C   C64       1.0  0.5824343393810095  0.08262786772223062  0.1408607587611996  1.0000
  C   C65       1.0  0.6407289924677426  0.14092131737703537  0.08247287764218922  1.0000
  C   C66       1.0  0.6093566982342933  0.10900892328712092  0.1675370955885356  1.0000
  C   C67       1.0  0.6739218967809393  0.5245737238936885  0.12022941603070335  1.0000
  C   C68       1.0  0.5762114872654533  0.7251242275553269  0.1298275880673359  1.0000
  C   C69       1.0  0.6647719449220019  0.5073895817592914  0.16285177432096276  1.0000
  C   C70       1.0  0.5854115515394864  0.7423767367366453  0.08720316605921138  1.0000
  C   C71       1.0  0.6085372260769546  0.64568568112918  0.1418565063475582  1.0000
  C   C72       1.0  0.6415950310443177  0.6040293373237305  0.10819006001670316  1.0000
  C   C73       1.0  0.08191378889440407  0.12374522761749063  0.177794094629931  1.0000
  C   C74       1.0  0.16829740014731695  0.12598287851871962  0.0723392585676734  1.0000
  C   C75       1.0  0.009612291909334698  0.1628272280324836  0.16483174677454565  1.0000
  C   C76       1.0  0.24059378525052463  0.0869092884836533  0.08529134291676141  1.0000
  C   C77       1.0  0.11043516792986448  0.139373068803657  0.1060962716495766  1.0000
  C   C78       1.0  0.13978575149869235  0.1102902148011893  0.144026606692357  1.0000
  C   C79       1.0  0.34823520752478027  0.8484758837078841  0.8480331146741377  1.0000
  C   C80       1.0  0.4023458900910625  0.9013345960710027  0.9017253727119581  1.0000
  C   C81       1.0  0.303610126362372  0.9198783099513437  0.8615365434280021  1.0000
  C   C82       1.0  0.44691619374574276  0.8298946889367831  0.8882754279991829  1.0000
  C   C83       1.0  0.33052160871793024  0.9462150816499104  0.8882503751122073  1.0000
  C   C84       1.0  0.42001041994969057  0.8035824600657334  0.861550205898034  1.0000
  C   C85       1.0  0.40694738556572213  0.44863046974359855  0.8528750357216239  1.0000
  C   C86       1.0  0.343285265775691  0.3015111168800432  0.8970902160363536  1.0000
  C   C87       1.0  0.33839946076898286  0.4915409296525651  0.8361927787673622  1.0000
  C   C88       1.0  0.41190798997317996  0.25854180642405583  0.9136955448896343  1.0000
  C   C89       1.0  0.34152180905343943  0.37085207564032174  0.8748984662773152  1.0000
  C   C90       1.0  0.4087090996965442  0.3792998959691047  0.8750826363772645  1.0000
  C   C91       1.0  0.9447333455950754  0.7956993093434903  0.8492713580546364  1.0000
  C   C92       1.0  0.8049302631436531  0.9544423953263746  0.9006843133495009  1.0000
  C   C93       1.0  0.9912939803991773  0.8342735312703979  0.8360980780833246  1.0000
  C   C94       1.0  0.7583975013312027  0.9158552946422633  0.9138838849991586  1.0000
  C   C95       1.0  0.8728841392104412  0.9105934079013808  0.8770974234404035  1.0000
  C   C96       1.0  0.8767681523333122  0.8395611447025574  0.8728136785250412  1.0000
  S   S1        1.0  0.29786225334455446  0.32611333743248155  0.39745334853834885  1.0000
  S   S2        1.0  0.4518584641132363  0.42402198980617095  0.3525164353890844  1.0000
  S   S3        1.0  0.6608221064021221  0.6337369683957449  0.5619713249271925  1.0000
  S   S4        1.0  0.5890259682835007  0.6163698967996823  0.6881025093171687  1.0000
  S   S5        1.0  0.13377789569955206  0.16108053745930562  0.5619213690131772  1.0000
  S   S6        1.0  0.1163927794007122  0.08866933669177263  0.6881042779230171  1.0000
  S   S7        1.0  0.9736893412652137  0.8028893581390618  0.40216909436273335  1.0000
  S   S8        1.0  0.775985601051424  0.9469586197377852  0.34771174826678214  1.0000
  S   S9        1.0  0.6166637520858557  0.5883146557703826  0.18808318833167448  1.0000
  S   S10       1.0  0.6334947004567864  0.6614369116719914  0.06196196531878684  1.0000
  S   S11       1.0  0.012573201622913598  0.18299757908452824  0.11146716508505959  1.0000
  S   S12       1.0  0.23764316094935362  0.0666903487055848  0.13864991764621235  1.0000
  S   S13       1.0  0.2763141191014141  0.447083869230788  0.847705809756462  1.0000
  S   S14       1.0  0.4739704832969308  0.30301845442843245  0.902210434325049  1.0000
  S   S15       1.0  0.9518293469209309  0.924026221796126  0.8525054270382597  1.0000
  S   S16       1.0  0.7978336993374738  0.8261204033856231  0.897445269501759  1.0000
  Cl  Cl1       1.0  0.2866893806428265  0.5430735430372097  0.4103845833366435  1.0000
  Cl  Cl2       1.0  0.4630592865137045  0.20705079298135592  0.33956958887146266  1.0000
  Cl  Cl3       1.0  0.7892843751107389  0.5318177934115983  0.6650479442570684  1.0000
  Cl  Cl4       1.0  0.4605421127867827  0.7181955504812052  0.5850120251087745  1.0000
  Cl  Cl5       1.0  0.032288643067666094  0.28845622709927454  0.664820859478695  1.0000
  Cl  Cl6       1.0  0.21779357563648455  0.9612552048894119  0.5852024687935184  1.0000
  Cl  Cl7       1.0  0.7680634055222837  0.7776199867296681  0.4014124348418804  1.0000
  Cl  Cl8       1.0  0.9815522467475472  0.9723801952189605  0.3484567010576853  1.0000
  Cl  Cl9       1.0  0.717655800315846  0.4614620282840108  0.0849823168088406  1.0000
  Cl  Cl10      1.0  0.5324405507918469  0.7882508619980231  0.1650719528484075  1.0000
  Cl  Cl11      1.0  0.10293908385014557  0.0938159196104564  0.2272616315725813  1.0000
  Cl  Cl12      1.0  0.14732052744619747  0.15598651825876442  0.022858092464744593  1.0000
  Cl  Cl13      1.0  0.48191202526475513  0.4723871347715232  0.8485163810660906  1.0000
  Cl  Cl14      1.0  0.2683422096455884  0.27769964934365304  0.9014963091599952  1.0000
  Cl  Cl15      1.0  0.9630483722158656  0.7070452228175482  0.8395759819295777  1.0000
  Cl  Cl16      1.0  0.7866438951957873  0.04308506944423838  0.9103800979303075  1.0000
  O   O1        1.0  0.0004663450422341999  0.4994471880993103  0.49952798698252815  1.0000
  O   O2        1.0  0.07850930369788497  0.31463363245885034  0.522616793190565  1.0000
  O   O3        1.0  0.03165139129278319  0.5310629609113846  0.5857937540742952  1.0000
  O   O4        1.0  0.15491449329784496  0.5055350870934632  0.4504848853884269  1.0000
  O   O5        1.0  0.026502581337446394  0.37517066166397234  0.580221589978599  1.0000
  O   O6        1.0  0.15429735619641596  0.3913552488546658  0.44639295349054453  1.0000
  O   O7        1.0  0.08509728472834868  0.5866555620698081  0.5309799343892436  1.0000
  O   O8        1.0  0.004079715717388399  0.6582976937350794  0.44992826456032725  1.0000
  O   O9        1.0  0.8866794370316382  0.49535832299525157  0.4419320609868151  1.0000
  O   O10       1.0  0.8917937354307595  0.65161655482229  0.4472949790353341  1.0000
  O   O11       1.0  0.9964934485963325  0.3869083815435205  0.44164157245884167  1.0000
  O   O12       1.0  0.8758297907493284  0.5260055053941032  0.580428818568933  1.0000
  O   O13       1.0  0.8144199952884958  0.5770988828635951  0.5228162974067132  1.0000
  O   O14       1.0  0.7489707645112416  0.2509963789742997  0.2500053731093885  1.0000
  O   O15       1.0  0.5955069817475048  0.35873369738092026  0.3036565500293945  1.0000
  O   O16       1.0  0.6651010310510655  0.16331479214685624  0.2189335449261876  1.0000
  O   O17       1.0  0.7250598862166339  0.37421582851450824  0.1696915401817378  1.0000
  O   O18       1.0  0.5949837377506312  0.24449603976497514  0.29963727936912926  1.0000
  O   O19       1.0  0.6721439694714986  0.4349922627619734  0.2271988160972001  1.0000
  O   O20       1.0  0.7197241961868526  0.21795656446660414  0.16420384792257883  1.0000
  O   O21       1.0  0.8770079606676542  0.22309205966187332  0.1686332939305544  1.0000
  O   O22       1.0  0.8624529744547685  0.2548445107274163  0.30866335955998636  1.0000
  O   O23       1.0  0.9326427257578581  0.17387312773023939  0.22816705985058416  1.0000
  O   O24       1.0  0.7530467538708404  0.3636112037107325  0.3083405616348145  1.0000
  O   O25       1.0  0.7455470937304155  0.09179565297647947  0.2999983401513333  1.0000
  O   O26       1.0  0.8573023683169151  0.09884128039632165  0.30347029388150293  1.0000
  O   O27       1.0  0.24938830369978854  0.7505859320407919  0.7505615759797806  1.0000
  O   O28       1.0  0.37407133542496496  0.7240785026434081  0.6696135949153612  1.0000
  O   O29       1.0  0.36324686149139035  0.7548438356891224  0.8080284682733492  1.0000
  O   O30       1.0  0.17198249919171357  0.9351654818513143  0.727413386406809  1.0000
  O   O31       1.0  0.4354155242191381  0.6730813334389366  0.727253289738357  1.0000
  O   O32       1.0  0.22356366787096243  0.8746212505030896  0.6697937826744181  1.0000
  O   O33       1.0  0.2534133978714194  0.86324517889247  0.808373442995382  1.0000
  O   O34       1.0  0.09546561783261609  0.8587411911476794  0.8036555007117768  1.0000
  O   O35       1.0  0.16502420257717174  0.6631994679903671  0.7190354937785556  1.0000
  O   O36       1.0  0.09492308289874529  0.7445243725457757  0.7995886496838338  1.0000
  O   O37       1.0  0.21843076293772154  0.7188368044142096  0.6642240357044783  1.0000
  O   O38       1.0  0.35809598606289217  0.5984881846308737  0.8027485026047714  1.0000
  O   O39       1.0  0.24586521765566252  0.5917145301696537  0.800020675610476  1.0000
  O   O40       1.0  0.5009785424250593  0.9989693473239005  2.4580114704477723e-05  1.0000
  O   O41       1.0  0.5043190167732872  0.1582344105383912  0.9499807068244976  1.0000
  O   O42       1.0  0.3875246384554598  0.9953426161308134  0.9412791791229366  1.0000
  O   O43       1.0  0.6542779359965177  0.8913606565598757  0.9463753725733709  1.0000
  O   O44       1.0  0.3924564167887467  0.151320390192005  0.9465980488863507  1.0000
  O   O45       1.0  0.6547803176379502  0.005638280074627718  0.9503596972301551  1.0000
  O   O46       1.0  0.4968754755363704  0.8865049313234722  0.9416822755340063  1.0000
  O   O47       1.0  0.5782827981375077  0.8147779133198088  0.022855862395552182  1.0000
  O   O48       1.0  0.5302942074103072  0.03201749819728413  0.0858289966038015  1.0000
  O   O49       1.0  0.5252660637575062  0.8755665762468471  0.08034778310602056  1.0000
  O   O50       1.0  0.5850638835984796  0.08647969621430453  0.031088089959602903  1.0000
  O   O51       1.0  0.317441680827926  0.07605281847216369  0.02192209999731179  1.0000
  O   O52       1.0  0.37320015173511206  0.026839452041308196  0.0814137257332703  1.0000
