data_image0
_chemical_formula_structural       Cd2Ni2H28C20N16
_chemical_formula_sum              "Cd2 Ni2 H28 C20 N16"
_cell_length_a       8.55245999593666
_cell_length_b       8.591868268371819
_cell_length_c       11.362882489956304
_cell_angle_alpha    75.06976912894466
_cell_angle_beta     75.04801230013787
_cell_angle_gamma    70.36014161412714

_space_group_name_H-M_alt    "P 1"
_space_group_IT_number       1

loop_
  _space_group_symop_operation_xyz
  'x, y, z'

loop_
  _atom_site_type_symbol
  _atom_site_label
  _atom_site_symmetry_multiplicity
  _atom_site_fract_x
  _atom_site_fract_y
  _atom_site_fract_z
  _atom_site_occupancy
  Cd  Cd1       1.0  0.1668252567031985  0.34540731727797447  0.727960095023505  1.0000
  Cd  Cd2       1.0  0.8331754193047517  0.6545932139032473  0.2720385757790425  1.0000
  Ni  Ni1       1.0  0.9999957324355294  1.2772762829961592e-06  0.5000012377878491  1.0000
  Ni  Ni2       1.0  0.5000026363151382  0.4999978325813146  0.9999991489663672  1.0000
  H   H1        1.0  0.21263060720968954  0.510345344866259  0.47662747547539663  1.0000
  H   H2        1.0  0.7873696912145077  0.4896564444161414  0.5233710275034582  1.0000
  H   H3        1.0  0.4010910928830925  0.37588148000167365  0.4981126692685649  1.0000
  H   H4        1.0  0.5989095874949798  0.6241190568847726  0.5018851195354443  1.0000
  H   H5        1.0  0.3333819005598285  0.5624596580432312  0.5419885371726211  1.0000
  H   H6        1.0  0.6666199818379539  0.4375408860963717  0.45800990125318464  1.0000
  H   H7        1.0  0.32709966936853635  0.9876375504707865  0.7618116364261809  1.0000
  H   H8        1.0  0.6728994226658287  0.0123642258532257  0.2381870989294015  1.0000
  H   H9        1.0  0.4251213192659479  0.0654328754302966  0.6255772853208655  1.0000
  H   H10       1.0  0.5748789747881277  0.934568908146872  0.3744220996565204  1.0000
  H   H11       1.0  0.9415249730945023  0.2065590017522254  0.9398808452424418  1.0000
  H   H12       1.0  0.05847532095957324  0.7934427818249502  0.06011853973494403  1.0000
  H   H13       1.0  0.05471195163474365  0.29341378239400473  0.9854006379381772  1.0000
  H   H14       1.0  0.9452887112628333  0.7065867316715355  0.014600678859970602  1.0000
  H   H15       1.0  0.13915333909626784  0.10157892151570991  0.9543045256672116  1.0000
  H   H16       1.0  0.860847710125306  0.8984203458591085  0.04569519495755969  1.0000
  H   H17       1.0  0.8531989995553461  0.9901115216011718  0.801678623818681  1.0000
  H   H18       1.0  0.14679962814631153  0.0098877084464277  0.1983233255566219  1.0000
  H   H19       1.0  0.4827092672480406  0.0685381792671151  0.8699603215395442  1.0000
  H   H20       1.0  0.5172894428324499  0.9314648494528512  0.13003912799088369  1.0000
  H   H21       1.0  0.5816471574023937  0.16464996213043287  0.7277922450462383  1.0000
  H   H22       1.0  0.4183535142354346  0.835350563345564  0.2722073077548401  1.0000
  H   H23       1.0  0.5276072068247262  0.7556353934662354  0.7213747098279911  1.0000
  H   H24       1.0  0.47239067444968436  0.2443663641941711  0.2786251399028644  1.0000
  H   H25       1.0  0.08546270087827432  0.7206047387561725  0.7855687965400194  1.0000
  H   H26       1.0  0.9145359224532611  0.27939448558620233  0.2144340348338219  1.0000
  H   H27       1.0  0.7675111051100602  0.49377263760164414  0.7206738760722617  1.0000
  H   H28       1.0  0.23248714937797393  0.5062278562523658  0.2793270234808176  1.0000
  C   C1        1.0  0.21968458907343116  0.8886533245004598  0.523268145198884  1.0000
  C   C2        1.0  0.7803171373069305  0.11133963370487268  0.47673352891961684  1.0000
  C   C3        1.0  0.3843705620043283  0.469532520446684  0.8963953024349606  1.0000
  C   C4        1.0  0.6156353258869629  0.5304668158773466  0.10360084268727128  1.0000
  C   C5        1.0  0.0011519794494390142  0.16836444736351552  0.5710771157474497  1.0000
  C   C6        1.0  0.998847412159961  0.83163227789219  0.42892340527816947  1.0000
  C   C7        1.0  0.8294230482730997  0.8832459368831351  0.7821455859412366  1.0000
  C   C8        1.0  0.17057761025435525  0.11675457147718046  0.2178566128554422  1.0000
  C   C9        1.0  0.529212914991625  0.05853356405301471  0.7715944801690213  1.0000
  C   C10       1.0  0.470786172672618  0.941468206565773  0.2284051371850991  1.0000
  C   C11       1.0  0.647276066682636  0.7542712611849042  0.7393133646710339  1.0000
  C   C12       1.0  0.35272263902772494  0.24573176182983053  0.260686966857925  1.0000
  C   C13       1.0  0.9584230715670828  0.733477953690894  0.7745600161011482  1.0000
  C   C14       1.0  0.04157555613457484  0.2665212763567126  0.225441933274162  1.0000
  C   C15       1.0  0.6692944755724499  0.8961968959303448  0.7637202495852833  1.0000
  C   C16       1.0  0.33070619169524923  0.10380362384042739  0.2362801852143335  1.0000
  C   C17       1.0  0.781911083096951  0.6077860989724257  0.7365056132981282  1.0000
  C   C18       1.0  0.21808717139107617  0.39221439488158444  0.263495286254944  1.0000
  C   C19       1.0  0.3695520898216601  0.7206138788376036  0.9937940899685813  1.0000
  C   C20       1.0  0.6304521317172062  0.2793829039568577  0.0062046195515748  1.0000
  N   N1        1.0  0.297131184823293  0.4633026606117383  0.5354102026104499  1.0000
  N   N2        1.0  0.702869486814528  0.5366978648642585  0.4645893501906286  1.0000
  N   N3        1.0  0.38463098780984956  0.07908824471349617  0.716350033547876  1.0000
  N   N4        1.0  0.6153677222706406  0.9209147840064704  0.2836494159825449  1.0000
  N   N5        1.0  0.00100233278756434  0.27364404659879676  0.6198053186302701  1.0000
  N   N6        1.0  0.9989978832578003  0.7263539440112441  0.38019568419345967  1.0000
  N   N7        1.0  0.06028511236301172  0.21904517039806143  0.9265185202351772  1.0000
  N   N8        1.0  0.9397163880809034  0.7809566261374955  0.07348063236547378  1.0000
  N   N9        1.0  0.31265856730136943  0.44907923962222895  0.8290984078612311  1.0000
  N   N10       1.0  0.6873464830435839  0.5509188142317925  0.17089990145849754  1.0000
  N   N11       1.0  0.359562637170477  0.8169724795630983  0.5369231561844572  1.0000
  N   N12       1.0  0.6404315644062137  0.18302546907593611  0.46307548052880776  1.0000
  N   N13       1.0  0.28613115340454687  0.8615334631958619  0.9891645254932017  1.0000
  N   N14       1.0  0.7138702821410305  0.1384645574882342  0.010833598958193117  1.0000
  N   N15       1.0  0.9357012316502136  0.5967327662243065  0.7525534953831113  1.0000
  N   N16       1.0  0.06429739605144394  0.4032664638233001  0.24744845399219886  1.0000
