data_image0
_chemical_formula_structural       Ni4Mo2H120C64N40O8
_chemical_formula_sum              "Ni4 Mo2 H120 C64 N40 O8"
_cell_length_a       14.817108492885987
_cell_length_b       14.814025893589827
_cell_length_c       16.6932549738011
_cell_angle_alpha    105.37943044115914
_cell_angle_beta     105.37595552149203
_cell_angle_gamma    112.66548898428007

_space_group_name_H-M_alt    "P 1"
_space_group_IT_number       1

loop_
  _space_group_symop_operation_xyz
  'x, y, z'

loop_
  _atom_site_type_symbol
  _atom_site_label
  _atom_site_symmetry_multiplicity
  _atom_site_fract_x
  _atom_site_fract_y
  _atom_site_fract_z
  _atom_site_occupancy
  Ni  Ni1       1.0  0.49999229605657547  0.9999882734942104  0.9999977493629685  1.0000
  Ni  Ni2       1.0  0.9999917026392567  0.49999883907452863  0.5000007286679491  1.0000
  Ni  Ni3       1.0  0.9999812783348007  7.145280037056827e-06  0.49997834454807594  1.0000
  Ni  Ni4       1.0  8.49955599590289e-06  0.999982672308789  0.9999817857352155  1.0000
  Mo  Mo1       1.0  0.8729329827041141  0.12711045682834046  0.24998606562115092  1.0000
  Mo  Mo2       1.0  0.12710198401739353  0.8729287675008737  0.7499933597168607  1.0000
  H   H1        1.0  0.5816506321245852  0.8727877307158494  0.09648594286024792  1.0000
  H   H2        1.0  0.47339546062731586  0.7400949980015029  0.027886663863910085  1.0000
  H   H3        1.0  0.6559534190184524  0.906335688760734  0.9876793009321432  1.0000
  H   H4        1.0  0.5696327391392658  0.7683792958696856  0.9104882117587536  1.0000
  H   H5        1.0  0.6209453449636868  0.002859320141688168  0.8134880379691865  1.0000
  H   H6        1.0  0.68492901489914  0.038837225447387824  0.9332056765095941  1.0000
  H   H7        1.0  0.34331767895776016  0.8129333604090121  0.02552875041281066  1.0000
  H   H8        1.0  0.4203939007799208  0.8314683405233794  0.13689522101209664  1.0000
  H   H9        1.0  0.0004898380986517987  0.1998995201862854  0.6252227899950284  1.0000
  H   H10       1.0  0.0670274313553065  0.20734784903076084  0.7349507611589559  1.0000
  H   H11       1.0  0.14440754914382128  0.2517896051439479  0.582143254779197  1.0000
  H   H12       1.0  0.23670494795231187  0.28422540258434026  0.6923217549566019  1.0000
  H   H13       1.0  0.26599602750049905  0.13631717476029337  0.4625528217515296  1.0000
  H   H14       1.0  0.15842566677316938  0.16529999983335128  0.45105223522545396  1.0000
  H   H15       1.0  0.873528219777242  0.06806433964626288  0.6669465841563209  1.0000
  H   H16       1.0  0.9557381493702194  0.0065836189819989035  0.6760456805158271  1.0000
  H   H17       1.0  0.4646905981245055  0.8424861742601023  0.7242107960459593  1.0000
  H   H18       1.0  0.402506670636278  0.7649288874454712  0.7768619828536528  1.0000
  H   H19       1.0  0.5601455386256048  0.7431496133564367  0.6965559919590233  1.0000
  H   H20       1.0  0.519658632365619  0.6753740176734907  0.7653232392211818  1.0000
  H   H21       1.0  0.36244560985090146  0.13980479916447305  0.5936647773834025  1.0000
  H   H22       1.0  0.2664832913221034  0.07783109167877457  0.6338794355386952  1.0000
  H   H23       1.0  0.4435201002992173  0.31335321596854016  0.7308357327463142  1.0000
  H   H24       1.0  0.3528998768380803  0.24344264471983484  0.7737199163701264  1.0000
  H   H25       1.0  0.42068346648028404  0.7966244133452848  0.9125227036749095  1.0000
  H   H26       1.0  0.5364722243272695  0.010909684226028607  0.16526951554435235  1.0000
  H   H27       1.0  0.13530333208044001  0.10479007828131161  0.671520319367751  1.0000
  H   H28       1.0  0.8390122503724767  0.01638767444777035  0.509518350722402  1.0000
  H   H29       1.0  0.4096802546978324  0.578825879458826  0.604998599197728  1.0000
  H   H30       1.0  0.4255253437492144  0.12013875507096115  0.7446129929701115  1.0000
  H   H31       1.0  0.12718333121693348  0.41834546914301995  0.4035183885792293  1.0000
  H   H32       1.0  0.25988474228084607  0.5265985582496099  0.4721115441256742  1.0000
  H   H33       1.0  0.0936478876950915  0.3440504832108288  0.5123272580403864  1.0000
  H   H34       1.0  0.23160448578168064  0.43036828318989956  0.5895243740567793  1.0000
  H   H35       1.0  0.997132111755512  0.3790708854655305  0.6865310457464772  1.0000
  H   H36       1.0  0.9611445757524207  0.3150884996607245  0.566808408724853  1.0000
  H   H37       1.0  0.1870681259035649  0.6566929652438915  0.4744797274283811  1.0000
  H   H38       1.0  0.16850815123406454  0.5795970949176238  0.3631065767269064  1.0000
  H   H39       1.0  0.8000910284241058  0.9994932384595145  0.8747732629419076  1.0000
  H   H40       1.0  0.7926423899534923  0.9329598200541438  0.7650463491561934  1.0000
  H   H41       1.0  0.7482027029269319  0.8555883423869944  0.9178511560109754  1.0000
  H   H42       1.0  0.7157588833222094  0.7632918495584278  0.8076758074210275  1.0000
  H   H43       1.0  0.8636555292161175  0.7339973876727797  0.03745141351691217  1.0000
  H   H44       1.0  0.8346804209857411  0.8415699359270407  0.048943403506697784  1.0000
  H   H45       1.0  0.9319246153611118  0.12646019338296097  0.8330492077197675  1.0000
  H   H46       1.0  0.9934082648314372  0.044247900452965824  0.8239535060256598  1.0000
  H   H47       1.0  0.15751190183802072  0.5353190023431792  0.7758016991777127  1.0000
  H   H48       1.0  0.23507310191234862  0.5975002266020085  0.7231520362026416  1.0000
  H   H49       1.0  0.2568364846698046  0.43984671063831365  0.8034496411854519  1.0000
  H   H50       1.0  0.32461323624654886  0.4803332659847328  0.7346790458418013  1.0000
  H   H51       1.0  0.8601823124704282  0.6375546727604586  0.9063414164887931  1.0000
  H   H52       1.0  0.9221637520421525  0.7335165929480353  0.8661338937955918  1.0000
  H   H53       1.0  0.6866468329008057  0.5564728078657523  0.7691626740164635  1.0000
  H   H54       1.0  0.7565530350526258  0.6471060431428979  0.7262835748639418  1.0000
  H   H55       1.0  0.20337905164014813  0.5793206948765289  0.5874903817791975  1.0000
  H   H56       1.0  0.9890762188702312  0.463536588675133  0.3347484604809382  1.0000
  H   H57       1.0  0.8951958693206522  0.8646742484986872  0.8284658753584111  1.0000
  H   H58       1.0  0.9836049228955018  0.1609635109183925  0.9904824468737273  1.0000
  H   H59       1.0  0.4211674780915118  0.5903008025849416  0.8950048933128086  1.0000
  H   H60       1.0  0.8798709858288235  0.5744964329763745  0.7553928175966008  1.0000
  H   H61       1.0  0.4183518754776472  0.1271881994987965  0.9035208652162652  1.0000
  H   H62       1.0  0.5266008494666821  0.25988780910407167  0.9721161167275837  1.0000
  H   H63       1.0  0.3440507811432525  0.0936459751606549  0.012328135250342603  1.0000
  H   H64       1.0  0.43036487414401137  0.23160119770655999  0.08952390793051279  1.0000
  H   H65       1.0  0.3790547428898705  0.9971237923191439  0.18652353682811207  1.0000
  H   H66       1.0  0.315080674476242  0.961142838625534  0.06680571242892333  1.0000
  H   H67       1.0  0.6566916593654497  0.18706486896034144  0.9744780317158543  1.0000
  H   H68       1.0  0.5796023507199166  0.16851371181495978  0.8631091572006682  1.0000
  H   H69       1.0  0.9994897794329634  0.8000906461673196  0.3747776949592633  1.0000
  H   H70       1.0  0.9329570124511123  0.7926376859069747  0.2650467756071678  1.0000
  H   H71       1.0  0.8555900608690266  0.7482100977265986  0.41785261592443856  1.0000
  H   H72       1.0  0.763290874990588  0.7157629027400673  0.3076732697759894  1.0000
  H   H73       1.0  0.7339946383862427  0.8636622040266176  0.5374483265906349  1.0000
  H   H74       1.0  0.8415701391586978  0.8346882884774943  0.5489433803632906  1.0000
  H   H75       1.0  0.12646179073698963  0.9319189767843099  0.3330517761379284  1.0000
  H   H76       1.0  0.044249622844610294  0.9934049726779575  0.3239498313839277  1.0000
  H   H77       1.0  0.5353169323398531  0.15750342142854376  0.27579761246879286  1.0000
  H   H78       1.0  0.5974919987339292  0.2350599040552481  0.2231464452870497  1.0000
  H   H79       1.0  0.4398450648837979  0.2568255260577033  0.303444697556273  1.0000
  H   H80       1.0  0.48032319888267955  0.3245976217415674  0.23467263413835585  1.0000
  H   H81       1.0  0.6375538869017348  0.8601913653578137  0.40634746539147665  1.0000
  H   H82       1.0  0.7335098718287015  0.9221655481413719  0.36612956865123886  1.0000
  H   H83       1.0  0.5564507865703591  0.6866529845932304  0.2691707431344383  1.0000
  H   H84       1.0  0.6470788792943551  0.7565463800695864  0.22628187361139854  1.0000
  H   H85       1.0  0.5793168047221043  0.2033679326283034  0.08748819115484707  1.0000
  H   H86       1.0  0.4635359142596728  0.989079407383784  0.8347455100348994  1.0000
  H   H87       1.0  0.8646727515129056  0.8951958495884751  0.3284602771432148  1.0000
  H   H88       1.0  0.16096253142902836  0.9836015445501332  0.49048191027425503  1.0000
  H   H89       1.0  0.5902943796658419  0.4211527496139451  0.3950002193036823  1.0000
  H   H90       1.0  0.5744914617728298  0.8798854747198914  0.2554020208143796  1.0000
  H   H91       1.0  0.872790772544853  0.5816643727725361  0.596490373375353  1.0000
  H   H92       1.0  0.7400975199367111  0.47340066260876773  0.5278864253242901  1.0000
  H   H93       1.0  0.9063327122178322  0.6559583498159964  0.4876786589905038  1.0000
  H   H94       1.0  0.7683758003609215  0.5696270088971288  0.4104841275393696  1.0000
  H   H95       1.0  0.0028626513491758006  0.620943230236044  0.3134892417812267  1.0000
  H   H96       1.0  0.038838383442033796  0.6849325832457751  0.4332070938043556  1.0000
  H   H97       1.0  0.8129358026049615  0.34332365132931375  0.5255308458132077  1.0000
  H   H98       1.0  0.8314723371573437  0.420406057256244  0.6368997132950653  1.0000
  H   H99       1.0  0.19989735569117784  0.0004920682426146029  0.125226984521376  1.0000
  H   H100      1.0  0.2073491373377436  0.06702696578146568  0.23495743210785489  1.0000
  H   H101      1.0  0.25178974057977405  0.14440312065902114  0.08215160410554033  1.0000
  H   H102      1.0  0.2842318506193067  0.2367001282518046  0.19233085339477904  1.0000
  H   H103      1.0  0.13633109809468638  0.2660043983274463  0.9625644395604666  1.0000
  H   H104      1.0  0.16530804063430082  0.1584272830854445  0.9510615906269065  1.0000
  H   H105      1.0  0.06806138869436751  0.8735281582739775  0.16695180250054167  1.0000
  H   H106      1.0  0.006580893738920698  0.955739853184994  0.17604933144161808  1.0000
  H   H107      1.0  0.842486710837605  0.4646801749198631  0.22421526173200595  1.0000
  H   H108      1.0  0.7649318897314075  0.402502697722369  0.27686921297503636  1.0000
  H   H109      1.0  0.7431477531099446  0.5601337450915905  0.19655198865581983  1.0000
  H   H110      1.0  0.6753718969544522  0.5196483653364722  0.26532009725994504  1.0000
  H   H111      1.0  0.1398146775841127  0.36244371389513935  0.09367555008898171  1.0000
  H   H112      1.0  0.0778395432642611  0.26648337854859966  0.13388860877708453  1.0000
  H   H113      1.0  0.3133678623150402  0.4435083736985419  0.2308430303182192  1.0000
  H   H114      1.0  0.24345281420180948  0.3528882726555906  0.2737303748892543  1.0000
  H   H115      1.0  0.7966293874892614  0.42068540526504  0.4125247065390808  1.0000
  H   H116      1.0  0.010913642354452694  0.5364813866615066  0.6652769637123583  1.0000
  H   H117      1.0  0.10479266222182558  0.1353091171595082  0.1715279387018924  1.0000
  H   H118      1.0  0.0163809639663484  0.8390170657195526  0.009517820640020614  1.0000
  H   H119      1.0  0.5788236843909899  0.40966612578563405  0.10499930713582731  1.0000
  H   H120      1.0  0.1201618871326104  0.42553345560077105  0.24462634151496593  1.0000
  C   C1        1.0  0.7353042737134744  0.09944369120838563  0.1447365677917816  1.0000
  C   C2        1.0  0.7337113616822605  0.06702561957461459  0.27866020622698057  1.0000
  C   C3        1.0  0.9298432239192138  0.10668828541202653  0.37297462194031533  1.0000
  C   C4        1.0  0.041178767882804806  0.17870160107375452  0.294687638712297  1.0000
  C   C5        1.0  0.4985325730674007  0.8254927673733972  0.044390112659485205  1.0000
  C   C6        1.0  0.577203553781068  0.8490998863308478  0.9306804094232959  1.0000
  C   C7        1.0  0.6079653709813115  0.9899586149036211  0.8726938007726516  1.0000
  C   C8        1.0  0.42470572352721797  0.855256719544677  0.08039254496670611  1.0000
  C   C9        1.0  0.026188709834826795  0.15582563652572645  0.6611186647382539  1.0000
  C   C10       1.0  0.18458128354387068  0.2204892036848278  0.622939845160424  1.0000
  C   C11       1.0  0.2015822046023175  0.13135478094174857  0.4856359063571887  1.0000
  C   C12       1.0  0.9292987738916523  0.0511254241106726  0.6413195605535407  1.0000
  C   C13       1.0  0.47782671331118104  0.80075508336666  0.7679026251097127  1.0000
  C   C14       1.0  0.49539671317474904  0.710661911073963  0.7187632667532924  1.0000
  C   C15       1.0  0.31563347215848125  0.1548668452761248  0.6317489212684251  1.0000
  C   C16       1.0  0.39534076933592394  0.23430089441701088  0.7293605773582428  1.0000
  C   C17       1.0  0.9005573276522228  0.2647278697565055  0.3551712186305095  1.0000
  C   C18       1.0  0.933049585958571  0.2663978803931927  0.22128005207488857  1.0000
  C   C19       1.0  0.8933593757189086  0.07018753307288243  0.12694343534580094  1.0000
  C   C20       1.0  0.8214080892557759  0.9589359583929206  0.20528976103889102  1.0000
  C   C21       1.0  0.17449312650666124  0.5014673938319875  0.4556193521744518  1.0000
  C   C22       1.0  0.15088794715222778  0.42279746635506404  0.569330044235663  1.0000
  C   C23       1.0  0.010032541813622198  0.39205281865258007  0.6273250898049056  1.0000
  C   C24       1.0  0.14472939159599463  0.5752980500310655  0.41961532563703935  1.0000
  C   C25       1.0  0.8441680827175871  0.9737980159051602  0.8388779931302678  1.0000
  C   C26       1.0  0.7795035675922363  0.8154128243759757  0.8770561675972387  1.0000
  C   C27       1.0  0.8686339826143764  0.7984178275025327  0.014367207597586999  1.0000
  C   C28       1.0  0.9488661318645271  0.07068871961054408  0.85867677614695  1.0000
  C   C29       1.0  0.19924111377543602  0.5221768238135951  0.7321116110549611  1.0000
  C   C30       1.0  0.2893263118021139  0.5045935398356961  0.7812405420978195  1.0000
  C   C31       1.0  0.845123482009882  0.6843664513361958  0.8682554665761941  1.0000
  C   C32       1.0  0.765697686844483  0.6046592447050116  0.7706416688261797  1.0000
  C   C33       1.0  0.2647191574486527  0.9005491640610757  0.8551950588083131  1.0000
  C   C34       1.0  0.2663679223563379  0.9330319769570609  0.7212992839408727  1.0000
  C   C35       1.0  0.070180738394761  0.8933399093061849  0.6269604343129203  1.0000
  C   C36       1.0  0.9588958146569341  0.8213941675574361  0.7052914690939147  1.0000
  C   C37       1.0  0.5014692054513786  0.17449120374914168  0.9556190930451649  1.0000
  C   C38       1.0  0.422796613455546  0.15088121703178106  0.06932709539560734  1.0000
  C   C39       1.0  0.39204190431220104  0.010024460096985948  0.12731953263519813  1.0000
  C   C40       1.0  0.5753001578550325  0.14473275523592113  0.9196172258755624  1.0000
  C   C41       1.0  0.9737958738430593  0.8441635191260703  0.33887620162683874  1.0000
  C   C42       1.0  0.815411454822552  0.7795046427578568  0.3770539860992415  1.0000
  C   C43       1.0  0.79841107950935  0.8686343220493457  0.5143640831401086  1.0000
  C   C44       1.0  0.07068900021211279  0.9488617771097837  0.3586750105957322  1.0000
  C   C45       1.0  0.5221711324597892  0.19922981971802758  0.23210404484494515  1.0000
  C   C46       1.0  0.5045923471019407  0.28931669411907274  0.281237296400782  1.0000
  C   C47       1.0  0.6843581231822141  0.8451262740982771  0.3682564345201484  1.0000
  C   C48       1.0  0.6046405502104618  0.7657005844148939  0.27064370784782443  1.0000
  C   C49       1.0  0.09945218796514867  0.7353093781914097  0.6447685032763032  1.0000
  C   C50       1.0  0.06700284881122091  0.7336880849080386  0.7786798117784528  1.0000
  C   C51       1.0  0.10668098996985259  0.9298330131666643  0.8730039610991439  1.0000
  C   C52       1.0  0.17864273561334443  0.04112932029359938  0.7946855916648232  1.0000
  C   C53       1.0  0.8254929096979068  0.498541178745171  0.5443932309313979  1.0000
  C   C54       1.0  0.8490964966701426  0.5772068650362527  0.4306793063778116  1.0000
  C   C55       1.0  0.9899583093374744  0.6079657306302336  0.37269412756481296  1.0000
  C   C56       1.0  0.8552631407650182  0.42471577914189845  0.580398350494235  1.0000
  C   C57       1.0  0.1558242965228516  0.02619059820758449  0.16112524890986887  1.0000
  C   C58       1.0  0.2204928483564714  0.18457983490106503  0.12294906225463359  1.0000
  C   C59       1.0  0.13135842498664368  0.20158125744037383  0.9856416129308344  1.0000
  C   C60       1.0  0.05112391078815649  0.9293022867711828  0.14132528113461254  1.0000
  C   C61       1.0  0.8007559178622189  0.4778223005956691  0.26790434875768915  1.0000
  C   C62       1.0  0.7106619078696214  0.49538742541226083  0.21876279167548054  1.0000
  C   C63       1.0  0.1548751268825512  0.31562924132131787  0.13175943788537836  1.0000
  C   C64       1.0  0.23431624716009478  0.39533481878506643  0.22937061204756046  1.0000
  N   N1        1.0  0.6577107986706707  0.0781003729099297  0.08390870188015503  1.0000
  N   N2        1.0  0.6540000158709987  0.03018194166052982  0.2890114982416563  1.0000
  N   N3        1.0  0.9629491259477803  0.09327791196400158  0.4385414090252269  1.0000
  N   N4        1.0  0.13283168312127458  0.2051128213979325  0.3147796443281194  1.0000
  N   N5        1.0  0.4948221963100181  0.851055768456433  0.9643402053602087  1.0000
  N   N6        1.0  0.5711756031542946  0.8781419561391954  0.8540224055139802  1.0000
  N   N7        1.0  0.4657648713693873  0.9716866252219702  0.10765621558368814  1.0000
  N   N8        1.0  0.09890117766760649  0.1293080872438708  0.6269205631413541  1.0000
  N   N9        1.0  0.2505463519269142  0.19249062535037348  0.5829523515375143  1.0000
  N   N10       1.0  0.8768406283257094  0.9834364894329183  0.5426578695428717  1.0000
  N   N11       1.0  0.9218640035582196  0.34228623099549776  0.41603166875346176  1.0000
  N   N12       1.0  0.9698881033621659  0.34614814528812576  0.21096275251881025  1.0000
  N   N13       1.0  0.9067475103147374  0.03702237899885575  0.06137286791180681  1.0000
  N   N14       1.0  0.7949719211550957  0.8672711021166393  0.1852547147972174  1.0000
  N   N15       1.0  0.1489373023692551  0.5051831854950847  0.5356712585330641  1.0000
  N   N16       1.0  0.12184228866232868  0.4288294873970955  0.6459887025257913  1.0000
  N   N17       1.0  0.0283087608301642  0.5342475850915989  0.3923637257418591  1.0000
  N   N18       1.0  0.8706807603658574  0.9010809622892635  0.8730673562884306  1.0000
  N   N19       1.0  0.8075001126947968  0.749450023570887  0.9170510792185452  1.0000
  N   N20       1.0  0.016561273219366488  0.12314601328743181  0.9573374068563466  1.0000
  N   N21       1.0  0.3422786079797079  0.921865767713136  0.9160433396164507  1.0000
  N   N22       1.0  0.3460993736967596  0.969867539966934  0.7109713148011281  1.0000
  N   N23       1.0  0.03702548912273329  0.9067214387974759  0.5613858006279173  1.0000
  N   N24       1.0  0.8672452576851056  0.7949623402823178  0.6852453099496215  1.0000
  N   N25       1.0  0.5051796464750352  0.14893105159937645  0.03566851842082031  1.0000
  N   N26       1.0  0.4288253423152568  0.12183881328027724  0.14598580780794632  1.0000
  N   N27       1.0  0.534244136177783  0.028304311678546364  0.8923576799154984  1.0000
  N   N28       1.0  0.9010797511111476  0.8706843667531813  0.3730634294730492  1.0000
  N   N29       1.0  0.7494453511467898  0.8074984247869423  0.41704663686271465  1.0000
  N   N30       1.0  0.12314320736344798  0.016555815068180362  0.45733698810786894  1.0000
  N   N31       1.0  0.07811147998103249  0.6577173330949647  0.5839243551535772  1.0000
  N   N32       1.0  0.0301568037629139  0.6539563136555628  0.7890189836942697  1.0000
  N   N33       1.0  0.09327918448207842  0.9629542556442486  0.9385753462321418  1.0000
  N   N34       1.0  0.20507140769500862  0.13279766626366296  0.8147603997910339  1.0000
  N   N35       1.0  0.8510575495684732  0.49482823439532797  0.46434419321293763  1.0000
  N   N36       1.0  0.8781453550412195  0.5711784683344375  0.3540235250176592  1.0000
  N   N37       1.0  0.9716876929450605  0.46577365475621946  0.6076581306423137  1.0000
  N   N38       1.0  0.1293133567897229  0.09890507692036718  0.1269296876424804  1.0000
  N   N39       1.0  0.19249137301864036  0.250542289995586  0.0829576467597448  1.0000
  N   N40       1.0  0.9834327966862945  0.8768434594870271  0.042663466091141806  1.0000
  O   O1        1.0  0.39609000388709603  0.6308271753131578  0.6417222081745279  1.0000
  O   O2        1.0  0.46788685052991497  0.19829068593181623  0.7629056429445525  1.0000
  O   O3        1.0  0.369172946524408  0.603899842999148  0.8582897853218227  1.0000
  O   O4        1.0  0.8017262642410401  0.5321226337692622  0.7370988527661524  1.0000
  O   O5        1.0  0.603896768951337  0.36916152911358324  0.3582802763521259  1.0000
  O   O6        1.0  0.5321099548102453  0.8017350825194072  0.23710662771198798  1.0000
  O   O7        1.0  0.6308239130926979  0.39607543977582793  0.141717272006332  1.0000
  O   O8        1.0  0.19830957232007046  0.4678904540650849  0.26291870066364  1.0000
