data_image0
_chemical_formula_structural       NiH8C10S2N10
_chemical_formula_sum              "Ni1 H8 C10 S2 N10"
_cell_length_a       3.749131156127144
_cell_length_b       9.627023659702505
_cell_length_c       11.929169712985498
_cell_angle_alpha    120.25301220166597
_cell_angle_beta     81.79832703411476
_cell_angle_gamma    102.10312060975762

_space_group_name_H-M_alt    "P 1"
_space_group_IT_number       1

loop_
  _space_group_symop_operation_xyz
  'x, y, z'

loop_
  _atom_site_type_symbol
  _atom_site_label
  _atom_site_symmetry_multiplicity
  _atom_site_fract_x
  _atom_site_fract_y
  _atom_site_fract_z
  _atom_site_occupancy
  Ni  Ni1       1.0  8.264007583117991e-06  0.49999858551201737  0.4999987402153039  1.0000
  H   H1        1.0  0.05907016869767305  0.21707928819886757  0.8165461692172968  1.0000
  H   H2        1.0  0.9408960855765899  0.7829299326604373  0.18345362114266822  1.0000
  H   H3        1.0  0.3878171531729253  0.39359634814626787  0.890422996818671  1.0000
  H   H4        1.0  0.6121570018617034  0.6064103622172257  0.10957926673069825  1.0000
  H   H5        1.0  0.42826361427379567  0.12496592309613418  0.3645758212525436  1.0000
  H   H6        1.0  0.5717364285540826  0.8750414955704997  0.6354292421995495  1.0000
  H   H7        1.0  0.38841868618339975  0.9859537363069037  0.11277694275648287  1.0000
  H   H8        1.0  0.6115690168773045  0.014050290918220285  0.8872268832235475  1.0000
  C   C1        1.0  0.11423757083896648  0.3031346326907424  0.008739499068930495  1.0000
  C   C2        1.0  0.8857486353391554  0.6968631370257795  0.9912586527739362  1.0000
  C   C3        1.0  0.7934662794124635  0.19235528328922413  0.1281205574791358  1.0000
  C   C4        1.0  0.20653715977758239  0.807643475917466  0.8718821922704904  1.0000
  C   C5        1.0  0.9472681254107089  0.32481281747670476  0.2383863287499537  1.0000
  C   C6        1.0  0.052749881220698645  0.6751805600239678  0.7616119133554733  1.0000
  C   C7        1.0  0.1843256876986531  0.4531692949268519  0.2324981388386504  1.0000
  C   C8        1.0  0.815679855713363  0.5468243141713459  0.7674984933705034  1.0000
  C   C9        1.0  0.5868236265577167  0.1728253890051761  0.30447627250232756  1.0000
  C   C10       1.0  0.4131849686802911  0.8271768650443934  0.6955260577961369  1.0000
  S   S1        1.0  0.31619961361796817  0.6130043580412732  0.3817920968216838  1.0000
  S   S2        1.0  0.6838154039877155  0.38699144620549225  0.6182044887992006  1.0000
  N   N1        1.0  0.27276631460895123  0.43923856205057626  0.1145223538477325  1.0000
  N   N2        1.0  0.7272308183350519  0.5607589068272533  0.885474840209433  1.0000
  N   N3        1.0  0.21969774118763769  0.29414514908527417  0.8923799131525241  1.0000
  N   N4        1.0  0.7802713997411461  0.7058567615979144  0.10762059854239694  1.0000
  N   N5        1.0  0.8683665878572671  0.1763863104023002  0.008847913191168318  1.0000
  N   N6        1.0  0.13162270971776055  0.8236139159981591  0.99115283028582  1.0000
  N   N7        1.0  0.8188926163414083  0.31349733078367603  0.3475429177144633  1.0000
  N   N8        1.0  0.18112512489566512  0.6865009745934287  0.652457123272363  1.0000
  N   N9        1.0  0.5646550381531341  0.0952681124112829  0.17177011997687688  1.0000
  N   N10       1.0  0.4353456378346013  0.9047343339324957  0.828232280862004  1.0000
