data_image0
_chemical_formula_structural       Cd2H16C24S4Br4N8
_chemical_formula_sum              "Cd2 H16 C24 S4 Br4 N8"
_cell_length_a       8.201088405186132
_cell_length_b       9.11785077335358
_cell_length_c       10.937473068892878
_cell_angle_alpha    90.00107406149824
_cell_angle_beta     101.35635821640278
_cell_angle_gamma    89.99826973409183

_space_group_name_H-M_alt    "P 1"
_space_group_IT_number       1

loop_
  _space_group_symop_operation_xyz
  'x, y, z'

loop_
  _atom_site_type_symbol
  _atom_site_label
  _atom_site_symmetry_multiplicity
  _atom_site_fract_x
  _atom_site_fract_y
  _atom_site_fract_z
  _atom_site_occupancy
  Cd  Cd1       1.0  0.9999987320838315  9.907450135e-06  0.9999944879517315  1.0000
  Cd  Cd2       1.0  0.5000022923223142  0.5000049605349517  0.9999966311357086  1.0000
  H   H1        1.0  0.9664349454358717  0.24064050609471366  0.7782391062158285  1.0000
  H   H2        1.0  0.4664440245824224  0.25937631184002197  0.7782498162436582  1.0000
  H   H3        1.0  0.0335735390031004  0.7593572522235092  0.22174662471161352  1.0000
  H   H4        1.0  0.5335666662039955  0.7406400914153368  0.22175814256496554  1.0000
  H   H5        1.0  0.0431813600259048  0.27372859778868985  0.5689153348981861  1.0000
  H   H6        1.0  0.5431530398978879  0.22623820896683355  0.568906575161961  1.0000
  H   H7        1.0  0.9568247588084517  0.7262658703361851  0.43107284719177846  1.0000
  H   H8        1.0  0.4568173115601227  0.7737507759021865  0.4310835785684689  1.0000
  H   H9        1.0  0.3583710611220924  0.890733595134634  0.6513303688950317  1.0000
  H   H10       1.0  0.8583918116566097  0.6092560466765776  0.6513412910166708  1.0000
  H   H11       1.0  0.6416278405525377  0.10924442188613172  0.348662407422296  1.0000
  H   H12       1.0  0.14162196616834424  0.3907428084008302  0.34865241390159707  1.0000
  H   H13       1.0  0.26706995228563823  0.8738644378032491  0.8552244329623663  1.0000
  H   H14       1.0  0.7670788301102575  0.6261283936408546  0.8552305060344382  1.0000
  H   H15       1.0  0.7329114661919932  0.12612454690574992  0.14476434770514152  1.0000
  H   H16       1.0  0.23292620626968133  0.373866074533467  0.14476120099570983  1.0000
  C   C1        1.0  0.38761882783397544  0.1567825401199912  0.0719118377444588  1.0000
  C   C2        1.0  0.8876215567568126  0.34323324689734147  0.07193448721245942  1.0000
  C   C3        1.0  0.6123961123690053  0.8432404434184093  0.9280801818668394  1.0000
  C   C4        1.0  0.11237706493961501  0.6567776728363272  0.9280802090428752  1.0000
  C   C5        1.0  0.051150757745560306  0.16478900708116132  0.74526408715127  1.0000
  C   C6        1.0  0.5511704978017774  0.33521181383265747  0.7453024322994041  1.0000
  C   C7        1.0  0.9488683937471052  0.8352120415224107  0.2547394312435572  1.0000
  C   C8        1.0  0.4488397530910079  0.6647936221134643  0.25472376720887985  1.0000
  C   C9        1.0  0.09503519799665838  0.1835504659988985  0.6294568859073593  1.0000
  C   C10       1.0  0.594993568151388  0.3164446923821629  0.6294635306740732  1.0000
  C   C11       1.0  0.9049638640538405  0.8164418088023807  0.37053956945869265  1.0000
  C   C12       1.0  0.4049673605600291  0.683561840713395  0.37053734764244695  1.0000
  C   C13       1.0  0.2029050063607869  0.08122193447992028  0.5934259048511521  1.0000
  C   C14       1.0  0.7029152100579312  0.4187564913328076  0.5934479947011938  1.0000
  C   C15       1.0  0.7971102955618791  0.9187769206430544  0.4065743922598486  1.0000
  C   C16       1.0  0.29709179228470367  0.5812237192361424  0.40656042156330596  1.0000
  C   C17       1.0  0.2703004025709319  0.9697316821337834  0.6749896421363957  1.0000
  C   C18       1.0  0.7702904887527495  0.5302750186548053  0.6750055113096353  1.0000
  C   C19       1.0  0.7296986194154444  0.030255108910409903  0.32500589345518455  1.0000
  C   C20       1.0  0.22969506001660286  0.4697369978393481  0.3249929289506355  1.0000
  C   C21       1.0  0.21913195092303545  0.9599175821681244  0.7886576488059023  1.0000
  C   C22       1.0  0.7191483182978902  0.5400565451813932  0.788687914693597  1.0000
  C   C23       1.0  0.7808710007104198  0.04008566011989959  0.2113429476395226  1.0000
  C   C24       1.0  0.28085740075811566  0.45992914914226196  0.21131942784942484  1.0000
  S   S1        1.0  0.31537333249428917  0.024361582833655908  0.14630721285326592  1.0000
  S   S2        1.0  0.8153643247344676  0.475638953430277  0.1463269550722899  1.0000
  S   S3        1.0  0.6846318642785717  0.9756460463714945  0.8536881732185863  1.0000
  S   S4        1.0  0.18462314969471552  0.5243686761970636  0.8536872747461788  1.0000
  Br  Br1       1.0  0.25460858203099695  0.0884461156675158  0.43103886109904727  1.0000
  Br  Br2       1.0  0.754650566781834  0.4115397688077849  0.43104738787749863  1.0000
  Br  Br3       1.0  0.7453513031032202  0.911540675709034  0.5689381038677938  1.0000
  Br  Br4       1.0  0.24539857898217582  0.5884338607304757  0.5689635057129012  1.0000
  N   N1        1.0  0.4435297155339273  0.25137921800977375  0.018370515271279027  1.0000
  N   N2        1.0  0.943552628416235  0.24863182911533233  0.018390430497234427  1.0000
  N   N3        1.0  0.556479009647916  0.7486284111074825  0.9816207341555058  1.0000
  N   N4        1.0  0.056453732467254304  0.7513900580862869  0.9816316281072517  1.0000
  N   N5        1.0  0.10940441568207154  0.053590648530715206  0.8220963610469882  1.0000
  N   N6        1.0  0.6093755059354892  0.4464266154974227  0.8221204686595273  1.0000
  N   N7        1.0  0.8905936441275344  0.9464071100857439  0.1779054587730826  1.0000
  N   N8        1.0  0.3905969714518136  0.5535886915392823  0.17789007352253353  1.0000
