data_image0
_chemical_formula_structural       Al4H28C64O20F8
_chemical_formula_sum              "Al4 H28 C64 O20 F8"
_cell_length_a       6.654143462862798
_cell_length_b       24.79981731217534
_cell_length_c       24.59037097636996
_cell_angle_alpha    89.96430578758158
_cell_angle_beta     90.42775006961249
_cell_angle_gamma    90.05768635490608

_space_group_name_H-M_alt    "P 1"
_space_group_IT_number       1

loop_
  _space_group_symop_operation_xyz
  'x, y, z'

loop_
  _atom_site_type_symbol
  _atom_site_label
  _atom_site_symmetry_multiplicity
  _atom_site_fract_x
  _atom_site_fract_y
  _atom_site_fract_z
  _atom_site_occupancy
  Al  Al1       1.0  0.9833582617852769  0.9991335373516036  0.4989718410334519  1.0000
  Al  Al2       1.0  0.4833548047820387  0.0008931090462524999  0.49874724430510053  1.0000
  Al  Al3       1.0  0.0166989704187159  0.49916437352224097  0.0011895982096206002  1.0000
  Al  Al4       1.0  0.516688894954406  0.5009301227081764  0.0010022242524741001  1.0000
  H   H1        1.0  0.22920619537848813  0.06954754359791339  0.5142151744186307  1.0000
  H   H2        1.0  0.728605148080156  0.9310430181499494  0.5165135252897174  1.0000
  H   H3        1.0  0.27090442419424227  0.430583640735449  0.985546696718366  1.0000
  H   H4        1.0  0.7714179459379124  0.5690768786446795  0.983627499327902  1.0000
  H   H5        1.0  0.4473032438591389  0.4069776193588836  0.138042478383646  1.0000
  H   H6        1.0  0.44233445546117867  0.33335148029708245  0.20778938572180292  1.0000
  H   H7        1.0  0.07479334626032849  0.37624849995980014  0.10918848818107563  1.0000
  H   H8        1.0  0.4254569849065959  0.12367077890273488  0.39052695684348043  1.0000
  H   H9        1.0  0.05310669346522451  0.09293031430441799  0.361911028582476  1.0000
  H   H10       1.0  0.05842826289271131  0.16653353161498788  0.2921392658946189  1.0000
  H   H11       1.0  0.9455964031063359  0.6202980006821476  0.8912033709364311  1.0000
  H   H12       1.0  0.9356358862971418  0.6931885346063283  0.8209932540320609  1.0000
  H   H13       1.0  0.5769096566797032  0.5970411476237415  0.861586503060565  1.0000
  H   H14       1.0  0.9230563271258063  0.9032710880598743  0.6385320426225789  1.0000
  H   H15       1.0  0.5542693847699383  0.8798485102215705  0.6088622561024764  1.0000
  H   H16       1.0  0.5639874391985558  0.8069389987274321  0.6790383837034855  1.0000
  H   H17       1.0  0.5764217376146946  0.6248090489526062  0.10792310797769743  1.0000
  H   H18       1.0  0.5742811311720075  0.6978657293031745  0.17816777613030155  1.0000
  H   H19       1.0  0.9481744335027428  0.5947174786648332  0.1366454344114203  1.0000
  H   H20       1.0  0.551453323500077  0.9052921207820785  0.3632196488831171  1.0000
  H   H21       1.0  0.9232204220404371  0.8753073558310476  0.3920997453658046  1.0000
  H   H22       1.0  0.9248124138899244  0.8023667635274163  0.3217284308628906  1.0000
  H   H23       1.0  0.44590738829757015  0.37767393780735853  0.8929065450466853  1.0000
  H   H24       1.0  0.43642946176577624  0.3051821112173627  0.8223723897725962  1.0000
  H   H25       1.0  0.0769488214599434  0.4018944547170874  0.8631716208431899  1.0000
  H   H26       1.0  0.42332385527775773  0.0979886577736977  0.6369235427673418  1.0000
  H   H27       1.0  0.05446518471094209  0.12204545588146229  0.6072583051414784  1.0000
  H   H28       1.0  0.0644871919206764  0.1942029675999493  0.6781574715059975  1.0000
  C   C1        1.0  0.7303077639940058  0.0661611125653039  0.5718591359493674  1.0000
  C   C2        1.0  0.7410468134508078  0.06348695925618128  0.42517472462910194  1.0000
  C   C3        1.0  0.23944555225882877  0.9349504504184337  0.4267168590939222  1.0000
  C   C4        1.0  0.23006255018671604  0.9354284347726673  0.5733686870877079  1.0000
  C   C5        1.0  0.7697592297100044  0.43387070472755335  0.9280971226615481  1.0000
  C   C6        1.0  0.7590768790181529  0.4364716644186401  0.0746935052779136  1.0000
  C   C7        1.0  0.260524868559024  0.5650576440998875  0.0732860032156353  1.0000
  C   C8        1.0  0.26995318475810853  0.5647694108916426  0.9266958386407111  1.0000
  C   C9        1.0  0.7596619333191937  0.3956332792696812  0.11910607425739533  1.0000
  C   C10       1.0  0.582478444014278  0.3839591211182807  0.1474683325106554  1.0000
  C   C11       1.0  0.5798721884621044  0.3432814072426567  0.1862185102998879  1.0000
  C   C12       1.0  0.754600893640628  0.31273720255352094  0.19762206336233853  1.0000
  C   C13       1.0  0.9310785644960404  0.3266999125240845  0.16946096254002904  1.0000
  C   C14       1.0  0.9367176739228994  0.36715142848241555  0.1308541702985409  1.0000
  C   C15       1.0  0.7525390656584959  0.2692077626340108  0.2344752872806737  1.0000
  C   C16       1.0  0.7483229369038612  0.23067922239099659  0.26532375199752783  1.0000
  C   C17       1.0  0.7461289587842825  0.18714895338574422  0.3021841645321716  1.0000
  C   C18       1.0  0.5695212479394982  0.1731979365376262  0.3302869792097526  1.0000
  C   C19       1.0  0.5636387520197559  0.1327617048702123  0.36889718464450993  1.0000
  C   C20       1.0  0.7406341321733976  0.104283040914936  0.38073468621128376  1.0000
  C   C21       1.0  0.9179566526890921  0.11593300735807326  0.3524303199923582  1.0000
  C   C22       1.0  0.9208045885950256  0.1565998772074835  0.3136616793827258  1.0000
  C   C23       1.0  0.26153343688706343  0.6050438917556987  0.8816737632926179  1.0000
  C   C24       1.0  0.08067601779604418  0.631555218476329  0.869222169586074  1.0000
  C   C25       1.0  0.07511623676352029  0.6721244460520452  0.8304028902335362  1.0000
  C   C26       1.0  0.2510589341004206  0.6874027524272748  0.8024141173544879  1.0000
  C   C27       1.0  0.4280841922405897  0.6583027334546043  0.8142034344260908  1.0000
  C   C28       1.0  0.43663301247532615  0.618088381950173  0.8530821150390725  1.0000
  C   C29       1.0  0.2509121358574333  0.7307125836446817  0.7653025573546728  1.0000
  C   C30       1.0  0.2486326485122845  0.7694678638069591  0.7347236843927334  1.0000
  C   C31       1.0  0.24860495556094972  0.8128014956054983  0.697636636128138  1.0000
  C   C32       1.0  0.0716869680961665  0.841960794378636  0.6858811621051047  1.0000
  C   C33       1.0  0.0633007723559516  0.8821912929832649  0.6470233787794231  1.0000
  C   C34       1.0  0.23841809785875512  0.8951865968401405  0.6184171223927636  1.0000
  C   C35       1.0  0.419174515325281  0.8686240500344197  0.6308523636178905  1.0000
  C   C36       1.0  0.4245958443454541  0.8280467409223957  0.6696589007572487  1.0000
  C   C37       1.0  0.2628959112375568  0.6060363419150078  0.11749825153587072  1.0000
  C   C38       1.0  0.439603031009419  0.6346155577780052  0.1298326460128933  1.0000
  C   C39       1.0  0.4382456423422951  0.6752221017711194  0.1686155481041922  1.0000
  C   C40       1.0  0.25980963745855223  0.6883529268080791  0.1965265527032685  1.0000
  C   C41       1.0  0.08706297845301242  0.6574915749164915  0.18438463991099502  1.0000
  C   C42       1.0  0.08508488563924028  0.6172062899342805  0.1456223166199706  1.0000
  C   C43       1.0  0.25251992534451523  0.7311202536101575  0.23415368536819875  1.0000
  C   C44       1.0  0.24629315368950702  0.76911395911344  0.2655966394498536  1.0000
  C   C45       1.0  0.2392234296349898  0.81185469180555  0.30326791881950044  1.0000
  C   C46       1.0  0.41212921975370165  0.8426487302789382  0.31540553616324024  1.0000
  C   C47       1.0  0.4144163003318226  0.8828590375404488  0.35424138870249783  1.0000
  C   C48       1.0  0.23675811068612515  0.8940366456276081  0.3824396170397294  1.0000
  C   C49       1.0  0.0599115234613805  0.8655150653107525  0.37011970703792235  1.0000
  C   C50       1.0  0.0609598765389165  0.8249750320368462  0.3312608380931863  1.0000
  C   C51       1.0  0.7616141938224458  0.39342761911964164  0.8832779168515972  1.0000
  C   C52       1.0  0.5810674840291695  0.366694232038995  0.8708476666621366  1.0000
  C   C53       1.0  0.5757525646313013  0.3263508564181024  0.8318388504497707  1.0000
  C   C54       1.0  0.751607204745113  0.31154875817135513  0.8036203501860729  1.0000
  C   C55       1.0  0.9285250785157186  0.3407071640289772  0.8155908214570433  1.0000
  C   C56       1.0  0.9368065541772309  0.38071025329325187  0.8546364435207324  1.0000
  C   C57       1.0  0.7516126036187813  0.2687246700779582  0.7659941124500166  1.0000
  C   C58       1.0  0.7495818113246883  0.23055988639681146  0.7347145967371206  1.0000
  C   C59       1.0  0.7493387482165305  0.1878781530515496  0.6969290640567751  1.0000
  C   C60       1.0  0.5722133517290614  0.15885040549187576  0.6848265886185416  1.0000
  C   C61       1.0  0.5636030587808564  0.11905379130747207  0.6455638265098501  1.0000
  C   C62       1.0  0.738675713864204  0.10640941773819182  0.6168437263567343  1.0000
  C   C63       1.0  0.9194403170118691  0.1329831180630592  0.6293986794144006  1.0000
  C   C64       1.0  0.9250252620109195  0.17312807880023945  0.6686107481463496  1.0000
  O   O1        1.0  0.8953733893641811  0.0552006208381499  0.548232651432592  1.0000
  O   O2        1.0  0.5750271982923394  0.05459259071132289  0.4491910924349868  1.0000
  O   O3        1.0  0.4075163793468732  0.9569544077383367  0.4381295478764856  1.0000
  O   O4        1.0  0.0583136779669644  0.9549563745545626  0.5610729501561238  1.0000
  O   O5        1.0  0.07444227406526241  0.9440687708859485  0.45103892896603537  1.0000
  O   O6        1.0  0.39508880380842015  0.9461488017325477  0.5495712169183875  1.0000
  O   O7        1.0  0.5584039443759751  0.046683897940901886  0.5595614694553748  1.0000
  O   O8        1.0  0.9083608585171205  0.04146811675506969  0.43711702949254067  1.0000
  O   O9        1.0  0.2322610773604836  0.03337684051304989  0.4994715360331485  1.0000
  O   O10       1.0  0.7320150267283977  0.9666757656897785  0.5004531008406943  1.0000
  O   O11       1.0  0.9416322937361769  0.4534084179317189  0.9403378078290674  1.0000
  O   O12       1.0  0.5917513953930467  0.4584965399350623  0.062792260568159  1.0000
  O   O13       1.0  0.42563868991695836  0.5559244006171867  0.0490254543305682  1.0000
  O   O14       1.0  0.1048811018277647  0.553990180943792  0.9504469201818397  1.0000
  O   O15       1.0  0.09251993045657511  0.5430234591486139  0.06185996877985642  1.0000
  O   O16       1.0  0.44171266431462186  0.5452567939387334  0.9389960550497636  1.0000
  O   O17       1.0  0.6046145172677627  0.4449050004283634  0.9516478672388049  1.0000
  O   O18       1.0  0.925039265927346  0.4453974801316321  0.050664871430207405  1.0000
  O   O19       1.0  0.2678447880439876  0.46669961462934834  0.0004267196070629  1.0000
  O   O20       1.0  0.7680256819989778  0.5333844993697523  0.9995574186577801  1.0000
  F   F1        1.0  0.10183310000829948  0.298361428734303  0.1803743467783434  1.0000
  F   F2        1.0  0.3987666571852984  0.2015264680435535  0.3192922486881572  1.0000
  F   F3        1.0  0.5980757000117052  0.6712642594902078  0.7865928882230905  1.0000
  F   F4        1.0  0.9016613609091166  0.8290269841418264  0.7134929022201961  1.0000
  F   F5        1.0  0.9146761026416996  0.6686282620057111  0.21165444027165145  1.0000
  F   F6        1.0  0.5843862743958965  0.8315075096034903  0.2880660837579754  1.0000
  F   F7        1.0  0.09846821813323457  0.32817469152443113  0.7878289566837895  1.0000
  F   F8        1.0  0.40240281682190465  0.17135556098762086  0.7126459174000105  1.0000
