data_image0
_chemical_formula_structural       Al2H6C12Cl2O10
_chemical_formula_sum              "Al2 H6 C12 Cl2 O10"
_cell_length_a       6.647696963625735
_cell_length_b       8.93984284303994
_cell_length_c       11.128559230526074
_cell_angle_alpha    102.18034857854258
_cell_angle_beta     71.31874084966427
_cell_angle_gamma    74.17458466188745

_space_group_name_H-M_alt    "P 1"
_space_group_IT_number       1

loop_
  _space_group_symop_operation_xyz
  'x, y, z'

loop_
  _atom_site_type_symbol
  _atom_site_label
  _atom_site_symmetry_multiplicity
  _atom_site_fract_x
  _atom_site_fract_y
  _atom_site_fract_z
  _atom_site_occupancy
  Al  Al1       1.0  6.449297920716049e-06  0.5000062215445594  0.5000019483666733  1.0000
  Al  Al2       1.0  0.4999974568645129  0.5000008640696124  0.5000030501630306  1.0000
  H   H1        1.0  0.8833843342094242  0.29764659463614157  0.3866460061785162  1.0000
  H   H2        1.0  0.1166461805600251  0.7024054898043772  0.6132810149609326  1.0000
  H   H3        1.0  0.7226589167827414  0.5698591507903571  0.13084432484746597  1.0000
  H   H4        1.0  0.27732144435400846  0.4300920906074453  0.8691369106310205  1.0000
  H   H5        1.0  0.8161955006069948  0.592813698937711  0.8992743565363382  1.0000
  H   H6        1.0  0.18380582948197616  0.4071544003362177  0.10072845039172047  1.0000
  C   C1        1.0  0.35973829483779  0.21318017831101344  0.4802907704009555  1.0000
  C   C2        1.0  0.38987927347781703  0.47591876212780454  0.26651690348975876  1.0000
  C   C3        1.0  0.6402504083644518  0.7868395625142456  0.5197230728656379  1.0000
  C   C4        1.0  0.6101275891420457  0.5240478434218546  0.7334783986149276  1.0000
  C   C5        1.0  0.44828835932271016  0.48688951271195446  0.12836310081444677  1.0000
  C   C6        1.0  0.5517660781705305  0.5130859186638902  0.8716009720107039  1.0000
  C   C7        1.0  0.6270961895563902  0.5391304573361566  0.0723871514150431  1.0000
  C   C8        1.0  0.3729523541380716  0.4608314916228764  0.9276044664215276  1.0000
  C   C9        1.0  0.6785379196954796  0.5521164259185838  0.9445672279835122  1.0000
  C   C10       1.0  0.3214874451203472  0.44784286367495707  0.055452260291382095  1.0000
  C   C11       1.0  0.4320414838361233  0.03492702286695246  0.47145431492489814  1.0000
  C   C12       1.0  0.5679396852706804  0.9650950105181765  0.5285710973260862  1.0000
  Cl  Cl1       1.0  0.32494530280996514  0.9240438971306518  0.3798089861996701  1.0000
  Cl  Cl2       1.0  0.6749824121692072  0.07598735611782809  0.6202371687287781  1.0000
  O   O1        1.0  0.15221526273093386  0.2840761388950527  0.5025357183361835  1.0000
  O   O2        1.0  0.5247074449123377  0.49560382778582845  0.3226765140952423  1.0000
  O   O3        1.0  0.48844114313678255  0.7237354451455004  0.5375191202438216  1.0000
  O   O4        1.0  0.7911415794640111  0.552372532851571  0.6814939905590903  1.0000
  O   O5        1.0  0.8477818983881635  0.7159347377509846  0.4974814184324359  1.0000
  O   O6        1.0  0.47532309722700467  0.5043781475818533  0.6773143156276262  1.0000
  O   O7        1.0  0.5115758347613949  0.2762741018881982  0.46248598403688845  1.0000
  O   O8        1.0  0.2088155893577977  0.44762824338227614  0.3185174241040015  1.0000
  O   O9        1.0  0.8169347549901148  0.41519422849332  0.43360342095859034  1.0000
  O   O10       1.0  0.18306139837780225  0.584834464013511  0.5664022871081612  1.0000
