data_image0
_chemical_formula_structural       Er2H24C30S6O18
_chemical_formula_sum              "Er2 H24 C30 S6 O18"
_cell_length_a       7.853592045287284
_cell_length_b       9.183173670805928
_cell_length_c       13.028951909024709
_cell_angle_alpha    84.73975411500818
_cell_angle_beta     75.11974569765567
_cell_angle_gamma    75.61243508817638

_space_group_name_H-M_alt    "P 1"
_space_group_IT_number       1

loop_
  _space_group_symop_operation_xyz
  'x, y, z'

loop_
  _atom_site_type_symbol
  _atom_site_label
  _atom_site_symmetry_multiplicity
  _atom_site_fract_x
  _atom_site_fract_y
  _atom_site_fract_z
  _atom_site_occupancy
  Er  Er1       1.0  0.73114636397365  0.6984378642779704  0.4971404241583315  1.0000
  Er  Er2       1.0  0.26885600419158345  0.3015636720264964  0.5028572591339753  1.0000
  H   H1        1.0  0.8068318888076361  0.37766305387703614  0.5707762088459134  1.0000
  H   H2        1.0  0.19317117944209627  0.6223360781036219  0.4292177278526736  1.0000
  H   H3        1.0  0.5924140385594896  0.419847638829296  0.5960708904274341  1.0000
  H   H4        1.0  0.4075866784341783  0.5801504575810694  0.40392579605808276  1.0000
  H   H5        1.0  0.05800304025513008  0.8313178679360432  0.4976380105511283  1.0000
  H   H6        1.0  0.941998268847115  0.16868269749525666  0.5023637547864084  1.0000
  H   H7        1.0  0.9759139668778755  0.8907368386150833  0.3996496077880068  1.0000
  H   H8        1.0  0.024086676276525096  0.10926144473372548  0.600351681392489  1.0000
  H   H9        1.0  0.7367553609526565  0.91332906860481  0.6301167173355181  1.0000
  H   H10       1.0  0.2632292160441025  0.08667937165166957  0.3698877253757331  1.0000
  H   H11       1.0  0.7234572372501871  0.01272879904019669  0.5235594477523263  1.0000
  H   H12       1.0  0.2765404899356483  0.9872705103416519  0.47643989953467514  1.0000
  H   H13       1.0  0.3475305428147237  0.6949080005162072  0.22572703627347582  1.0000
  H   H14       1.0  0.6524903070799154  0.30508885160593013  0.7742628295252487  1.0000
  H   H15       1.0  0.2974636235520336  0.8260575496851956  0.043653569619984  1.0000
  H   H16       1.0  0.7025556176566354  0.17394495494778536  0.9563368408309714  1.0000
  H   H17       1.0  0.6526419805172382  0.7131128415240509  0.8426764003881856  1.0000
  H   H18       1.0  0.3473405164478009  0.28687516061213353  0.15732545233718306  1.0000
  H   H19       1.0  0.6071803796844364  0.5974137146287433  0.038384634050217394  1.0000
  H   H20       1.0  0.39280143346027063  0.4025628507071843  0.9616136668274535  1.0000
  H   H21       1.0  0.0539003401534117  0.04512237139893928  0.2220481232736731  1.0000
  H   H22       1.0  0.9460940533356136  0.9548793375380878  0.7779553745537556  1.0000
  H   H23       1.0  0.10578160327253981  0.15278020609962079  0.02474170257541179  1.0000
  H   H24       1.0  0.8942206608743816  0.847212393581934  0.9752582748370245  1.0000
  C   C1        1.0  0.6067456827495616  0.7840388027965091  0.3165178158100659  1.0000
  C   C2        1.0  0.3932534132515854  0.21596497728111066  0.6834801824435032  1.0000
  C   C3        1.0  0.9358551128464541  0.5509316030854023  0.6802794313396633  1.0000
  C   C4        1.0  0.06414555770401617  0.4490712108876735  0.3197222450124285  1.0000
  C   C5        1.0  0.7270272291256318  0.1913803868646866  0.37326402251981966  1.0000
  C   C6        1.0  0.27297149559047534  0.8086200491723616  0.6267350783011095  1.0000
  C   C7        1.0  0.5361524481094261  0.8346492161729344  0.22215149236861015  1.0000
  C   C8        1.0  0.46384231944762166  0.165360429741753  0.777852824294719  1.0000
  C   C9        1.0  0.4922903913916698  0.9569221377927728  0.04943874184343854  1.0000
  C   C10       1.0  0.50771859376637  0.043093126931701385  0.9505621615601784  1.0000
  C   C11       1.0  0.8789609462262075  0.5222704070128329  0.7951894740664541  1.0000
  C   C12       1.0  0.12104494906330389  0.4777233240925511  0.20480985293319517  1.0000
  C   C13       1.0  0.4131944572365  0.7824203182598096  0.18447327933523647  1.0000
  C   C14       1.0  0.5868148293249289  0.21758466747601796  0.8155245928704173  1.0000
  C   C15       1.0  0.8037439346595433  0.21909364671815715  0.2599484864370538  1.0000
  C   C16       1.0  0.19626796138146568  0.7808926889900576  0.7400620528290176  1.0000
  C   C17       1.0  0.38687281921460237  0.8526393692615103  0.08701181699643713  1.0000
  C   C18       1.0  0.6131427321017283  0.1473667526667626  0.9129850008497085  1.0000
  C   C19       1.0  0.8515359873506724  0.320474277457393  0.07398686589760933  1.0000
  C   C20       1.0  0.14846063154598718  0.6795241856769181  0.9260196318979438  1.0000
  C   C21       1.0  0.8371875139072598  0.41185761366764945  0.9791135387765378  1.0000
  C   C22       1.0  0.16281812363908432  0.5881370859265901  0.020881908151238818  1.0000
  C   C23       1.0  0.7354698960456714  0.608638588244389  0.86681515005494  1.0000
  C   C24       1.0  0.26452340541833747  0.3913484333210349  0.1331881998396227  1.0000
  C   C25       1.0  0.7110443142748507  0.5462601243168308  0.9705988041143669  1.0000
  C   C26       1.0  0.28894738802674874  0.4537279256659517  0.029402401913337414  1.0000
  C   C27       1.0  0.9621135924693789  0.14059293110482676  0.1941508234911994  1.0000
  C   C28       1.0  0.037888956816772165  0.8594032307121465  0.8058534211647056  1.0000
  C   C29       1.0  0.9888020228565464  0.19688453938059067  0.0886173901913807  1.0000
  C   C30       1.0  0.011193942398819  0.8031116105148186  0.91138786433131  1.0000
  S   S1        1.0  0.6167573967604125  0.9724692500207651  0.13860872492574575  1.0000
  S   S2        1.0  0.38323544561774264  0.027551765612734886  0.8613980133003452  1.0000
  S   S3        1.0  0.984164173622119  0.3631503553866934  0.8568785341974774  1.0000
  S   S4        1.0  0.0158440292632207  0.6368537217887746  0.14312495428507083  1.0000
  S   S5        1.0  0.6877004229130677  0.36245131820394494  0.19146737007813638  1.0000
  S   S6        1.0  0.3123003460897634  0.6375512465178729  0.8085281693473121  1.0000
  O   O1        1.0  0.7079120812822878  0.8549423107786678  0.3439878649581303  1.0000
  O   O2        1.0  0.2920878864007079  0.1450583145811351  0.6560156365844136  1.0000
  O   O3        1.0  0.569521895699637  0.6664522398785662  0.36990066150353584  1.0000
  O   O4        1.0  0.43048315530409553  0.3335491765689014  0.6300935493787279  1.0000
  O   O5        1.0  0.7020720391824967  0.46221245818309586  0.5691038810282831  1.0000
  O   O6        1.0  0.29792972456762346  0.5377866402568472  0.43088949052783226  1.0000
  O   O7        1.0  0.059251858150446396  0.45264514425134905  0.6240863085483354  1.0000
  O   O8        1.0  0.9407528914498968  0.5473665511847654  0.3759109335318841  1.0000
  O   O9        1.0  0.5628048801363477  0.25513033685980696  0.41248230107518674  1.0000
  O   O10       1.0  0.43719706473468983  0.7448633870926356  0.5875176318445341  1.0000
  O   O11       1.0  0.8520240193237071  0.6729022830725312  0.6419896376593144  1.0000
  O   O12       1.0  0.14796676763582178  0.3270982321278595  0.3580129763492367  1.0000
  O   O13       1.0  0.012955029231903836  0.798037051170631  0.440673964644688  1.0000
  O   O14       1.0  0.9870439532273634  0.2019624163775688  0.5593290162481068  1.0000
  O   O15       1.0  0.670991372722888  0.9361782206977977  0.5743044573424924  1.0000
  O   O16       1.0  0.3289951842448957  0.0638279110884028  0.425698338149175  1.0000
  O   O17       1.0  0.831976435606876  0.10400760281249428  0.42599227005120355  1.0000
  O   O18       1.0  0.16801832916718942  0.8959974501651046  0.5740101252088721  1.0000
