data_image0
_chemical_formula_structural       Zn4H8C40O32
_chemical_formula_sum              "Zn4 H8 C40 O32"
_cell_length_a       9.822896357
_cell_length_b       13.394675641812213
_cell_length_c       14.883412732963546
_cell_angle_alpha    90.00033972346371
_cell_angle_beta     90.00468483468075
_cell_angle_gamma    102.22839543559778

_space_group_name_H-M_alt    "P 1"
_space_group_IT_number       1

loop_
  _space_group_symop_operation_xyz
  'x, y, z'

loop_
  _atom_site_type_symbol
  _atom_site_label
  _atom_site_symmetry_multiplicity
  _atom_site_fract_x
  _atom_site_fract_y
  _atom_site_fract_z
  _atom_site_occupancy
  Zn  Zn1       1.0  0.5411747334075941  0.6254445011732417  0.3576511728059941  1.0000
  Zn  Zn2       1.0  0.45877359298435055  0.8745298035359499  0.8576305901945603  1.0000
  Zn  Zn3       1.0  0.45880660341158847  0.37454172004531483  0.6423607411954393  1.0000
  Zn  Zn4       1.0  0.5412185477073451  0.1254480140851086  0.1423544482502592  1.0000
  H   H1        1.0  0.0789225222524124  0.6562560715441563  0.4056939178015  1.0000
  H   H2        1.0  0.5944328672562449  0.6732054233789598  0.0666728808373449  1.0000
  H   H3        1.0  0.9210469068651507  0.8437712479183617  0.9056316780773201  1.0000
  H   H4        1.0  0.4055477982768281  0.8267921009689801  0.5666536420037431  1.0000
  H   H5        1.0  0.9210778590797517  0.34377140096614783  0.5943489030900366  1.0000
  H   H6        1.0  0.40556828756197666  0.3267930200696867  0.9333343299416796  1.0000
  H   H7        1.0  0.0789618934899039  0.1562325413578876  0.0943217815884907  1.0000
  H   H8        1.0  0.5944403418162096  0.1732071061771094  0.4333461779972154  1.0000
  C   C1        1.0  0.9039244702807352  0.5443585522971972  0.4507057719003384  1.0000
  C   C2        1.0  0.8033274686846996  0.5926621177321111  0.3958984493061806  1.0000
  C   C3        1.0  0.04425382095367783  0.5885331178298189  0.447403437881924  1.0000
  C   C4        1.0  0.2919117537551444  0.5799726794868719  0.4680741003593596  1.0000
  C   C5        1.0  0.522299293788393  0.5124813727659047  0.0929874102028165  1.0000
  C   C6        1.0  0.5458960013918599  0.5266986826541853  0.1931290935751377  1.0000
  C   C7        1.0  0.5361991220031612  0.6819613807704243  0.8919271598731129  1.0000
  C   C8        1.0  0.5580419410490762  0.5975161666790072  0.037781657481915  1.0000
  C   C9        1.0  0.14023543801001637  0.5390620065424514  0.4907214600254406  1.0000
  C   C10       1.0  0.5254424741782913  0.5856567789900141  0.9460034673274933  1.0000
  C   C11       1.0  0.09605812166137892  0.955647521479726  0.9506589856212102  1.0000
  C   C12       1.0  0.19662794476291617  0.9073356443351841  0.8958563662494541  1.0000
  C   C13       1.0  0.9557300047450143  0.9114941660295203  0.9473411981577442  1.0000
  C   C14       1.0  0.7080789446845941  0.9200465564178375  0.9680387361917866  1.0000
  C   C15       1.0  0.4776914937732927  0.9875145195950026  0.5929769059251129  1.0000
  C   C16       1.0  0.4540854976712225  0.9732919318215283  0.693117245519602  1.0000
  C   C17       1.0  0.4637938494811778  0.8180323478419356  0.3919161637055382  1.0000
  C   C18       1.0  0.4419435520036217  0.9024805589345634  0.5377664499818025  1.0000
  C   C19       1.0  0.8597634297365317  0.9609660928519546  0.9906679548571589  1.0000
  C   C20       1.0  0.4745542046804447  0.9143421663288792  0.4459924711599115  1.0000
  C   C21       1.0  0.09607409527210113  0.4556696840377441  0.5493343614355339  1.0000
  C   C22       1.0  0.19667070436094747  0.40735771540511223  0.6041295900292241  1.0000
  C   C23       1.0  0.9557467317207724  0.41150199387184483  0.5526474456765982  1.0000
  C   C24       1.0  0.7080862494525206  0.4200395147679006  0.5319572984206147  1.0000
  C   C25       1.0  0.47770920796003224  0.48751783459824344  0.9070204724651205  1.0000
  C   C26       1.0  0.45410382988796993  0.47329517746499056  0.8068801328706314  1.0000
  C   C27       1.0  0.46381699668962995  0.31803247913069305  0.1080740039056707  1.0000
  C   C28       1.0  0.44196633988839557  0.40248227675147064  0.9622248814081972  1.0000
  C   C29       1.0  0.8597629929339379  0.4609692855635288  0.5093253921995853  1.0000
  C   C30       1.0  0.47457089681908143  0.4143416644222882  0.0540023996736991  1.0000
  C   C31       1.0  0.9039515264429313  0.04434862882321511  0.0492944740446006  1.0000
  C   C32       1.0  0.8033757320729153  0.09265745066917933  0.1041078436389995  1.0000
  C   C33       1.0  0.044281407546229404  0.08850809527035612  0.0526055426189131  1.0000
  C   C34       1.0  0.29192734488382405  0.07994501077369161  0.0319248018077474  1.0000
  C   C35       1.0  0.5222962046093473  0.012483159665571003  0.4070195546312689  1.0000
  C   C36       1.0  0.5459080033807523  0.026701164109574904  0.3068812307035245  1.0000
  C   C37       1.0  0.5361993465045175  0.18195616485055416  0.6080876876289167  1.0000
  C   C38       1.0  0.5580451645856713  0.09751712036235462  0.4622313543524115  1.0000
  C   C39       1.0  0.1402471004612522  0.0390331129494541  0.0092821453640752  1.0000
  C   C40       1.0  0.525437124729919  0.08565398517338002  0.5540053331743025  1.0000
  O   O1        1.0  0.5127238230521698  0.6053527854393012  0.2279564554967379  1.0000
  O   O2        1.0  0.4408761386112803  0.7318409985436675  0.8984962177974438  1.0000
  O   O3        1.0  0.6763583582583407  0.566752258488819  0.424528979762492  1.0000
  O   O4        1.0  0.848701505021545  0.6509962104644559  0.3333798576317761  1.0000
  O   O5        1.0  0.35150562086364806  0.5529296670937498  0.4011203699554429  1.0000
  O   O6        1.0  0.6497957485376845  0.7007895776941809  0.8509446235989842  1.0000
  O   O7        1.0  0.3266479495854854  0.6485455025168039  0.5264625908717662  1.0000
  O   O8        1.0  0.6019266118803942  0.46145975570095743  0.2286505167461783  1.0000
  O   O9        1.0  0.48722941799708525  0.8946229069792084  0.7279392323298737  1.0000
  O   O10       1.0  0.5591002062433575  0.7681423913203177  0.3985033626305707  1.0000
  O   O11       1.0  0.3236010158495121  0.9332417049005388  0.9244855529279405  1.0000
  O   O12       1.0  0.15123345384697737  0.849001989409402  0.8333371026861371  1.0000
  O   O13       1.0  0.6484344255694269  0.94708441985528  0.901099787344009  1.0000
  O   O14       1.0  0.3501952675813556  0.7992149201161638  0.3509228772087596  1.0000
  O   O15       1.0  0.6733903502991796  0.851478110751792  0.026432781814556005  1.0000
  O   O16       1.0  0.398073064047054  0.038536937464712706  0.7286400124684747  1.0000
  O   O17       1.0  0.4872610092124817  0.3946349635920897  0.7720561303936151  1.0000
  O   O18       1.0  0.5591350248074747  0.268149805640924  0.101500242758938  1.0000
  O   O19       1.0  0.32363513032382235  0.43325840771689184  0.5754930125726716  1.0000
  O   O20       1.0  0.15128910028294476  0.3490220948235887  0.6666461660368768  1.0000
  O   O21       1.0  0.6484648598712183  0.4470718324166755  0.5989043099353779  1.0000
  O   O22       1.0  0.3502181982480367  0.2992073377235798  0.1490538526241423  1.0000
  O   O23       1.0  0.6733761654696337  0.35146898326642173  0.4735627609079742  1.0000
  O   O24       1.0  0.39807963308621197  0.5385386877476891  0.7713566940328462  1.0000
  O   O25       1.0  0.5127602804194212  0.10536407746433703  0.2720478217816975  1.0000
  O   O26       1.0  0.44088533774585414  0.23184077421805682  0.6015051919262859  1.0000
  O   O27       1.0  0.6763939918450461  0.06674604313141691  0.0754900790720754  1.0000
  O   O28       1.0  0.8487806575558992  0.15100256381869312  0.1666183726464183  1.0000
  O   O29       1.0  0.3515498248011824  0.0529048559168288  0.0988738289892552  1.0000
  O   O30       1.0  0.6497961982076603  0.20077817597848482  0.6490816460146078  1.0000
  O   O31       1.0  0.3266370975239355  0.14851269259691693  0.9735327718517297  1.0000
  O   O32       1.0  0.6019354885858591  0.961455394932486  0.2713719015329588  1.0000
