data_image0
_chemical_formula_structural       Na2H14C8O14
_chemical_formula_sum              "Na2 H14 C8 O14"
_cell_length_a       6.518055771173235
_cell_length_b       7.038305350607329
_cell_length_c       7.980230044337357
_cell_angle_alpha    90.4509429639825
_cell_angle_beta     102.09950767460205
_cell_angle_gamma    109.923453151778

_space_group_name_H-M_alt    "P 1"
_space_group_IT_number       1

loop_
  _space_group_symop_operation_xyz
  'x, y, z'

loop_
  _atom_site_type_symbol
  _atom_site_label
  _atom_site_symmetry_multiplicity
  _atom_site_fract_x
  _atom_site_fract_y
  _atom_site_fract_z
  _atom_site_occupancy
  Na  Na1       1.0  0.0965513252204673  0.7653524484491073  0.9842274673160817  1.0000
  Na  Na2       1.0  0.9034464924566381  0.2346429306773032  0.015771614521419477  1.0000
  H   H1        1.0  0.24370385127676283  0.6495725903481002  0.5866245178375565  1.0000
  H   H2        1.0  0.7562951672556224  0.35042582233354835  0.4133748137353308  1.0000
  H   H3        1.0  0.31221475700346707  0.1679611025904109  0.9750198044581426  1.0000
  H   H4        1.0  0.6877902842527064  0.832032665156376  0.0249829655305476  1.0000
  H   H5        1.0  0.6573541868622357  0.4430799738085511  0.8068209158842665  1.0000
  H   H6        1.0  0.34264326783964794  0.5569184521772073  0.19317815442299496  1.0000
  H   H7        1.0  0.057262318972981105  0.08224368780777522  0.6309693896572244  1.0000
  H   H8        1.0  0.9427357458649865  0.9177561987927519  0.369034818899273  1.0000
  H   H9        1.0  0.4472938736547008  0.2421795846228889  0.5779825257185182  1.0000
  H   H10       1.0  0.5527000904109728  0.7578219148304585  0.42201601052726556  1.0000
  H   H11       1.0  0.6835375956791694  0.7517202174015766  0.7418284745287098  1.0000
  H   H12       1.0  0.3164588956198529  0.24827973866592154  0.25817045938062233  1.0000
  H   H13       1.0  0.7839655781261713  0.633884831645574  0.6248811762002974  1.0000
  H   H14       1.0  0.21603247700335967  0.366115111117807  0.37511801897466074  1.0000
  C   C1        1.0  0.18213957081557197  0.39593395306896906  0.7225416951833665  1.0000
  C   C2        1.0  0.8178804719112805  0.604058375469748  0.2774447624130971  1.0000
  C   C3        1.0  0.19641869408420115  0.18290753170830237  0.7306727521273261  1.0000
  C   C4        1.0  0.803583696842928  0.8170953758799373  0.2693309753504209  1.0000
  C   C5        1.0  0.42231722537516  0.1821772959259533  0.7020546324245631  1.0000
  C   C6        1.0  0.577683592013031  0.8178256811292569  0.2979438204060258  1.0000
  C   C7        1.0  0.4213428181482968  0.9639876975307119  0.6916259015901858  1.0000
  C   C8        1.0  0.5786489670965694  0.03601238269341419  0.3083647284499663  1.0000
  O   O1        1.0  0.1254193124129301  0.4721661961078709  0.8370454358825372  1.0000
  O   O2        1.0  0.8745826191415135  0.5278472003474803  0.16297342201681891  1.0000
  O   O3        1.0  0.2342381081417173  0.484532176229969  0.5851809524737561  1.0000
  O   O4        1.0  0.7657630964928046  0.5154676135587551  0.4148300453409136  1.0000
  O   O5        1.0  0.1672677379046661  0.10715962529828002  0.8922161642802353  1.0000
  O   O6        1.0  0.8327353765457914  0.892837202611972  0.10778633291259611  1.0000
  O   O7        1.0  0.5947803986136435  0.3001094787984826  0.8404085586641304  1.0000
  O   O8        1.0  0.405220776895547  0.6998904794788106  0.15958739900592894  1.0000
  O   O9        1.0  0.5729120685223138  0.9203808507379422  0.7910681808535714  1.0000
  O   O10       1.0  0.4270953550275324  0.07961909644502192  0.2089250618428196  1.0000
  O   O11       1.0  0.2603469757669856  0.8405066028718908  0.577541537457769  1.0000
  O   O12       1.0  0.7396448386032121  0.1594933088636665  0.4224641327270008  1.0000
  O   O13       1.0  0.7768252330881965  0.6642719197876588  0.7439100725192916  1.0000
  O   O14       1.0  0.2231734224689674  0.3357295397533449  0.2560892475233559  1.0000
