data_image0
_chemical_formula_structural       Cd4H20C16N12O24
_chemical_formula_sum              "Cd4 H20 C16 N12 O24"
_cell_length_a       7.458004354817511
_cell_length_b       10.127136030000479
_cell_length_c       10.60886846770492
_cell_angle_alpha    90.0000014940107
_cell_angle_beta     94.5937436696085
_cell_angle_gamma    89.99996577928745

_space_group_name_H-M_alt    "P 1"
_space_group_IT_number       1

loop_
  _space_group_symop_operation_xyz
  'x, y, z'

loop_
  _atom_site_type_symbol
  _atom_site_label
  _atom_site_symmetry_multiplicity
  _atom_site_fract_x
  _atom_site_fract_y
  _atom_site_fract_z
  _atom_site_occupancy
  Cd  Cd1       1.0  0.20071223785512166  0.9152419379491977  0.3234913168515305  1.0000
  Cd  Cd2       1.0  0.7992933400601032  0.4152445746317569  0.1765060498943427  1.0000
  Cd  Cd3       1.0  0.7992862659036888  0.08475924017294997  0.6765086544071934  1.0000
  Cd  Cd4       1.0  0.2007105402765106  0.5847566034892252  0.8234923331712735  1.0000
  H   H1        1.0  0.3920583287282895  0.18894574525808136  0.9075847566132892  1.0000
  H   H2        1.0  0.6079437831244975  0.6889488536353666  0.5924221824938698  1.0000
  H   H3        1.0  0.6079442125456609  0.8110564203092139  0.0924163803030353  1.0000
  H   H4        1.0  0.39205876424850317  0.3110523244859635  0.407581782585396  1.0000
  H   H5        1.0  0.8505932662011871  0.012510761963760303  0.2264450462685303  1.0000
  H   H6        1.0  0.1494086334992062  0.5125111083109175  0.273561532659123  1.0000
  H   H7        1.0  0.14940927303988616  0.9874914036035279  0.7735551479268209  1.0000
  H   H8        1.0  0.8505925646475563  0.487489082364668  0.7264404726659919  1.0000
  H   H9        1.0  0.9306244785862036  0.1203467618129466  0.3273422980704552  1.0000
  H   H10       1.0  0.0693705989915543  0.6203481273235524  0.172661079015576  1.0000
  H   H11       1.0  0.06937402517302618  0.8796534288632001  0.6726576731882759  1.0000
  H   H12       1.0  0.930626559607198  0.37965107590687097  0.8273388179309576  1.0000
  H   H13       1.0  0.19502583392301892  0.025677511198161102  0.5698107237971612  1.0000
  H   H14       1.0  0.8049763962306855  0.525677581342741  0.930187734027406  1.0000
  H   H15       1.0  0.8049740149971002  0.9743226794776942  0.43018932177378133  1.0000
  H   H16       1.0  0.1950234486240845  0.4743216218870856  0.069810426101597  1.0000
  H   H17       1.0  0.37023135794079565  0.08965014992216419  0.5175971691506405  1.0000
  H   H18       1.0  0.6297708227574362  0.5896493087418051  0.9824031728596337  1.0000
  H   H19       1.0  0.6297698361393813  0.9103520156454153  0.48240295073249945  1.0000
  H   H20       1.0  0.37022902413021086  0.41034989448803555  0.017595929990349597  1.0000
  C   C1        1.0  0.3556271294216415  0.12120793474249326  0.09898473374163069  1.0000
  C   C2        1.0  0.6443733199490113  0.6212060978849506  0.4010151696924567  1.0000
  C   C3        1.0  0.6443700230780605  0.8787922559339021  0.901012335041962  1.0000
  C   C4        1.0  0.3556251777128168  0.3787911304531447  0.5989819734033759  1.0000
  C   C5        1.0  0.45263672590383663  0.22365050065983638  0.1807499172736442  1.0000
  C   C6        1.0  0.5473650073133597  0.723653640469358  0.31926137111261  1.0000
  C   C7        1.0  0.5473644600456495  0.7763496900156923  0.8192464317256024  1.0000
  C   C8        1.0  0.4526362030294351  0.27634951254431417  0.6807462905383304  1.0000
  C   C9        1.0  0.21423974569751894  0.9482483015968552  0.031357864014466906  1.0000
  C   C10       1.0  0.7857590848989273  0.4482479888753588  0.4686419586851471  1.0000
  C   C11       1.0  0.7857627894786176  0.051751889078410294  0.9686404447389448  1.0000
  C   C12       1.0  0.21424076605448755  0.5517512143545032  0.5313590296067829  1.0000
  C   C13       1.0  0.12137954844736501  0.8171796761900012  0.0344474313215102  1.0000
  C   C14       1.0  0.8786180486769767  0.31718031117211604  0.4655532623607214  1.0000
  C   C15       1.0  0.8786189349843099  0.18281755214801618  0.9655431127274882  1.0000
  C   C16       1.0  0.12138044898279078  0.6828218543959963  0.5344438807350683  1.0000
  N   N1        1.0  0.2749479765555876  0.012733059187752398  0.1385880417964742  1.0000
  N   N2        1.0  0.7250512143420663  0.5127311868969783  0.3614099040136196  1.0000
  N   N3        1.0  0.7250505211054159  0.9872661440423516  0.8614091012993369  1.0000
  N   N4        1.0  0.27494997973976604  0.4872670288865848  0.6385902158695558  1.0000
  N   N5        1.0  0.342350010658997  0.12063621702305477  0.9712916328954931  1.0000
  N   N6        1.0  0.657649461923377  0.6206393026069108  0.5287123307657353  1.0000
  N   N7        1.0  0.6576471540404539  0.8793580489773871  0.028711092214017197  1.0000
  N   N8        1.0  0.3423503910616716  0.3793628629609742  0.47128960024713956  1.0000
  N   N9        1.0  0.25378139177182396  0.012367718338858002  0.9268346234975696  1.0000
  N   N10       1.0  0.7462181652937262  0.512368792285571  0.5731665141268749  1.0000
  N   N11       1.0  0.7462211413722671  0.9876304974443856  0.07316274253489041  1.0000
  N   N12       1.0  0.2537816856588577  0.4876323858363064  0.42683447416504083  1.0000
  O   O1        1.0  0.4529082916119052  0.20939869386796062  0.2979500296114566  1.0000
  O   O2        1.0  0.5470880484903091  0.7094028183704283  0.2020496491540911  1.0000
  O   O3        1.0  0.5470929085685654  0.790599521915638  0.7020529184346458  1.0000
  O   O4        1.0  0.4529090897796522  0.29059638485988865  0.7979408205826743  1.0000
  O   O5        1.0  0.5272368655164216  0.31420718206018705  0.11886967726683652  1.0000
  O   O6        1.0  0.4727688070932032  0.8142073929129908  0.3811324050680085  1.0000
  O   O7        1.0  0.4727589458889766  0.6857910337245058  0.8811292026465196  1.0000
  O   O8        1.0  0.5272364184063675  0.18578884797768322  0.6188660523098618  1.0000
  O   O9        1.0  0.0913647820560328  0.7770479034785395  0.1449634942759062  1.0000
  O   O10       1.0  0.908636880061195  0.277047535485984  0.3550355376890977  1.0000
  O   O11       1.0  0.9086364181240257  0.22295129975105965  0.8550394537701892  1.0000
  O   O12       1.0  0.0913629668248035  0.7229556175278659  0.6449635651608432  1.0000
  O   O13       1.0  0.0809035202243535  0.7597843968568228  0.9309265252973447  1.0000
  O   O14       1.0  0.9190931354577854  0.259783029947762  0.5690725734021029  1.0000
  O   O15       1.0  0.9191003743407649  0.2402207310482467  0.06907845681506329  1.0000
  O   O16       1.0  0.0809053703347331  0.7402161732823912  0.4309283405776156  1.0000
  O   O17       1.0  0.9196887809064194  0.0222311666965851  0.3107157017162336  1.0000
  O   O18       1.0  0.08030907314559949  0.5222325279423926  0.18928971136291042  1.0000
  O   O19       1.0  0.08030972488568722  0.9777690239795688  0.6892852122634777  1.0000
  O   O20       1.0  0.9196921229682858  0.47776766273318566  0.810711351241217  1.0000
  O   O21       1.0  0.252626096272202  0.0500733388923891  0.49088498550980836  1.0000
  O   O22       1.0  0.7473771008996694  0.5500744107762828  0.009114125224598996  1.0000
  O   O23       1.0  0.7473764450021603  0.949927839228913  0.5091161514065305  1.0000
  O   O24       1.0  0.25262274598757267  0.4499257798995656  0.9908849776253703  1.0000
