data_image0
_chemical_formula_structural       Nd2Fe4H50C72N4O16
_chemical_formula_sum              "Nd2 Fe4 H50 C72 N4 O16"
_cell_length_a       11.461660280264978
_cell_length_b       12.003548572116358
_cell_length_c       13.7228
_cell_angle_alpha    94.60052347938166
_cell_angle_beta     109.50791865481625
_cell_angle_gamma    117.14354529184006

_space_group_name_H-M_alt    "P 1"
_space_group_IT_number       1

loop_
  _space_group_symop_operation_xyz
  'x, y, z'

loop_
  _atom_site_type_symbol
  _atom_site_label
  _atom_site_symmetry_multiplicity
  _atom_site_fract_x
  _atom_site_fract_y
  _atom_site_fract_z
  _atom_site_occupancy
  Nd  Nd1       1.0  0.2008258099686627  0.6445124027056719  0.6131962763993783  1.0000
  Nd  Nd2       1.0  0.7991838305516552  0.3554908056789187  0.3867880553559928  1.0000
  Fe  Fe1       1.0  0.1385940483730366  0.2157482004418867  0.7525339861305369  1.0000
  Fe  Fe2       1.0  0.8613981956246376  0.7842472127968562  0.24746972288337332  1.0000
  Fe  Fe3       1.0  0.2461561388623679  0.3662909802523373  0.25748566019284885  1.0000
  Fe  Fe4       1.0  0.7538583074541734  0.6337239208510254  0.7425197788866528  1.0000
  H   H1        1.0  0.4385673973827622  0.46752459060338936  0.9175291561194427  1.0000
  H   H2        1.0  0.5613571516410686  0.5323763064919332  0.08228435125199242  1.0000
  H   H3        1.0  0.9199148207782953  0.0207467806764043  0.5630268359948404  1.0000
  H   H4        1.0  0.0800670576356595  0.9792466837758766  0.4369716590498598  1.0000
  H   H5        1.0  0.1449473658905802  0.992781005755738  0.6766871894815338  1.0000
  H   H6        1.0  0.8550284102618732  0.007201740371002099  0.32331249514201227  1.0000
  H   H7        1.0  0.38890807704057545  0.22756271836887268  0.7468868317556671  1.0000
  H   H8        1.0  0.6110776999770025  0.7724132070052505  0.25311370627681373  1.0000
  H   H9        1.0  0.3156107817137581  0.40336664269538147  0.6755972396850467  1.0000
  H   H10       1.0  0.6843885024306289  0.5966200010042826  0.324401987942629  1.0000
  H   H11       1.0  0.975359587219451  0.32649188872839113  0.7730560561878762  1.0000
  H   H12       1.0  0.02463190892546412  0.6735152172291237  0.226940248735076  1.0000
  H   H13       1.0  0.8787834672237835  0.07174749678497959  0.7763144547126686  1.0000
  H   H14       1.0  0.12120099491293969  0.9282586347793041  0.2236718041110279  1.0000
  H   H15       1.0  0.10979007524179  0.0576129485747643  0.8952668049295909  1.0000
  H   H16       1.0  0.8901638571718635  0.9423688231587447  0.10472161781812882  1.0000
  H   H17       1.0  0.345118555543273  0.2947354389338841  0.9680675939962385  1.0000
  H   H18       1.0  0.6548577845680157  0.7052336656876221  0.03194659384499227  1.0000
  H   H19       1.0  0.9880357034458952  0.3560160036304722  0.12682881117572728  1.0000
  H   H20       1.0  0.011973201498712196  0.6439794096082707  0.8731693428014042  1.0000
  H   H21       1.0  0.1777226057535586  0.3792036393507701  0.04315873668870299  1.0000
  H   H22       1.0  0.8222887051584209  0.6207927482812039  0.9568445289933862  1.0000
  H   H23       1.0  0.447687480992002  0.5479344432127817  0.19647980476238305  1.0000
  H   H24       1.0  0.5523108683364342  0.4520668163853471  0.8035114430015327  1.0000
  H   H25       1.0  0.4248766884436961  0.6280285924152977  0.37560180680754485  1.0000
  H   H26       1.0  0.5751394190567112  0.37199410383392  0.624390796929049  1.0000
  H   H27       1.0  0.1479292357359512  0.12279790694834249  0.12606922750961053  1.0000
  H   H28       1.0  0.8520659689801349  0.8771994550768624  0.8739558480131322  1.0000
  H   H29       1.0  0.013167196062482798  0.137737303967441  0.2536288483278284  1.0000
  H   H30       1.0  0.9868572357728735  0.8622951362140795  0.7464104836601777  1.0000
  H   H31       1.0  0.21930812511624959  0.3090034790167592  0.4459832414232069  1.0000
  H   H32       1.0  0.7807381351115906  0.691054295388774  0.5540384512283794  1.0000
  H   H33       1.0  0.48006134082799423  0.3995811249925865  0.4373627405140184  1.0000
  H   H34       1.0  0.5199695671952398  0.600456187155089  0.5626379315851295  1.0000
  H   H35       1.0  0.44066290828089194  0.7655944031740701  0.49828865605356043  1.0000
  H   H36       1.0  0.5593333997987598  0.23441465156991365  0.5017018405656657  1.0000
  H   H37       1.0  0.66349339474543  0.9616764250328271  0.5061610974239485  1.0000
  H   H38       1.0  0.3365001334404738  0.0383375016773044  0.493831151801551  1.0000
  H   H39       1.0  0.7712978180416101  0.17041260657887844  0.6421868980518255  1.0000
  H   H40       1.0  0.22869904478909583  0.8295974225583292  0.357811837514447  1.0000
  H   H41       1.0  0.4772231846633588  0.1681159617331929  0.0007154651565031225  1.0000
  H   H42       1.0  0.5227561038892931  0.8318745795393951  0.9992762727388753  1.0000
  H   H43       1.0  0.25829162430626695  0.9630678585668234  0.9768886752258156  1.0000
  H   H44       1.0  0.7416950721809528  0.0369178107396095  0.02310260088628979  1.0000
  H   H45       1.0  0.1574579864003809  0.7660621119249881  0.8243431657694558  1.0000
  H   H46       1.0  0.8425429619971396  0.23392745495436879  0.17565235884334382  1.0000
  H   H47       1.0  0.777755457149702  0.28876922917990555  0.8074941205758037  1.0000
  H   H48       1.0  0.2222419635013111  0.7112369023843783  0.19250741198040805  1.0000
  H   H49       1.0  0.6710423578151108  0.2862903728000106  0.9376797817392061  1.0000
  H   H50       1.0  0.32894580982353006  0.7137108867981253  0.06231737078518047  1.0000
  C   C1        1.0  0.004851182188595292  0.2866879252382901  0.5420953056989077  1.0000
  C   C2        1.0  0.995153275539863  0.7133143087530698  0.4579071874281695  1.0000
  C   C3        1.0  0.0895733335984303  0.2303631245150299  0.5989287058635996  1.0000
  C   C4        1.0  0.9104211324726847  0.7696313143304819  0.40107701198240875  1.0000
  C   C5        1.0  0.03297608733823409  0.09638210645344707  0.6007505740623031  1.0000
  C   C6        1.0  0.9670104191165336  0.9036113579988337  0.3992543128051907  1.0000
  C   C7        1.0  0.15154555850579499  0.08229140593862638  0.6612087392585622  1.0000
  C   C8        1.0  0.8484337331161173  0.9176942633678067  0.3387914022505926  1.0000
  C   C9        1.0  0.2813071484853893  0.20713651306549957  0.6976603095598293  1.0000
  C   C10       1.0  0.7186815861813471  0.7928462330612404  0.3023415319396038  1.0000
  C   C11       1.0  0.2437727114983375  0.2992712394246126  0.6604509559516885  1.0000
  C   C12       1.0  0.7562221284991608  0.7007173530615134  0.3395493550115916  1.0000
  C   C13       1.0  0.2832472202408596  0.499816956675005  0.8929479144495787  1.0000
  C   C14       1.0  0.7167650224178101  0.500169687024659  0.10708480476701958  1.0000
  C   C15       1.0  0.038046716377842  0.2853880846680141  0.8143133357089171  1.0000
  C   C16       1.0  0.9619457053752354  0.7146190212895006  0.18568832837842555  1.0000
  C   C17       1.0  0.9886891547547947  0.1533032358341373  0.8168121284727334  1.0000
  C   C18       1.0  0.011295678239044067  0.8467019213369155  0.18318801099622561  1.0000
  C   C19       1.0  0.1109493829599657  0.1450598690991001  0.8793458160452943  1.0000
  C   C20       1.0  0.8890252775518731  0.854930672173488  0.12065410431241468  1.0000
  C   C21       1.0  0.2373053315727773  0.2710148101161849  0.915407780959768  1.0000
  C   C22       1.0  0.7626795136981102  0.7289708591902482  0.08459390953699146  1.0000
  C   C23       1.0  0.1918538005132717  0.3593250430432633  0.8753007227046935  1.0000
  C   C24       1.0  0.8081408555902956  0.6406616006564008  0.12470012895700214  1.0000
  C   C25       1.0  0.12163627279500842  0.5012025438496153  0.35445739630030465  1.0000
  C   C26       1.0  0.8783805886966932  0.4987987157485136  0.6455419296126408  1.0000
  C   C27       1.0  0.1847600835218373  0.4972065572089122  0.2771559333571716  1.0000
  C   C28       1.0  0.8152497378231516  0.5028034719283028  0.7228398580851945  1.0000
  C   C29       1.0  0.10463710108017213  0.4159977021500225  0.1677617153564483  1.0000
  C   C30       1.0  0.8953703173667049  0.5840064806277993  0.8322373679947361  1.0000
  C   C31       1.0  0.2050980955492747  0.4308055560829303  0.1232153082647471  1.0000
  C   C32       1.0  0.7949083972894329  0.5691986266948987  0.8767842456360881  1.0000
  C   C33       1.0  0.3476568288454231  0.5205949179348082  0.2041854700944796  1.0000
  C   C34       1.0  0.6523507704261178  0.47941608559563775  0.7958090412300506  1.0000
  C   C35       1.0  0.3361371568889027  0.562199560115964  0.2993719418131988  1.0000
  C   C36       1.0  0.6638745126031438  0.4378153409873988  0.7006247069156757  1.0000
  C   C37       1.0  0.4612605253341541  0.2794715689688303  0.22764760723658384  1.0000
  C   C38       1.0  0.5387381948513976  0.7205287162360747  0.7723531488870421  1.0000
  C   C39       1.0  0.3515317925381041  0.2655357969777512  0.2694196240026088  1.0000
  C   C40       1.0  0.6484795091660871  0.7344752065526876  0.7305926804082219  1.0000
  C   C41       1.0  0.19833712491459474  0.1800844337906966  0.20914187047065982  1.0000
  C   C42       1.0  0.801667700601719  0.8199216977735942  0.7908806739730211  1.0000
  C   C43       1.0  0.1286091392482405  0.18813194748628348  0.2763610925735165  1.0000
  C   C44       1.0  0.8714156665134922  0.8118946463358582  0.7236684602462304  1.0000
  C   C45       1.0  0.238123390502949  0.27893857587142173  0.3786281113881956  1.0000
  C   C46       1.0  0.7619138098142316  0.7211016594559537  0.6213927386610295  1.0000
  C   C47       1.0  0.375307252067131  0.3273746889957607  0.3742231089678826  1.0000
  C   C48       1.0  0.6247225495232768  0.6726558023992979  0.6257862492788534  1.0000
  C   C49       1.0  0.4953374370625383  0.8576248694574602  0.5595517016224534  1.0000
  C   C50       1.0  0.5046655372374502  0.14238126210683077  0.4404440927787974  1.0000
  C   C51       1.0  0.6194412332673451  0.9670648196007647  0.5643430530896583  1.0000
  C   C52       1.0  0.380555258706238  0.0329461839296741  0.4356512751166974  1.0000
  C   C53       1.0  0.6793625335776454  0.0825418249990193  0.6403104420859407  1.0000
  C   C54       1.0  0.3206334036448906  0.9174682041381883  0.359685849172962  1.0000
  C   C55       1.0  0.6198881321431671  0.08666253397330338  0.7148747157874382  1.0000
  C   C56       1.0  0.38010928850783904  0.9133435975909805  0.2851231731974906  1.0000
  C   C57       1.0  0.4945756960530899  0.9704089371698714  0.7041512595543509  1.0000
  C   C58       1.0  0.5054230241324689  0.029591348035026492  0.29584439556948183  1.0000
  C   C59       1.0  0.4303824225524764  0.9700211286638946  0.7786527126135142  1.0000
  C   C60       1.0  0.5696168554533827  0.02997525896807929  0.22134428207174048  1.0000
  C   C61       1.0  0.49460762894249655  0.0857709641668549  0.8618850740833182  1.0000
  C   C62       1.0  0.5053916490633624  0.9142254234651188  0.13811483545896408  1.0000
  C   C63       1.0  0.4300026122977272  0.08279029527294308  0.9339189335831436  1.0000
  C   C64       1.0  0.5699870418386439  0.9172021947861069  0.06607656085293459  1.0000
  C   C65       1.0  0.3082223319564505  0.9685381021661783  0.9209806340050406  1.0000
  C   C66       1.0  0.6917671382859965  0.0314524391064097  0.0790132149866949  1.0000
  C   C67       1.0  0.2526784035092005  0.8583975632897134  0.8371381120598258  1.0000
  C   C68       1.0  0.7473177298843154  0.1415949267693364  0.16285554595717852  1.0000
  C   C69       1.0  0.6816874519387284  0.200708440919982  0.800109254079274  1.0000
  C   C70       1.0  0.31830719188778994  0.7992976906443018  0.19988858912611113  1.0000
  C   C71       1.0  0.6222065938518  0.20009165000470117  0.8714696708747098  1.0000
  C   C72       1.0  0.3777899042603111  0.7999096095934276  0.12853126255959066  1.0000
  N   N1        1.0  0.4332323769766405  0.8589344539600461  0.6257907592732084  1.0000
  N   N2        1.0  0.5667700456415616  0.1410658312448518  0.3742059285090279  1.0000
  N   N3        1.0  0.3111236907409988  0.8581335027240867  0.7678070414916365  1.0000
  N   N4        1.0  0.688875958121976  0.1418619105146561  0.23218780212523177  1.0000
  O   O1        1.0  0.06676161210079101  0.4106658223894897  0.5579983374865094  1.0000
  O   O2        1.0  0.9332561749990659  0.5893354372086391  0.4420063475908407  1.0000
  O   O3        1.0  0.8739621883421621  0.2101054892406324  0.47585063732615407  1.0000
  O   O4        1.0  0.12604374667624538  0.7899025911101132  0.5241504918702802  1.0000
  O   O5        1.0  0.24138896193529996  0.5771564962132202  0.8850041743867862  1.0000
  O   O6        1.0  0.7586723226096977  0.42285450731721846  0.11512554833689843  1.0000
  O   O7        1.0  0.42713460093681727  0.5434249513392899  0.9252991953290461  1.0000
  O   O8        1.0  0.57287545034103  0.45651394709205556  0.0746581489137625  1.0000
  O   O9        1.0  0.20498491895364881  0.5904735285025565  0.4438030971764064  1.0000
  O   O10       1.0  0.7950278631097518  0.4095384494211203  0.5561914706328324  1.0000
  O   O11       1.0  0.9892415486617593  0.4163143799501298  0.32671217843773803  1.0000
  O   O12       1.0  0.010782910796955009  0.5836742125359962  0.6732978512212713  1.0000
  O   O13       1.0  0.5957680764284916  0.3661194870436687  0.2908844921164402  1.0000
  O   O14       1.0  0.40423415922651884  0.6338837213409221  0.7091101624644908  1.0000
  O   O15       1.0  0.4188107231393303  0.20589903366200696  0.1384632022083778  1.0000
  O   O16       1.0  0.5811752285643904  0.7940934563970429  0.8615392754261253  1.0000
