data_image0
_chemical_formula_structural       Cu2H10C10N2Cl4
_chemical_formula_sum              "Cu2 H10 C10 N2 Cl4"
_cell_length_a       3.7547040117832315
_cell_length_b       8.635742901721999
_cell_length_c       10.665991322949914
_cell_angle_alpha    103.3343834123616
_cell_angle_beta     93.27287313690469
_cell_angle_gamma    98.19936979164532

_space_group_name_H-M_alt    "P 1"
_space_group_IT_number       1

loop_
  _space_group_symop_operation_xyz
  'x, y, z'

loop_
  _atom_site_type_symbol
  _atom_site_label
  _atom_site_symmetry_multiplicity
  _atom_site_fract_x
  _atom_site_fract_y
  _atom_site_fract_z
  _atom_site_occupancy
  Cu  Cu1       1.0  0.36138463560828177  0.9792684233702573  0.1468551489352309  1.0000
  Cu  Cu2       1.0  0.638631513086338  0.020730001383675804  0.8531420671729822  1.0000
  H   H1        1.0  0.015844951648148267  0.6397787842275448  0.06811540574508972  1.0000
  H   H2        1.0  0.9841574198479607  0.3602185515685862  0.9318841438035935  1.0000
  H   H3        1.0  0.5793255717209149  0.9360809503807842  0.40190179526312164  1.0000
  H   H4        1.0  0.4207024761731546  0.0639137762095743  0.5980950043649786  1.0000
  H   H5        1.0  0.9057387732492472  0.40534766515408893  0.17258148631389506  1.0000
  H   H6        1.0  0.09424903752836396  0.594653396763185  0.8274193673822483  1.0000
  H   H7        1.0  0.48373154697857496  0.7205347840766477  0.5225816051342848  1.0000
  H   H8        1.0  0.5162806872619258  0.2794673130868902  0.4774180628817535  1.0000
  H   H9        1.0  0.14261077101866707  0.4444574773908343  0.4019320371370157  1.0000
  H   H10       1.0  0.8573787623725478  0.5555411920675581  0.5980712365868472  1.0000
  C   C1        1.0  0.11543316460777218  0.6497416316982622  0.16801812905004004  1.0000
  C   C2        1.0  0.8845620027430029  0.35027138750048437  0.8319784541067963  1.0000
  C   C3        1.0  0.42735438990931124  0.8172753030798177  0.35634699704695566  1.0000
  C   C4        1.0  0.5726509541025777  0.18273643366173797  0.6436486289739565  1.0000
  C   C5        1.0  0.054491474342469856  0.5215011335542529  0.2265997950809294  1.0000
  C   C6        1.0  0.9454885105597911  0.478486835325903  0.7734107417458775  1.0000
  C   C7        1.0  0.37496466957172464  0.6949277645328708  0.42163588341188796  1.0000
  C   C8        1.0  0.625026430972369  0.3050613096389085  0.5783722679558495  1.0000
  C   C9        1.0  0.1866262586881646  0.5446075417513824  0.3554842310789256  1.0000
  C   C10       1.0  0.813373134301628  0.45541629205950335  0.6445115627394177  1.0000
  N   N1        1.0  0.29943843401903797  0.7947172047478048  0.23195423570731324  1.0000
  N   N2        1.0  0.7005496907882004  0.20527784821612732  0.7680483614434198  1.0000
  Cl  Cl1       1.0  0.6096594072283067  0.8285236321950223  0.9737899498520408  1.0000
  Cl  Cl2       1.0  0.3903415554956596  0.17147002898787628  0.026204224693756804  1.0000
  Cl  Cl3       1.0  0.007577530029394115  0.11573063791025362  0.28510579765506355  1.0000
  Cl  Cl4       1.0  0.9924245274747249  0.8842727184629666  0.7148929481249912  1.0000
