data_image0
_chemical_formula_structural       H48Au8C56N24
_chemical_formula_sum              "H48 Au8 C56 N24"
_cell_length_a       7.6889433470554085
_cell_length_b       12.044986666876415
_cell_length_c       15.752294855339825
_cell_angle_alpha    90.00047129316472
_cell_angle_beta     89.99858110826145
_cell_angle_gamma    89.99871975130857

_space_group_name_H-M_alt    "P 1"
_space_group_IT_number       1

loop_
  _space_group_symop_operation_xyz
  'x, y, z'

loop_
  _atom_site_type_symbol
  _atom_site_label
  _atom_site_symmetry_multiplicity
  _atom_site_fract_x
  _atom_site_fract_y
  _atom_site_fract_z
  _atom_site_occupancy
  H   H1        1.0  0.0643295923861658  0.28088085298228554  0.17976414876883245  1.0000
  H   H2        1.0  0.5643219328565506  0.7191209983281723  0.3202372843818041  1.0000
  H   H3        1.0  0.9356757033364216  0.21912390732563133  0.6797525034537559  1.0000
  H   H4        1.0  0.4356857947028061  0.7808730875666684  0.8202403248478021  1.0000
  H   H5        1.0  0.935668465750247  0.7191036262171057  0.8202358386876798  1.0000
  H   H6        1.0  0.43566702123948176  0.28087676443272613  0.6797557200622395  1.0000
  H   H7        1.0  0.06433666094359579  0.780879666806996  0.3202385963828078  1.0000
  H   H8        1.0  0.564320066657352  0.21911388227119497  0.17976537602267945  1.0000
  H   H9        1.0  0.9016308715729406  0.17682730431332064  0.2930546334598958  1.0000
  H   H10       1.0  0.40162830318157455  0.8231814274771881  0.2069528807419871  1.0000
  H   H11       1.0  0.09837647854751451  0.3231728557861829  0.7930366247267815  1.0000
  H   H12       1.0  0.5983747688974432  0.6768214097218462  0.7069450439272842  1.0000
  H   H13       1.0  0.0983619840064449  0.8231621562889374  0.7069529719814582  1.0000
  H   H14       1.0  0.5983684541666533  0.1768262978765875  0.7930394888582911  1.0000
  H   H15       1.0  0.9016527933242812  0.6768232462256595  0.20695193567143383  1.0000
  H   H16       1.0  0.401631092470943  0.32317054142122004  0.29305684799012977  1.0000
  H   H17       1.0  0.8816960374949544  0.9723102468490268  0.2891384766157401  1.0000
  H   H18       1.0  0.3816863966790009  0.027694614170521006  0.2108673740390118  1.0000
  H   H19       1.0  0.11830936669561248  0.527690148245327  0.78913168864797  1.0000
  H   H20       1.0  0.6183199219240977  0.47230383693006683  0.7108535480166369  1.0000
  H   H21       1.0  0.11829681825751238  0.027676723063294204  0.7108640501926333  1.0000
  H   H22       1.0  0.6183116610903454  0.9723114507695956  0.7891319786576576  1.0000
  H   H23       1.0  0.881696494493184  0.47231010511379884  0.210871472951986  1.0000
  H   H24       1.0  0.3816898411668673  0.5276881141821761  0.28914770904906123  1.0000
  H   H25       1.0  0.020836230211088498  0.8633632899526589  0.17205436225047785  1.0000
  H   H26       1.0  0.5208332522522169  0.13664083326870724  0.32794061337445873  1.0000
  H   H27       1.0  0.9791842196245355  0.6366383437671813  0.6720511917259062  1.0000
  H   H28       1.0  0.4791879339512234  0.3633572091796822  0.827937936680897  1.0000
  H   H29       1.0  0.9791579261465342  0.1366261705963367  0.8279449904172369  1.0000
  H   H30       1.0  0.47918431425065927  0.8633602501849326  0.672054295391618  1.0000
  H   H31       1.0  0.020824242688540596  0.36336357001211195  0.32795133503545065  1.0000
  H   H32       1.0  0.5208192279979897  0.6366322512982378  0.1720652248770591  1.0000
  H   H33       1.0  0.36720080684358447  0.14085582452167245  0.8947992784589973  1.0000
  H   H34       1.0  0.8671977881482961  0.8591512656992393  0.6051969167658983  1.0000
  H   H35       1.0  0.6327870729653496  0.359154556188976  0.3948026448133178  1.0000
  H   H36       1.0  0.132801343591801  0.640855464842936  0.10519669128521512  1.0000
  H   H37       1.0  0.6327933488597636  0.8591568822642018  0.10520959670432722  1.0000
  H   H38       1.0  0.13279896915949507  0.1408514783561259  0.39480053144371413  1.0000
  H   H39       1.0  0.36720838338050743  0.64085399948312  0.6052062303290172  1.0000
  H   H40       1.0  0.867199315335405  0.35915309072809987  0.89480012209107  1.0000
  H   H41       1.0  0.3341092509738175  0.0013074915313638002  0.8852912158871221  1.0000
  H   H42       1.0  0.8340955933282075  0.9986992337973608  0.614699665849699  1.0000
  H   H43       1.0  0.6658856141511079  0.49870278747224017  0.385296334974946  1.0000
  H   H44       1.0  0.16590175545584168  0.5013100890509181  0.11470323596300602  1.0000
  H   H45       1.0  0.6658953095632115  0.9987010640326021  0.11470940643441453  1.0000
  H   H46       1.0  0.16589726227447701  0.0013043405029620006  0.3852971475579778  1.0000
  H   H47       1.0  0.3341072411712317  0.5013065984119153  0.6147074615606344  1.0000
  H   H48       1.0  0.8340976027455724  0.4987009572158031  0.8852980212259782  1.0000
  Au  Au1       1.0  0.24068369530836964  0.8186512983205176  0.9993202918894896  1.0000
  Au  Au2       1.0  0.7406801312416035  0.18135258945470417  0.500673623283028  1.0000
  Au  Au3       1.0  0.7593253486333535  0.6813521744235519  0.4993197344757904  1.0000
  Au  Au4       1.0  0.2593186458692501  0.3186510862091155  0.0006729939239349001  1.0000
  Au  Au5       1.0  0.759318264365888  0.1813481248077764  0.0006758866219059001  1.0000
  Au  Au6       1.0  0.25932312891578846  0.8186534754250728  0.4993212855852463  1.0000
  Au  Au7       1.0  0.24068311373353174  0.31865306021570217  0.5006783484991146  1.0000
  Au  Au8       1.0  0.7406768106078728  0.6813491672571034  0.9993365160202644  1.0000
  C   C1        1.0  0.26008072711654506  0.06823438399950281  0.9980094196833493  1.0000
  C   C2        1.0  0.760079067565549  0.9317650799151523  0.5019823565716452  1.0000
  C   C3        1.0  0.7399214236426558  0.43177045843891193  0.49801195094586603  1.0000
  C   C4        1.0  0.23992270104808705  0.568233905204828  0.001984186040729701  1.0000
  C   C5        1.0  0.7398926199013544  0.9317666997955599  0.001991202803147  1.0000
  C   C6        1.0  0.2398994818349252  0.06823268294944282  0.4980163613885012  1.0000
  C   C7        1.0  0.2600883391374537  0.5682380970952751  0.5019899410005095  1.0000
  C   C8        1.0  0.7600987669103816  0.4317713293633574  0.9980177058244097  1.0000
  C   C9        1.0  0.13091528791051846  0.129373842861753  0.11332786769365553  1.0000
  C   C10       1.0  0.6309027797796674  0.8706312233375469  0.3866689518584466  1.0000
  C   C11       1.0  0.869092078508544  0.37063186753385213  0.6133249688406225  1.0000
  C   C12       1.0  0.3690950736154405  0.6293677240607779  0.8866705686405896  1.0000
  C   C13       1.0  0.8690814695203103  0.8706156176825247  0.8866740242708887  1.0000
  C   C14       1.0  0.3690900759961053  0.12936986027284553  0.6133227829162495  1.0000
  C   C15       1.0  0.13091638384086224  0.6293725368912606  0.3866743837879271  1.0000
  C   C16       1.0  0.6309133888247941  0.3706233968600401  0.1133344973991655  1.0000
  C   C17       1.0  0.055698041155856984  0.190562834915653  0.1789221330604818  1.0000
  C   C18       1.0  0.5556988373397329  0.8094474399121266  0.32108003920369305  1.0000
  C   C19       1.0  0.9442981931777085  0.3094435769172251  0.6789147639708519  1.0000
  C   C20       1.0  0.4443075468476322  0.6905541269712856  0.8210792297933411  1.0000
  C   C21       1.0  0.9442974154110644  0.8094332674425289  0.8210867420424466  1.0000
  C   C22       1.0  0.4442979200112447  0.19056194587670922  0.6789110607455555  1.0000
  C   C23       1.0  0.0557063675080727  0.6905575066549974  0.32108522349890484  1.0000
  C   C24       1.0  0.5556905110355003  0.30944280554880527  0.17892202735884413  1.0000
  C   C25       1.0  0.9665950811681796  0.13170738790327624  0.24195868588496697  1.0000
  C   C26       1.0  0.4666013238081206  0.8682962792663179  0.2580435993767054  1.0000
  C   C27       1.0  0.0334070582982022  0.3682947165860357  0.7419493657069938  1.0000
  C   C28       1.0  0.5334095601698934  0.631701292630737  0.7580356273766358  1.0000
  C   C29       1.0  0.03339387277979709  0.8682787518393129  0.758048284741321  1.0000
  C   C30       1.0  0.5334162426399159  0.1317106157236339  0.7419494049233394  1.0000
  C   C31       1.0  0.9666092076036321  0.6317063668835348  0.2580468127232082  1.0000
  C   C32       1.0  0.4665897985288224  0.36828899808564586  0.24196055112157924  1.0000
  C   C33       1.0  0.9546722905871192  0.015176820252612805  0.239735855932139  1.0000
  C   C34       1.0  0.4546703817391986  0.9848270145843688  0.26026086000962323  1.0000
  C   C35       1.0  0.045326059912497406  0.484824430290992  0.739729668375354  1.0000
  C   C36       1.0  0.545327383969216  0.5151697509082356  0.7602558155000027  1.0000
  C   C37       1.0  0.045323166352694996  0.9848109798487743  0.7602641315505994  1.0000
  C   C38       1.0  0.5453341791319913  0.015179050255717601  0.7397283353975654  1.0000
  C   C39       1.0  0.9546811019873545  0.5151741625933755  0.260269049414525  1.0000
  C   C40       1.0  0.45465896891514024  0.4848222003617978  0.23974417205087667  1.0000
  C   C41       1.0  0.031089553394601  0.9536331518580498  0.17440281517690445  1.0000
  C   C42       1.0  0.5310898991739704  0.046379129402524207  0.3255958455140871  1.0000
  C   C43       1.0  0.9689151702926749  0.5463726582029764  0.6744023716079752  1.0000
  C   C44       1.0  0.4689157991774877  0.45362802048271783  0.8255875157603613  1.0000
  C   C45       1.0  0.9689007010581037  0.0463629505027612  0.825599711676084  1.0000
  C   C46       1.0  0.4689198637538538  0.9536310865361772  0.6743990633280321  1.0000
  C   C47       1.0  0.031094592567633594  0.4536259347004404  0.3256033292757011  1.0000
  C   C48       1.0  0.5310848599426804  0.5463705724337944  0.17440866275626382  1.0000
  C   C49       1.0  0.11891968665960918  0.011683456961840498  0.11108154587019213  1.0000
  C   C50       1.0  0.6189171924652045  0.988315966312115  0.3889204971920749  1.0000
  C   C51       1.0  0.8810786896960323  0.48832305971193085  0.6110811513059959  1.0000
  C   C52       1.0  0.3810818475293162  0.5116805144380194  0.8889123368476393  1.0000
  C   C53       1.0  0.8810744695958802  0.9883026827373845  0.888924155068388  1.0000
  C   C54       1.0  0.38107956486521016  0.011680966213724301  0.6110801251398357  1.0000
  C   C55       1.0  0.11892587086636297  0.5116813447575768  0.38892137548681666  1.0000
  C   C56       1.0  0.618920112211768  0.48831060649796854  0.11108701577817473  1.0000
  N   N1        1.0  0.2034101858490658  0.9754627020834123  0.03826802760565331  1.0000
  N   N2        1.0  0.70340830008886  0.024541344704871914  0.4617241068300118  1.0000
  N   N3        1.0  0.7965884406228197  0.5245424826070889  0.5382714328706728  1.0000
  N   N4        1.0  0.2965839871910275  0.47545895867594373  0.9617205370502692  1.0000
  N   N5        1.0  0.7965683636038391  0.0245375514235988  0.9617268813935528  1.0000
  N   N6        1.0  0.2965793532639012  0.9754580785375782  0.5382746110803753  1.0000
  N   N7        1.0  0.20342002167963358  0.4754627520457363  0.4617291894167793  1.0000
  N   N8        1.0  0.7034283766996553  0.5245429551030796  0.038287068312612915  1.0000
  N   N9        1.0  0.22007443000815388  0.16262317697019313  0.0409005268045703  1.0000
  N   N10       1.0  0.7200620280021467  0.8373781449416596  0.45909521527218544  1.0000
  N   N11       1.0  0.7799288084941408  0.33738092880106046  0.5409003995264356  1.0000
  N   N12       1.0  0.27994385490343626  0.6626224070773432  0.9591006592035145  1.0000
  N   N13       1.0  0.779913223105723  0.8373779067582279  0.9591064438768558  1.0000
  N   N14       1.0  0.2799191225548228  0.16262127833631726  0.5409015981930808  1.0000
  N   N15       1.0  0.22007835325422315  0.6626234756399827  0.4591002227662458  1.0000
  N   N16       1.0  0.7200737113780349  0.3373811670764084  0.040901232679949814  1.0000
  N   N17       1.0  0.35157632541154266  0.06696975266958562  0.9247179543844981  1.0000
  N   N18       1.0  0.8515774042598566  0.9330392176255631  0.5752733510138981  1.0000
  N   N19       1.0  0.6484165388574042  0.43304343858653754  0.42472223425816946  1.0000
  N   N20       1.0  0.14843104934858084  0.5669688533446547  0.07527627814031491  1.0000
  N   N21       1.0  0.6484035242146717  0.9330446146146018  0.0752826681047409  1.0000
  N   N22       1.0  0.1484063473569606  0.06696186608616733  0.4247253669253156  1.0000
  N   N23       1.0  0.3515724147142548  0.566968437987832  0.5752815623088665  1.0000
  N   N24       1.0  0.8515826151085264  0.43304136260395154  0.9247256137877359  1.0000
