data_image0
_chemical_formula_structural       Hg4H44C64I8N8Cl4
_chemical_formula_sum              "Hg4 H44 C64 I8 N8 Cl4"
_cell_length_a       7.289971726033981
_cell_length_b       8.678145792031849
_cell_length_c       28.043721100023237
_cell_angle_alpha    89.99998361156892
_cell_angle_beta     90.00014913914326
_cell_angle_gamma    89.9996873432688

_space_group_name_H-M_alt    "P 1"
_space_group_IT_number       1

loop_
  _space_group_symop_operation_xyz
  'x, y, z'

loop_
  _atom_site_type_symbol
  _atom_site_label
  _atom_site_symmetry_multiplicity
  _atom_site_fract_x
  _atom_site_fract_y
  _atom_site_fract_z
  _atom_site_occupancy
  Hg  Hg1       1.0  0.49243805206405256  0.8343175255780508  0.2525671851780089  1.0000
  Hg  Hg2       1.0  0.4924437522560297  0.3343167092959618  0.24743201178463176  1.0000
  Hg  Hg3       1.0  0.9924390936759623  0.1656813762436968  0.7474328849129463  1.0000
  Hg  Hg4       1.0  0.9924416239687872  0.6656810401872021  0.7525673451370875  1.0000
  H   H1        1.0  0.5230735682521512  0.0403229148768958  0.347484735016998  1.0000
  H   H2        1.0  0.5230751135022942  0.540322669972447  0.15251522259075045  1.0000
  H   H3        1.0  0.023070169828137897  0.9596804614089646  0.6525157253229209  1.0000
  H   H4        1.0  0.023075483319068696  0.4596784016581026  0.8474845245795135  1.0000
  H   H5        1.0  0.6720408556969988  0.7682326179739506  0.47017068344661783  1.0000
  H   H6        1.0  0.6720375547659644  0.2682354569144679  0.029828286426578598  1.0000
  H   H7        1.0  0.1720258485824857  0.23176315576273507  0.5298280964484261  1.0000
  H   H8        1.0  0.17203052125312718  0.7317649260979592  0.9701719198129691  1.0000
  H   H9        1.0  0.5671007749158363  0.5664040948533042  0.3319511246215612  1.0000
  H   H10       1.0  0.5671043218050755  0.06640219857694521  0.16804814776363486  1.0000
  H   H11       1.0  0.0671132635906559  0.4335979255439  0.6680486528423585  1.0000
  H   H12       1.0  0.0671110884562651  0.9335975171773044  0.8319516297008602  1.0000
  H   H13       1.0  0.5736374960909743  0.17096126996516864  0.42192315621911547  1.0000
  H   H14       1.0  0.5736328214767995  0.6709622452103332  0.07807646785840917  1.0000
  H   H15       1.0  0.0736204887685474  0.8290361110021893  0.5780766257321088  1.0000
  H   H16       1.0  0.0736251633768532  0.32903859271620917  0.9219243838508431  1.0000
  H   H17       1.0  0.6487833805906859  0.5316452899360016  0.41749543677610745  1.0000
  H   H18       1.0  0.6487764830253439  0.031645776256951294  0.0825028251655482  1.0000
  H   H19       1.0  0.1487797139631155  0.4683528959307068  0.5825033271216498  1.0000
  H   H20       1.0  0.14877700929797297  0.9683535619513465  0.9174970084870322  1.0000
  H   H21       1.0  0.8332101628268093  0.32707465043060324  0.45164005094143517  1.0000
  H   H22       1.0  0.8332093108905666  0.8270768050585813  0.04836187722179368  1.0000
  H   H23       1.0  0.3332020989270674  0.6729249875026895  0.5483609793561968  1.0000
  H   H24       1.0  0.33320843784230897  0.17292398518257093  0.9516377267334375  1.0000
  H   H25       1.0  0.8635019138593877  0.5690755635924134  0.4987340147858176  1.0000
  H   H26       1.0  0.8635010752267008  0.06907842854743508  0.0012686705554613997  1.0000
  H   H27       1.0  0.36349906025612466  0.4309227819739049  0.5012670363543065  1.0000
  H   H28       1.0  0.3635026423782151  0.930921069332598  0.9987320239994941  1.0000
  H   H29       1.0  0.5664997832931817  0.9644014550129681  0.5585533458625773  1.0000
  H   H30       1.0  0.5665060218468484  0.4644073758971955  0.9414469209078928  1.0000
  H   H31       1.0  0.06650163049933869  0.035595958907421704  0.4414467877704665  1.0000
  H   H32       1.0  0.0664981354202325  0.5355957996164589  0.058552856139776586  1.0000
  H   H33       1.0  0.4661788079041855  0.9696527699310168  0.6435217071258846  1.0000
  H   H34       1.0  0.46618832516006853  0.469658768215922  0.8564784901536624  1.0000
  H   H35       1.0  0.9661864743528596  0.030348557908624195  0.3564779883149001  1.0000
  H   H36       1.0  0.9661810723336117  0.5303448642538271  0.14352156187449333  1.0000
  H   H37       1.0  0.47990305384400506  0.21510673970320937  0.6895113629840423  1.0000
  H   H38       1.0  0.47990341087495375  0.7151132648031651  0.8104888665898426  1.0000
  H   H39       1.0  0.9799067792967194  0.7848956770199321  0.3104883418975745  1.0000
  H   H40       1.0  0.9799023070197637  0.28489030424937306  0.18951083829031024  1.0000
  H   H41       1.0  0.5984704686838712  0.4517687892605267  0.6521130038148755  1.0000
  H   H42       1.0  0.5984670786600716  0.9517787372579819  0.8478872860821053  1.0000
  H   H43       1.0  0.09846534944612269  0.5482296291997886  0.34788608205328586  1.0000
  H   H44       1.0  0.09846873945839012  0.04822544280113309  0.15211322613004086  1.0000
  C   C1        1.0  0.5515935325312994  0.9297098352336661  0.3645765879021709  1.0000
  C   C2        1.0  0.5515953864540107  0.4297114256434966  0.13542264119271857  1.0000
  C   C3        1.0  0.05159020730772569  0.0702899522482241  0.6354235354735349  1.0000
  C   C4        1.0  0.0515965838713655  0.5702883618192088  0.8645778387718719  1.0000
  C   C5        1.0  0.6354465392242049  0.7760719518829831  0.4325968408335824  1.0000
  C   C6        1.0  0.6354436082154108  0.27607590891187067  0.06740210315901857  1.0000
  C   C7        1.0  0.1354374395208211  0.22392283869118762  0.5674019138867477  1.0000
  C   C8        1.0  0.1354403705180829  0.7239246432610997  0.9325980779052967  1.0000
  C   C9        1.0  0.5997160674982068  0.9216503767338651  0.41278704005878086  1.0000
  C   C10       1.0  0.599716075028823  0.4216508587491036  0.08721186628127235  1.0000
  C   C11       1.0  0.0997081004728742  0.0783491882945029  0.587212403251378  1.0000
  C   C12       1.0  0.09971083643691969  0.5783498585924889  0.9127882902019022  1.0000
  C   C13       1.0  0.5761280438952882  0.6652546725174204  0.35581386238902707  1.0000
  C   C14       1.0  0.5761286123407457  0.16525625494730883  0.14418505074403495  1.0000
  C   C15       1.0  0.076134075593508  0.33474384920324946  0.6441855646975083  1.0000
  C   C16       1.0  0.07613350714434118  0.8347434190932432  0.8558143763424437  1.0000
  C   C17       1.0  0.6163308253537919  0.06396826127553369  0.44007340613608636  1.0000
  C   C18       1.0  0.6163287155451302  0.5639692530495779  0.05992732668011769  1.0000
  C   C19       1.0  0.11632392419228671  0.9360289223018011  0.5599278315357522  1.0000
  C   C20       1.0  0.1163205469913109  0.4360313875009183  0.940072128059384  1.0000
  C   C21       1.0  0.6978056534867533  0.2018292890449089  0.5077887640819583  1.0000
  C   C22       1.0  0.6977995691639549  0.7018298870068945  0.9922109034263896  1.0000
  C   C23       1.0  0.1977976018506027  0.7981663655673898  0.4922118164718866  1.0000
  C   C24       1.0  0.19779819915964228  0.2981726815375865  0.007789320539202997  1.0000
  C   C25       1.0  0.6229392201558285  0.6468289474658417  0.4037105188275801  1.0000
  C   C26       1.0  0.6229365735419992  0.1468317258583696  0.09628771499257029  1.0000
  C   C27       1.0  0.12293780288241152  0.3531682055501548  0.5962882272902872  1.0000
  C   C28       1.0  0.12293496250435249  0.8531677318095985  0.9037121008814847  1.0000
  C   C29       1.0  0.7784693715874483  0.33215879582481017  0.4878370827795066  1.0000
  C   C30       1.0  0.7784654197871603  0.8321598311166128  0.012164450678646696  1.0000
  C   C31       1.0  0.2784609840754372  0.6678364858897937  0.5121635532706461  1.0000
  C   C32       1.0  0.2784663076046101  0.1678412121942685  0.9878361853717191  1.0000
  C   C33       1.0  0.7958271528869433  0.4692433269367625  0.514399891338499  1.0000
  C   C34       1.0  0.7958251187100486  0.9692496925107434  0.9856019591151718  1.0000
  C   C35       1.0  0.2958221302977436  0.5307507222077703  0.48559968689679056  1.0000
  C   C36       1.0  0.29582690795601957  0.030751270545977104  0.014399402051047597  1.0000
  C   C37       1.0  0.6407603973417862  0.20445668794378946  0.5567572815436606  1.0000
  C   C38       1.0  0.6407552026402641  0.7044573305167037  0.9432391372075696  1.0000
  C   C39       1.0  0.14076011099496813  0.795539230364426  0.4432418334216307  1.0000
  C   C40       1.0  0.14075570345292482  0.2955443494125092  0.05676140409840258  1.0000
  C   C41       1.0  0.5727922272378053  0.0702219385169727  0.5793355803027609  1.0000
  C   C42       1.0  0.5727868102655054  0.5702202970188779  0.9206632998417276  1.0000
  C   C43       1.0  0.07279222575549231  0.929775446318494  0.42066455765883853  1.0000
  C   C44       1.0  0.07278392523667071  0.4297828494475837  0.07933719470095467  1.0000
  C   C45       1.0  0.6520646459644867  0.3453726965804407  0.5835401014469281  1.0000
  C   C46       1.0  0.6520646745608758  0.84538142977852  0.916460234877057  1.0000
  C   C47       1.0  0.1520622600697479  0.6546220171544235  0.41645937788104687  1.0000
  C   C48       1.0  0.15206634669494426  0.15462135018557183  0.08354031421014697  1.0000
  C   C49       1.0  0.7293483599610371  0.47664365794756247  0.5604604460258074  1.0000
  C   C50       1.0  0.7293499875292326  0.9766546747550895  0.939541001441178  1.0000
  C   C51       1.0  0.22934430330457903  0.5233495461983182  0.43953872988657844  1.0000
  C   C52       1.0  0.22935502145134026  0.023346595600173693  0.06046102716356218  1.0000
  C   C53       1.0  0.5173930549370097  0.0739071641642468  0.6263400222676478  1.0000
  C   C54       1.0  0.5173967774139285  0.573909022426726  0.873659176020517  1.0000
  C   C55       1.0  0.0173926144150087  0.9260904767759685  0.37365972099325245  1.0000
  C   C56       1.0  0.0173930071655377  0.4260932277835394  0.1263405672415914  1.0000
  C   C57       1.0  0.5251472243408486  0.2127812704807113  0.6524242889508539  1.0000
  C   C58       1.0  0.5251479465052356  0.7127900664317294  0.8475773983039473  1.0000
  C   C59       1.0  0.0251501649771981  0.7872174869250016  0.34757545964600206  1.0000
  C   C60       1.0  0.025148071053841602  0.28721445257595946  0.15242377663641796  1.0000
  C   C61       1.0  0.5909466742100591  0.3456701145379101  0.6314959132033237  1.0000
  C   C62       1.0  0.5909462306699851  0.8456788914256705  0.8685050942169209  1.0000
  C   C63       1.0  0.09094656157395782  0.6543283386922456  0.3685035240762743  1.0000
  C   C64       1.0  0.09094837684817492  0.15432532340027896  0.13149541282106714  1.0000
  I   I1        1.0  0.24265629757934448  0.07736722994422957  0.26096081249003317  1.0000
  I   I2        1.0  0.24265732292878536  0.5773669062163478  0.23903752252086716  1.0000
  I   I3        1.0  0.7426564963440966  0.9226339789097437  0.7390390857513933  1.0000
  I   I4        1.0  0.7426554709839266  0.4226354549581756  0.7609609493762688  1.0000
  I   I5        1.0  0.8022292183707903  0.8033401701587194  0.20006998028874529  1.0000
  I   I6        1.0  0.8022313201688006  0.3033416106980837  0.29993014576152177  1.0000
  I   I7        1.0  0.3022294423225346  0.19665961097717136  0.799929602352698  1.0000
  I   I8        1.0  0.302230084013722  0.6966604750710843  0.7000697934668165  1.0000
  N   N1        1.0  0.5418132409957152  0.8042360623372956  0.33686343480071196  1.0000
  N   N2        1.0  0.5418153677649472  0.30423647517941527  0.16313544224554014  1.0000
  N   N3        1.0  0.0418162391909576  0.19576377034290715  0.6631370384344137  1.0000
  N   N4        1.0  0.04181822766226869  0.6957633574914368  0.8368646744049356  1.0000
  N   N5        1.0  0.6764958800430635  0.0638494136506225  0.48312049593765477  1.0000
  N   N6        1.0  0.6764933464172599  0.563851596962621  0.0168799216963436  1.0000
  N   N7        1.0  0.17648306729928723  0.9361509487648689  0.516879713367217  1.0000
  N   N8        1.0  0.17648834440552008  0.4361510700869573  0.9831188612651258  1.0000
  Cl  Cl1       1.0  0.7462245640556376  0.649625257357485  0.5914413540844305  1.0000
  Cl  Cl2       1.0  0.7462236200888698  0.1496323605387673  0.9085615606993114  1.0000
  Cl  Cl3       1.0  0.24621857304695283  0.3503713257347698  0.40856032954032867  1.0000
  Cl  Cl4       1.0  0.24622637571768283  0.8503734410970765  0.09143940975528148  1.0000
