data_image0
_chemical_formula_structural       Ni2H32C40N12O12
_chemical_formula_sum              "Ni2 H32 C40 N12 O12"
_cell_length_a       10.82034604731982
_cell_length_b       11.332900018887914
_cell_length_c       12.99913232315708
_cell_angle_alpha    100.03006565375672
_cell_angle_beta     89.98365462198339
_cell_angle_gamma    118.54946349374566

_space_group_name_H-M_alt    "P 1"
_space_group_IT_number       1

loop_
  _space_group_symop_operation_xyz
  'x, y, z'

loop_
  _atom_site_type_symbol
  _atom_site_label
  _atom_site_symmetry_multiplicity
  _atom_site_fract_x
  _atom_site_fract_y
  _atom_site_fract_z
  _atom_site_occupancy
  Ni  Ni1       1.0  0.3168272474297921  0.9999302991062606  0.7500881798039104  1.0000
  Ni  Ni2       1.0  0.6831740895698174  9.723263747219988e-05  0.249925977980638  1.0000
  H   H1        1.0  0.06204490799542142  0.752563027515457  0.7767861564466543  1.0000
  H   H2        1.0  0.6903508566462833  0.7530255298554992  0.2766327129930843  1.0000
  H   H3        1.0  0.9379855194191504  0.24746353531978832  0.22322092349741507  1.0000
  H   H4        1.0  0.3096344003050859  0.2469846345454698  0.7233702823861848  1.0000
  H   H5        1.0  0.9064799001006136  0.5324455773266975  0.6625252103761383  1.0000
  H   H6        1.0  0.6258887252667904  0.5329246078261818  0.1625771981810189  1.0000
  H   H7        1.0  0.0935679979672485  0.46759743247374513  0.3374775027700778  1.0000
  H   H8        1.0  0.374131832165176  0.4671062324131725  0.8374036232207445  1.0000
  H   H9        1.0  0.22895378565011265  0.6354414082344775  0.44370109162650107  1.0000
  H   H10       1.0  0.4060320043819771  0.6351349046411983  0.9435790339863104  1.0000
  H   H11       1.0  0.7710798809948329  0.36458609199493713  0.5563192117408917  1.0000
  H   H12       1.0  0.5939953746677062  0.36493174422260927  0.05641582012084001  1.0000
  H   H13       1.0  0.3687904806388288  0.852056529425809  0.5641396881495808  1.0000
  H   H14       1.0  0.48302906506005855  0.8518822666508111  0.06375914554756427  1.0000
  H   H15       1.0  0.6312544111206149  0.14796384829981693  0.43587258209412744  1.0000
  H   H16       1.0  0.5169614545076726  0.14813288254013912  0.9362653956505368  1.0000
  H   H17       1.0  0.4374606472577083  0.878389223512748  0.8633350646352937  1.0000
  H   H18       1.0  0.44095988750903103  0.8784685447311918  0.3633087260022521  1.0000
  H   H19       1.0  0.5625400014363108  0.12166280155072681  0.1366975205867078  1.0000
  H   H20       1.0  0.5590559808733033  0.12153445644194959  0.6366931512366492  1.0000
  H   H21       1.0  0.667907307240654  0.8781168441854704  0.870339652656007  1.0000
  H   H22       1.0  0.21013342626920212  0.8780752754046547  0.3703932860340373  1.0000
  H   H23       1.0  0.3320551202314164  0.12186246900738953  0.1296739312787807  1.0000
  H   H24       1.0  0.789839208203716  0.12183760324961672  0.6295853430847203  1.0000
  H   H25       1.0  0.9292410859858434  0.052033653900373615  0.9200368544082594  1.0000
  H   H26       1.0  0.12251672157574943  0.0517418368568201  0.4201761913703308  1.0000
  H   H27       1.0  0.07068425966860296  0.9478678347857682  0.0799553940671558  1.0000
  H   H28       1.0  0.8774522787376995  0.9482192004068821  0.5798099309665403  1.0000
  H   H29       1.0  0.15563726957230273  0.04063095757624069  0.9124097959327101  1.0000
  H   H30       1.0  0.8846786034872733  0.0403271975906847  0.41247670339323866  1.0000
  H   H31       1.0  0.8443252398336012  0.9593485114413125  0.08758073347631516  1.0000
  H   H32       1.0  0.11533905324813518  0.9597107781222076  0.5875106135747857  1.0000
  C   C1        1.0  0.0943083121621058  0.7239772833838743  0.7013199013084305  1.0000
  C   C2        1.0  0.6293838039734111  0.7242539867536876  0.2011624998992403  1.0000
  C   C3        1.0  0.9057279336210087  0.27604613452476195  0.2986974587255489  1.0000
  C   C4        1.0  0.37060281962304487  0.27576444817974977  0.7988310120048611  1.0000
  C   C5        1.0  0.007052232701276752  0.5994084383227117  0.6357562682771986  1.0000
  C   C6        1.0  0.5922623394386618  0.5997320587300405  0.13566020093494296  1.0000
  C   C7        1.0  0.9929899788997789  0.4006139723418372  0.3642586264576765  1.0000
  C   C8        1.0  0.4077483173166243  0.40029562131833535  0.8643324386377458  1.0000
  C   C9        1.0  0.047454619191192586  0.5638681687910747  0.5374283634152022  1.0000
  C   C10       1.0  0.5163123091196126  0.5639251425417626  0.037303127041390396  1.0000
  C   C11       1.0  0.9525862455028501  0.43615524535753264  0.4625897647757356  1.0000
  C   C12       1.0  0.4836855578386263  0.43611391402516375  0.9626751289445891  1.0000
  C   C13       1.0  0.18312000144039325  0.6558573107231211  0.5145575873530674  1.0000
  C   C14       1.0  0.472517591369673  0.6557331587052316  0.01433707300159877  1.0000
  C   C15       1.0  0.8169363781474741  0.3441712523894225  0.4854582629268052  1.0000
  C   C16       1.0  0.5274879350407174  0.34431197558370735  0.9856528977662151  1.0000
  C   C17       1.0  0.2655718027548203  0.7792073199059856  0.5834278220752083  1.0000
  C   C18       1.0  0.513431285215134  0.7791502377022398  0.0830657538527291  1.0000
  C   C19       1.0  0.7344632183703507  0.220809954764384  0.4165878130133081  1.0000
  C   C20       1.0  0.486543623681868  0.2208928117687775  0.9169277426535984  1.0000
  C   C21       1.0  0.5195656753253531  0.9317797270378496  0.8138105542080112  1.0000
  C   C22       1.0  0.4122514250056781  0.9318626943511035  0.3137802854589111  1.0000
  C   C23       1.0  0.4804254606680444  0.06823850156347079  0.18621369673653024  1.0000
  C   C24       1.0  0.5877495470194489  0.0681290048051864  0.6862236815830655  1.0000
  C   C25       1.0  0.6476069290340403  0.9316551176787726  0.8164145904541585  1.0000
  C   C26       1.0  0.2840135314658454  0.9317124517926986  0.31647239613255357  1.0000
  C   C27       1.0  0.352366011568911  0.06831195460638637  0.1835893947998741  1.0000
  C   C28       1.0  0.7159604960613208  0.06823831431186281  0.6835159740213755  1.0000
  C   C29       1.0  0.748389409604428  0.9999398032370905  0.749949796976594  1.0000
  C   C30       1.0  0.2515650869450424  0.9999925947242475  0.2500358397715631  1.0000
  C   C31       1.0  0.8845690381943714  9.759306529100474e-06  0.7499274175530957  1.0000
  C   C32       1.0  0.1153906247677909  0.9999307659746253  0.25005782240296526  1.0000
  C   C33       1.0  0.9633837619797774  0.025417983095010803  0.8445637886375863  1.0000
  C   C34       1.0  0.06181043683017149  0.025152294609824804  0.34468463714892283  1.0000
  C   C35       1.0  0.03656895016256821  0.9745123400164389  0.1554129412076719  1.0000
  C   C36       1.0  0.9381637108351055  0.9748005572356959  0.65529867245791  1.0000
  C   C37       1.0  0.0909888313903693  0.024470322256988197  0.841734629835365  1.0000
  C   C38       1.0  0.9332401525507874  0.024192631175125705  0.34176826348030426  1.0000
  C   C39       1.0  0.9089756237211045  0.9754927162070359  0.15825872802872004  1.0000
  C   C40       1.0  0.06674513531359592  0.975789882583385  0.6582281219779418  1.0000
  N   N1        1.0  0.20401089620120413  0.8198714557954715  0.9489581897148938  1.0000
  N   N2        1.0  0.615652018801306  0.8199574998323697  0.44904199798753547  1.0000
  N   N3        1.0  0.7960000223095988  0.18011425419500432  0.0510217655546654  1.0000
  N   N4        1.0  0.3843449665051608  0.18002807600180404  0.5509571703685481  1.0000
  N   N5        1.0  0.2202911279167309  0.8157379631434337  0.674169010319943  1.0000
  N   N6        1.0  0.5952273418802105  0.8158756438739659  0.17388442401208692  1.0000
  N   N7        1.0  0.7797529596524199  0.18428450003632688  0.32583819944211  1.0000
  N   N8        1.0  0.4047631974255879  0.18414877933352608  0.8261338671669023  1.0000
  N   N9        1.0  0.4913055773815386  0.9999775384896735  0.7500347484841967  1.0000
  N   N10       1.0  0.5087059244994592  4.999121499340016e-05  0.2499801770646073  1.0000
  N   N11       1.0  0.14154990218332125  4.787740546419967e-05  0.7499895209910505  1.0000
  N   N12       1.0  0.8584404195973857  0.9999428508970992  0.2500058340563527  1.0000
  O   O1        1.0  0.28864749354688246  0.9483039808372381  0.9547984659098603  1.0000
  O   O2        1.0  0.6592761234449893  0.9483198941798321  0.4547277735091271  1.0000
  O   O3        1.0  0.71136596921761  0.0516868169658693  0.0451876656910244  1.0000
  O   O4        1.0  0.3407583373363464  0.0516777920406497  0.5453025076817823  1.0000
  O   O5        1.0  0.25238593505359563  0.7370173859385574  0.9337098045027474  1.0000
  O   O6        1.0  0.48441073085603387  0.7368594285525134  0.4337362669609419  1.0000
  O   O7        1.0  0.7476199146564041  0.2629692796412755  0.0662803008423936  1.0000
  O   O8        1.0  0.515579459054443  0.26315318661448817  0.5662078736505336  1.0000
  O   O9        1.0  0.07372440903957066  0.7784851376632889  0.9560795148431467  1.0000
  O   O10       1.0  0.7047163450358056  0.7788708054869176  0.4563384463688962  1.0000
  O   O11       1.0  0.9262893759034725  0.2215118446445033  0.04390219389512141  1.0000
  O   O12       1.0  0.29524216756603033  0.22107666885180066  0.5436809544534427  1.0000
