data_image0
_chemical_formula_structural       H28Pb2C28N8Cl4
_chemical_formula_sum              "H28 Pb2 C28 N8 Cl4"
_cell_length_a       4.084239282832607
_cell_length_b       12.801647106095267
_cell_length_c       16.080730765286738
_cell_angle_alpha    97.86508715811095
_cell_angle_beta     89.99921436908845
_cell_angle_gamma    89.99384766736858

_space_group_name_H-M_alt    "P 1"
_space_group_IT_number       1

loop_
  _space_group_symop_operation_xyz
  'x, y, z'

loop_
  _atom_site_type_symbol
  _atom_site_label
  _atom_site_symmetry_multiplicity
  _atom_site_fract_x
  _atom_site_fract_y
  _atom_site_fract_z
  _atom_site_occupancy
  H   H1        1.0  0.7249872041595677  0.7377873119124346  0.7436949865678388  1.0000
  H   H2        1.0  0.724858643642243  0.2621581061133398  0.7562933875777704  1.0000
  H   H3        1.0  0.2750875724633132  0.2621139600107298  0.2562788661477953  1.0000
  H   H4        1.0  0.2751451067282887  0.7378506690202187  0.24372017584162364  1.0000
  H   H5        1.0  0.5833530905164253  0.6017137296892942  0.8365631560983434  1.0000
  H   H6        1.0  0.58330169635434  0.39829177088716966  0.6634840710466253  1.0000
  H   H7        1.0  0.4164768232760706  0.39827869187819687  0.16347110599846815  1.0000
  H   H8        1.0  0.41661146319007963  0.6017106690536239  0.33652572873893405  1.0000
  H   H9        1.0  0.0628799854946891  0.8015101882349143  0.03919631918225263  1.0000
  H   H10       1.0  0.06269343511010558  0.19849518548144832  0.4607453571827025  1.0000
  H   H11       1.0  0.9371457986994686  0.1985163618630779  0.9607792800077208  1.0000
  H   H12       1.0  0.9370703737313377  0.8014890072968868  0.5392501204714935  1.0000
  H   H13       1.0  0.1906598616791726  0.9251764067341098  0.9389466658570742  1.0000
  H   H14       1.0  0.1906050991753006  0.07482268375967038  0.5609586239027069  1.0000
  H   H15       1.0  0.8094051076225953  0.0748033079870041  0.06098989226251211  1.0000
  H   H16       1.0  0.8092566442211151  0.9251764955374213  0.4390390234731073  1.0000
  H   H17       1.0  0.7548899774134767  0.5726198527858912  0.12868366056522976  1.0000
  H   H18       1.0  0.7546106755927156  0.4274215238203922  0.3713455541148748  1.0000
  H   H19       1.0  0.24522394305113693  0.4274356029834435  0.8713521370132897  1.0000
  H   H20       1.0  0.2453245198575473  0.5725809214222509  0.6286648680647036  1.0000
  H   H21       1.0  0.7346079415449155  0.7118824168216664  0.12379014965573995  1.0000
  H   H22       1.0  0.7344200616995951  0.2881459194346975  0.3762085482667389  1.0000
  H   H23       1.0  0.2656210564881718  0.28817051345343714  0.8762279743034116  1.0000
  H   H24       1.0  0.2655420665944703  0.7118557650662609  0.6238049046866225  1.0000
  H   H25       1.0  0.10216390224201179  0.6423886851103688  0.09669416959820153  1.0000
  H   H26       1.0  0.10196269731221719  0.3576430926992487  0.4032532299807203  1.0000
  H   H27       1.0  0.8979647195714905  0.35761827953863445  0.9032937096254589  1.0000
  H   H28       1.0  0.8979529078791231  0.6423698128287895  0.5967812821833078  1.0000
  Pb  Pb1       1.0  0.0303675340520186  0.9999647612216123  0.7500023140564523  1.0000
  Pb  Pb2       1.0  0.9701820267811883  0.9999975213094033  0.2499912410349979  1.0000
  C   C1        1.0  0.7987007554620931  0.747326775787215  0.8095694897616357  1.0000
  C   C2        1.0  0.7986046172871896  0.2526407231174089  0.690413489550352  1.0000
  C   C3        1.0  0.20130790454802389  0.2526202441994627  0.19041033220702996  1.0000
  C   C4        1.0  0.20134771676320903  0.7473640875002656  0.30959717692836364  1.0000
  C   C5        1.0  0.7192467470133082  0.6724223022419125  0.8609881285315242  1.0000
  C   C6        1.0  0.7191624439647059  0.3275754678413989  0.6390199728780248  1.0000
  C   C7        1.0  0.2806615187536893  0.3275636008616515  0.13902245065386157  1.0000
  C   C8        1.0  0.28074337091975826  0.6724238067345211  0.3609882562053812  1.0000
  C   C9        1.0  0.8097251024237907  0.6896464471307269  0.946220059005292  1.0000
  C   C10       1.0  0.8095819129874329  0.3103531524880268  0.5537786418215804  1.0000
  C   C11       1.0  0.19022478154476372  0.3103677809327365  0.053786605196378914  1.0000
  C   C12       1.0  0.19026269176665517  0.6896421746595537  0.4462285577349619  1.0000
  C   C13       1.0  0.982984988162947  0.7822469516876043  0.9743912802834986  1.0000
  C   C14       1.0  0.982839434186559  0.2177555136433398  0.5255618187431141  1.0000
  C   C15       1.0  0.016999174691172004  0.21776782165399317  0.025588699427920913  1.0000
  C   C16       1.0  0.016968445038273196  0.7822358035995194  0.47443750413746244  1.0000
  C   C17       1.0  0.05466602135619781  0.8527374146039791  0.9183005883658527  1.0000
  C   C18       1.0  0.05457765879060619  0.1472544055600693  0.5816397905396757  1.0000
  C   C19       1.0  0.9453475297665861  0.14724406429775172  0.08165667403476112  1.0000
  C   C20       1.0  0.9452889814790452  0.852744024628521  0.41836213259981764  1.0000
  C   C21       1.0  0.7211222378735725  0.6144170809493303  0.004667122398238622  1.0000
  C   C22       1.0  0.7209852114720974  0.3855873876272681  0.4953465616765983  1.0000
  C   C23       1.0  0.2789182353211502  0.385609143263288  0.9953594371233127  1.0000
  C   C24       1.0  0.2788863237453186  0.6144190352133307  0.5046680027176367  1.0000
  C   C25       1.0  0.8339661269298874  0.6358608517155987  0.09403380507644245  1.0000
  C   C26       1.0  0.8337622831141546  0.36415892120655957  0.4059693181186007  1.0000
  C   C27       1.0  0.16615024603829204  0.364176315012223  0.9059833126780676  1.0000
  C   C28       1.0  0.16614597854106708  0.6358475292871475  0.594048358470012  1.0000
  N   N1        1.0  0.9636072455633595  0.8364458724525861  0.8373699283215148  1.0000
  N   N2        1.0  0.9635147504903614  0.16351852289269433  0.6625755630398731  1.0000
  N   N3        1.0  0.036452833079778195  0.16349776674379513  0.16258466923601841  1.0000
  N   N4        1.0  0.0364375836679187  0.8364862594999352  0.337431991132327  1.0000
  N   N5        1.0  0.5420268045009706  0.5344462409439927  0.9724809832905097  1.0000
  N   N6        1.0  0.5419002145213554  0.4655619048690908  0.5275423833713406  1.0000
  N   N7        1.0  0.458087126071412  0.4655563934455386  0.027550602027638118  1.0000
  N   N8        1.0  0.4580153911010285  0.5344516367910188  0.47247540378797503  1.0000
  Cl  Cl1       1.0  0.5363197909194072  0.9024477902044553  0.6391933114710755  1.0000
  Cl  Cl2       1.0  0.5362709681578223  0.09756789263246902  0.8607730154093576  1.0000
  Cl  Cl3       1.0  0.4638504496978797  0.0975903374732141  0.36075612073781843  1.0000
  Cl  Cl4       1.0  0.46397518221551337  0.9024216487604022  0.13920497954765662  1.0000
