data_image0
_chemical_formula_structural       Cd2H26C42N2O8
_chemical_formula_sum              "Cd2 H26 C42 N2 O8"
_cell_length_a       7.917748444685528
_cell_length_b       10.518709548812495
_cell_length_c       11.59765373203793
_cell_angle_alpha    111.63122426609283
_cell_angle_beta     95.8566685551301
_cell_angle_gamma    105.66847025278108

_space_group_name_H-M_alt    "P 1"
_space_group_IT_number       1

loop_
  _space_group_symop_operation_xyz
  'x, y, z'

loop_
  _atom_site_type_symbol
  _atom_site_label
  _atom_site_symmetry_multiplicity
  _atom_site_fract_x
  _atom_site_fract_y
  _atom_site_fract_z
  _atom_site_occupancy
  Cd  Cd1       1.0  0.7415809385797798  0.9815727454257723  0.4598569483949858  1.0000
  Cd  Cd2       1.0  0.25842021948322713  0.0184288784110009  0.5401447498445506  1.0000
  H   H1        1.0  0.6997903393678158  0.24791881476324562  0.588504043360139  1.0000
  H   H2        1.0  0.3002120904495342  0.7520828143023763  0.41149774332141204  1.0000
  H   H3        1.0  0.6305759963400914  0.47575580354324387  0.6720560173252748  1.0000
  H   H4        1.0  0.36942090319638504  0.524244737263345  0.3279424366190326  1.0000
  H   H5        1.0  0.6875106766048161  0.6451263698134541  0.5630993618075593  1.0000
  H   H6        1.0  0.31248959540288723  0.35487311362501134  0.4368972388463206  1.0000
  H   H7        1.0  0.8038193511047069  0.5801617352614626  0.3679956306151412  1.0000
  H   H8        1.0  0.1961800381498122  0.4198355678013641  0.6320018949220908  1.0000
  H   H9        1.0  0.9054758839403262  0.4044667171070415  0.20142976617285058  1.0000
  H   H10       1.0  0.09451969005117894  0.5955305702692402  0.7985674940383304  1.0000
  H   H11       1.0  0.9781518183394978  0.17265358105382228  0.12554296917251404  1.0000
  H   H12       1.0  0.021848013706801294  0.8273447950636805  0.8744566749811823  1.0000
  H   H13       1.0  0.9311236683418469  0.022656741237398095  0.2505791577744318  1.0000
  H   H14       1.0  0.06887787777885293  0.9773427188746813  0.7494218330850373  1.0000
  H   H15       1.0  0.5903799242051875  0.5469437597523166  0.08616952680722523  1.0000
  H   H16       1.0  0.40961913125400423  0.4530589495256194  0.9138306717538853  1.0000
  H   H17       1.0  0.6324770675099884  0.3613721849044608  0.891859295060172  1.0000
  H   H18       1.0  0.3675207152514091  0.638630530566715  0.108139094353497  1.0000
  H   H19       1.0  0.16168210193733049  0.7476502785014957  0.22702274661413196  1.0000
  H   H20       1.0  0.8383177829561462  0.2523513572395686  0.772976282125242  1.0000
  H   H21       1.0  0.6945298874575627  0.7745669812403904  0.775411535585711  1.0000
  H   H22       1.0  0.30546740060833594  0.2254313901304599  0.22458707133124273  1.0000
  H   H23       1.0  0.6243603616533518  0.7700314389581919  0.9793579903907311  1.0000
  H   H24       1.0  0.3756407430907486  0.2299669309660714  0.02064346291041365  1.0000
  H   H25       1.0  0.48996065439880704  0.1263804739733843  0.827628459014164  1.0000
  H   H26       1.0  0.5100417758902722  0.8736211493811865  0.17237418802010032  1.0000
  C   C1        1.0  0.792279326038006  0.28254675109343447  0.4294382498506976  1.0000
  C   C2        1.0  0.20772138970495044  0.7174537939776187  0.5705621901250808  1.0000
  C   C3        1.0  0.7235865681628721  0.3208631705586669  0.5407192396279967  1.0000
  C   C4        1.0  0.27641370573175544  0.6791362900356147  0.4592808024367443  1.0000
  C   C5        1.0  0.6855594429004837  0.4485207949782435  0.5870610317999975  1.0000
  C   C6        1.0  0.31444000061640054  0.5514797505750053  0.4129384593810527  1.0000
  C   C7        1.0  0.7150584408078515  0.543283718900966  0.5251546559349194  1.0000
  C   C8        1.0  0.2849401190123899  0.45671465769873976  0.47484403942405606  1.0000
  C   C9        1.0  0.7803198482323166  0.5075459027844929  0.4160241678234227  1.0000
  C   C10       1.0  0.2196799828705237  0.49245248475511244  0.5839737556248465  1.0000
  C   C11       1.0  0.8197204838400934  0.37682056379918544  0.36493042334272013  1.0000
  C   C12       1.0  0.1802780764518701  0.623177807089469  0.6350691323689688  1.0000
  C   C13       1.0  0.8858947441047603  0.33502099021032444  0.2527302068701757  1.0000
  C   C14       1.0  0.11410254396113838  0.6649773811605258  0.747268400046785  1.0000
  C   C15       1.0  0.9261236589157205  0.2083559093368379  0.21105789566391303  1.0000
  C   C16       1.0  0.07387445999965081  0.791641371363994  0.7889421224894448  1.0000
  C   C17       1.0  0.8978238758765398  0.12219703804239401  0.2804434828751425  1.0000
  C   C18       1.0  0.10217811162075205  0.8778035122575075  0.7195570455426575  1.0000
  C   C19       1.0  0.838870524426646  0.7721909900070116  0.27637268363911716  1.0000
  C   C20       1.0  0.16112936141029618  0.2278106343119575  0.7236280658056912  1.0000
  C   C21       1.0  0.8732146776324898  0.65863040849775  0.16662794913941073  1.0000
  C   C22       1.0  0.1267856491093156  0.341372311720086  0.8333714775110083  1.0000
  C   C23       1.0  0.723940095468734  0.5475504069438556  0.07160047743163019  1.0000
  C   C24       1.0  0.27606023174480027  0.4524523075629288  0.9283998095715019  1.0000
  C   C25       1.0  0.7478821720634342  0.4444081842406433  0.9659568824736481  1.0000
  C   C26       1.0  0.2521164406039773  0.5555934519826167  0.034041197470998  1.0000
  C   C27       1.0  0.9240827080171667  0.44466562880564436  0.9514747046275999  1.0000
  C   C28       1.0  0.07591634744203196  0.5553370804722918  0.0485254939335178  1.0000
  C   C29       1.0  0.04648244637488832  0.6619367235958578  0.15479374207817634  1.0000
  C   C30       1.0  0.9535166086125741  0.33806599139312965  0.8452055961302206  1.0000
  C   C31       1.0  0.637563075238596  0.9550820841728294  0.6694634648070306  1.0000
  C   C32       1.0  0.3624371995994906  0.044917364999349715  0.33053829796313744  1.0000
  C   C33       1.0  0.5972821863113891  0.9526445278161046  0.7913018459851668  1.0000
  C   C34       1.0  0.40271725767723154  0.04735601202609271  0.20869850554860386  1.0000
  C   C35       1.0  0.6355445797248009  0.8507589815267949  0.83386522594391  1.0000
  C   C36       1.0  0.3644556941698269  0.1492404790674868  0.1661348161208309  1.0000
  C   C37       1.0  0.5966945830094801  0.8485666390181663  0.9462338993996652  1.0000
  C   C38       1.0  0.40330696311121267  0.15143282109391273  0.05376709145980389  1.0000
  C   C39       1.0  0.5216380457823178  0.0507799283203667  0.8627791473559583  1.0000
  C   C40       1.0  0.47836394218670353  0.9492206162684906  0.13722224141455525  1.0000
  C   C41       1.0  0.48127524737353866  0.0518114131176617  0.9788447100880262  1.0000
  C   C42       1.0  0.5187233133901614  0.9481869520599416  0.021155705976376254  1.0000
  N   N1        1.0  0.8308807912262492  0.15573682010958825  0.3839473455060655  1.0000
  N   N2        1.0  0.16911992546016558  0.8442637135393695  0.6160548151751469  1.0000
  O   O1        1.0  0.6764618636258887  0.7722161528592081  0.27282868285943346  1.0000
  O   O2        1.0  0.3235375813061907  0.22778437556088693  0.7271733893797645  1.0000
  O   O3        1.0  0.9685811734854112  0.8664927055162295  0.3682955107103466  1.0000
  O   O4        1.0  0.03141744106892468  0.13350890786283998  0.6317060106451606  1.0000
  O   O5        1.0  0.5886821893315499  0.0416855427689242  0.6290658080099973  1.0000
  O   O6        1.0  0.4113193567891427  0.9583139173431616  0.3709351828494788  1.0000
  O   O7        1.0  0.7216704295016639  0.8749948036309546  0.6086691008450343  1.0000
  O   O8        1.0  0.27832984580815884  0.1250046398301805  0.3913335222778541  1.0000
