data_image0
_chemical_formula_structural       Zn2H6C12I2N2O8
_chemical_formula_sum              "Zn2 H6 C12 I2 N2 O8"
_cell_length_a       8.074994274189807
_cell_length_b       8.997418169875777
_cell_length_c       11.923952802104422
_cell_angle_alpha    92.13220802103899
_cell_angle_beta     84.16426332926002
_cell_angle_gamma    91.92319185551654

_space_group_name_H-M_alt    "P 1"
_space_group_IT_number       1

loop_
  _space_group_symop_operation_xyz
  'x, y, z'

loop_
  _atom_site_type_symbol
  _atom_site_label
  _atom_site_symmetry_multiplicity
  _atom_site_fract_x
  _atom_site_fract_y
  _atom_site_fract_z
  _atom_site_occupancy
  Zn  Zn1       1.0  0.6723501636256516  0.5187267723209956  0.4888499291750819  1.0000
  Zn  Zn2       1.0  0.32766778286907783  0.48130661039142814  0.5111226011472638  1.0000
  H   H1        1.0  0.33368056654384054  0.9110327927764105  0.6988032244667011  1.0000
  H   H2        1.0  0.34079396983057103  0.10234435546819749  0.661819617715409  1.0000
  H   H3        1.0  0.20134779686257082  0.9730889757167632  0.6022819435662683  1.0000
  H   H4        1.0  0.6661687871162342  0.0890680803390325  0.30121089167316484  1.0000
  H   H5        1.0  0.7985141046767695  0.026949333218681204  0.3977199142849416  1.0000
  H   H6        1.0  0.6590555205328243  0.8977571236843856  0.3381256515653064  1.0000
  C   C1        1.0  0.48245259144970726  0.7867692836728323  0.5157690450257705  1.0000
  C   C2        1.0  0.543202940141768  0.049646382023794906  0.46617636108985044  1.0000
  C   C3        1.0  0.3270640812684533  0.9875622715387915  0.6298052518806472  1.0000
  C   C4        1.0  0.6727742685582783  0.012516505221917405  0.3701970035083519  1.0000
  C   C5        1.0  0.5172923104300367  0.2132088561682721  0.4842307006702384  1.0000
  C   C6        1.0  0.5105295175883882  0.4992079671001973  0.2795946286718447  1.0000
  C   C7        1.0  0.489802345451146  0.5007449203540232  0.7204067079730266  1.0000
  C   C8        1.0  0.5073777561488556  0.499294420218341  0.158662216174605  1.0000
  C   C9        1.0  0.49291923329536047  0.5005647854531786  0.8413314529353499  1.0000
  C   C10       1.0  0.5027356368456852  0.49978332301143513  0.056417128225575694  1.0000
  C   C11       1.0  0.4975646686047455  0.5000312976997633  0.9435924620742925  1.0000
  C   C12       1.0  0.45657595324928485  0.9503394185917245  0.5338037233272672  1.0000
  I   I1        1.0  0.967702608526416  0.30424956518157836  0.6401747666439875  1.0000
  I   I2        1.0  0.032303934420639294  0.6958166356227691  0.35987386546716493  1.0000
  N   N1        1.0  0.053826855863000796  0.46830847623599686  0.5219227472910717  1.0000
  N   N2        1.0  0.9461685407916534  0.5317472052926674  0.4781223838710815  1.0000
  O   O1        1.0  0.6302262798857472  0.739720773938913  0.4979988938991866  1.0000
  O   O2        1.0  0.3694771971829597  0.2602576895310733  0.5017094780569025  1.0000
  O   O3        1.0  0.3494894318476724  0.7049983032832968  0.5230641705801133  1.0000
  O   O4        1.0  0.6502688582166627  0.2949559917145521  0.47725807099388373  1.0000
  O   O5        1.0  0.6521825367696081  0.519709586901584  0.31667701680046184  1.0000
  O   O6        1.0  0.3482140929763061  0.4798815107096601  0.6832807208930518  1.0000
  O   O7        1.0  0.3701490788514121  0.47894591979495976  0.3370865619752053  1.0000
  O   O8        1.0  0.6300977517628115  0.5214562813211784  0.6629239832090192  1.0000
