data_image0
_chemical_formula_structural       Gd3H6C12N9O15
_chemical_formula_sum              "Gd3 H6 C12 N9 O15"
_cell_length_a       8.478968208588846
_cell_length_b       8.47902024797429
_cell_length_c       9.733480528459172
_cell_angle_alpha    90.00451044490413
_cell_angle_beta     89.99571615637345
_cell_angle_gamma    119.9980770290802

_space_group_name_H-M_alt    "P 1"
_space_group_IT_number       1

loop_
  _space_group_symop_operation_xyz
  'x, y, z'

loop_
  _atom_site_type_symbol
  _atom_site_label
  _atom_site_symmetry_multiplicity
  _atom_site_fract_x
  _atom_site_fract_y
  _atom_site_fract_z
  _atom_site_occupancy
  Gd  Gd1       1.0  0.21841598595069892  0.9999956776491671  0.16664810164458288  1.0000
  Gd  Gd2       1.0  5.660866258276418e-08  0.2184181661265399  0.8333558904557065  1.0000
  Gd  Gd3       1.0  0.7815562260803829  0.7815577052191713  0.5000002940122457  1.0000
  H   H1        1.0  0.2672387202679828  0.3614987803720878  0.038862370938126396  1.0000
  H   H2        1.0  0.6384939724802763  0.9057378430681737  0.7055184856097225  1.0000
  H   H3        1.0  0.09429109303975013  0.7327477133314629  0.3721562818315505  1.0000
  H   H4        1.0  0.9056883016564042  0.6384883208336022  0.294458441396678  1.0000
  H   H5        1.0  0.7328045722246586  0.09433757806927903  0.6278183791132078  1.0000
  H   H6        1.0  0.3614981717357181  0.2671904183075995  0.9611232477954914  1.0000
  C   C1        1.0  0.036646660318645274  0.6953741153813625  0.9001992390609171  1.0000
  C   C2        1.0  0.304624441585382  0.34127772124023903  0.5668997239103247  1.0000
  C   C3        1.0  0.6587403475775914  0.9633828656238563  0.2335879057891503  1.0000
  C   C4        1.0  0.34128195963921826  0.3046176877212261  0.4331105828639323  1.0000
  C   C5        1.0  0.96335486925188  0.6587273253148427  0.7664220308169047  1.0000
  C   C6        1.0  0.6953831458677868  0.03665387891182792  0.09980813442773238  1.0000
  C   C7        1.0  0.09568239002432222  0.6079152298245205  0.005516379048358999  1.0000
  C   C8        1.0  0.39211591944167157  0.48777429205501477  0.6722311390608837  1.0000
  C   C9        1.0  0.5122407736601386  0.9043097276744163  0.3388952404566509  1.0000
  C   C10       1.0  0.4877630990373731  0.39211728961370806  0.3277713530205943  1.0000
  C   C11       1.0  0.904309274209169  0.5122357070600788  0.6611050945204935  1.0000
  C   C12       1.0  0.6079277745605933  0.0956782586500751  0.9944878627651477  1.0000
  N   N1        1.0  0.05665701330573811  0.8588040023559246  0.936796475024991  1.0000
  N   N2        1.0  0.1412117410031541  0.1978611039101636  0.6035119068614349  1.0000
  N   N3        1.0  0.8021431430202667  0.9433696461686552  0.2702025110539451  1.0000
  N   N4        1.0  0.19788423541668004  0.1411883663706917  0.39650917070996866  1.0000
  N   N5        1.0  0.9433272128176923  0.8021233502431571  0.7298107207552462  1.0000
  N   N6        1.0  0.8588322126215857  0.05670308928755244  0.0632204620028745  1.0000
  N   N7        1.0  7.462178551505524e-06  0.9201744807784281  0.833294821267941  1.0000
  N   N8        1.0  0.07984792066857692  0.0798195872846819  0.5000114112803615  1.0000
  N   N9        1.0  0.9202073832695278  6.774410024246067e-05  0.1667241790021095  1.0000
  O   O1        1.0  0.24519871093124118  0.245189356991645  0.9999890680682952  1.0000
  O   O2        1.0  0.7547993057037274  2.5938199357382264e-05  0.6666617633781653  1.0000
  O   O3        1.0  6.488158248725713e-06  0.7547820342617938  0.3333138006979651  1.0000
  O   O4        1.0  0.07252773532436411  0.4494504156799053  0.9878129139458593  1.0000
  O   O5        1.0  0.5505434255707796  0.6231113593533807  0.6545031442625842  1.0000
  O   O6        1.0  0.3768781624668947  0.9273852883315288  0.3211709451388529  1.0000
  O   O7        1.0  0.623095623668455  0.5505444983445714  0.34549677248817545  1.0000
  O   O8        1.0  0.9273817550402158  0.376875922332147  0.6788199499320129  1.0000
  O   O9        1.0  0.44945031231777227  0.07252804069755577  0.012182796129764  1.0000
  O   O10       1.0  0.16749969597012176  0.701080035377764  0.11321766536538289  1.0000
  O   O11       1.0  0.2989448793358064  0.4664705064525094  0.7799328558675569  1.0000
  O   O12       1.0  0.5335299517159482  0.8324534023136039  0.44658118953517345  1.0000
  O   O13       1.0  0.4664500464978119  0.2989483455272008  0.2200653296203896  1.0000
  O   O14       1.0  0.8324708379138882  0.5335402565932484  0.553406729588687  1.0000
  O   O15       1.0  0.7010560847729651  0.16747473617392938  0.8867806971911207  1.0000
