data_image0
_chemical_formula_structural       Zn4H32C46N22Cl6
_chemical_formula_sum              "Zn4 H32 C46 N22 Cl6"
_cell_length_a       14.86433041436262
_cell_length_b       14.636357859900972
_cell_length_c       14.98827068737755
_cell_angle_alpha    112.53343125470109
_cell_angle_beta     110.34636026442209
_cell_angle_gamma    103.89984510019545

_space_group_name_H-M_alt    "P 1"
_space_group_IT_number       1

loop_
  _space_group_symop_operation_xyz
  'x, y, z'

loop_
  _atom_site_type_symbol
  _atom_site_label
  _atom_site_symmetry_multiplicity
  _atom_site_fract_x
  _atom_site_fract_y
  _atom_site_fract_z
  _atom_site_occupancy
  Zn  Zn1       1.0  0.9996983970462168  0.13161565942853307  0.12981853412302502  1.0000
  Zn  Zn2       1.0  0.1354154575260437  0.9855941215133798  0.1265968916529446  1.0000
  Zn  Zn3       1.0  0.00440387199423497  0.850957247803848  0.8548965076599943  1.0000
  Zn  Zn4       1.0  0.8668536139976412  0.9990045035583751  0.8653977965683879  1.0000
  H   H1        1.0  0.17001306464557336  0.35308267172737845  0.18726956821360127  1.0000
  H   H2        1.0  0.46597205500521  0.41981949448758377  0.19811759495021164  1.0000
  H   H3        1.0  0.9489508980238314  0.04801337840044792  0.4428494365384594  1.0000
  H   H4        1.0  0.5023248324571838  0.7278909270288169  0.8285305390416937  1.0000
  H   H5        1.0  0.3315831089788047  0.7048392439623753  0.8245634309681122  1.0000
  H   H6        1.0  0.4977428445077903  0.9497061190971436  0.17215770412368409  1.0000
  H   H7        1.0  0.6678771958560574  0.9712326111383263  0.1769362048451271  1.0000
  H   H8        1.0  0.20596030385777203  0.0200202305967636  0.3872053739341084  1.0000
  H   H9        1.0  0.16385809517897337  0.9777531415735369  0.7999486668980184  1.0000
  H   H10       1.0  0.6557807126747264  0.8356213716305447  0.6195447534758785  1.0000
  H   H11       1.0  0.33351288699284243  0.9180172171493908  0.16692049617418556  1.0000
  H   H12       1.0  0.8278511540999958  0.008342501033560296  0.17981134932799836  1.0000
  H   H13       1.0  0.19114441578420832  0.7713402505811827  0.8113120562926213  1.0000
  H   H14       1.0  0.6563318708409227  0.8161417207674546  0.8203534656189292  1.0000
  H   H15       1.0  0.9418970204717851  0.3464289039484072  0.18620467880673158  1.0000
  H   H16       1.0  0.9764528637293567  0.8487613431294392  0.17789569728003574  1.0000
  H   H17       1.0  0.9945790045004089  0.18006864671379222  0.8408214845616371  1.0000
  H   H18       1.0  0.8215752254437874  0.6296992959906264  0.6057443986153785  1.0000
  H   H19       1.0  0.8537974934938359  0.9752156349916276  0.5153735787452404  1.0000
  H   H20       1.0  0.9095271081041431  0.995595097334359  0.6438422836747009  1.0000
  H   H21       1.0  0.725064289260665  0.6503030183157392  0.40548844221544306  1.0000
  H   H22       1.0  0.6479525476185656  0.5508494797321289  0.27051105073618226  1.0000
  H   H23       1.0  0.3155245809197282  0.21688168825023274  0.5738077141705844  1.0000
  H   H24       1.0  0.8894885650807823  0.5371466499035975  0.9717520013929644  1.0000
  H   H25       1.0  0.3766204444795775  0.24303091436878788  0.7066934983834087  1.0000
  H   H26       1.0  0.37508780799068114  0.4358192669055185  0.5225187814921172  1.0000
  H   H27       1.0  0.29361697568291584  0.3371432359685542  0.38603590944553184  1.0000
  H   H28       1.0  0.7750523232199099  0.1307982655545317  0.7509612176271219  1.0000
  H   H29       1.0  0.7220274888928628  0.2187074909394653  0.7883845073637942  1.0000
  H   H30       1.0  0.8965125579169919  0.600779174952777  0.7705256493669876  1.0000
  H   H31       1.0  0.7757796456674201  0.3814119428165981  0.9297326017632557  1.0000
  H   H32       1.0  0.8210332519083182  0.5304129849142782  0.804654549308232  1.0000
  C   C1        1.0  0.20189307453535574  0.29280809073652136  0.18096921285088288  1.0000
  C   C2        1.0  0.6992350281147068  0.8894111927770467  0.0008628399958682273  1.0000
  C   C3        1.0  0.30266008113247267  0.8348306530760041  0.9909442731173003  1.0000
  C   C4        1.0  0.8366030517061489  0.29861330685438503  0.009782161304833914  1.0000
  C   C5        1.0  0.8987899437712275  0.6965006745825946  0.009675439983830558  1.0000
  C   C6        1.0  0.8402449256728062  0.581472629141615  0.08837972918985337  1.0000
  C   C7        1.0  0.8337044182296083  0.48391054297589875  0.09638923399624841  1.0000
  C   C8        1.0  0.1621631153110741  0.0661256167816546  0.3690917253664026  1.0000
  C   C9        1.0  0.8727412942932204  0.6015384562470771  0.020749779296352095  1.0000
  C   C10       1.0  0.8111404926170278  0.3871614356814916  0.010239372725216337  1.0000
  C   C11       1.0  0.011542101358060096  0.0781241171793923  0.6092595808231849  1.0000
  C   C12       1.0  0.5777892986141211  0.5510983940089816  0.3670287900724105  1.0000
  C   C13       1.0  0.020751481033499893  0.0843398405856206  0.521937809357226  1.0000
  C   C14       1.0  0.4819163723242212  0.4578337674798902  0.2837471663328799  1.0000
  C   C15       1.0  0.11915105650773229  0.1306331259361926  0.5300364720610417  1.0000
  C   C16       1.0  0.4059241484860435  0.4118930132810447  0.30724663847748696  1.0000
  C   C17       1.0  0.21410774558541587  0.17793683989193448  0.630761549274922  1.0000
  C   C18       1.0  0.4233746723867853  0.4585477675498879  0.4174966485568277  1.0000
  C   C19       1.0  0.20404989911516222  0.1696080181762909  0.7177961898522938  1.0000
  C   C20       1.0  0.5205552128984365  0.5500887295725292  0.4999338324128217  1.0000
  C   C21       1.0  0.1161769637167538  0.019727821194997802  0.8192838498173103  1.0000
  C   C22       1.0  0.7128047990745402  0.8008703102816813  0.631828552897936  1.0000
  C   C23       1.0  0.10581212619958079  0.1197638579981302  0.7094025642183226  1.0000
  C   C24       1.0  0.0935343271709357  0.09699174262522091  0.7930611472778182  1.0000
  C   C25       1.0  0.5979445769065778  0.5975998397757537  0.47772619172702246  1.0000
  C   C26       1.0  0.5022062217629184  0.7767558244051358  0.9047103641023141  1.0000
  C   C27       1.0  0.4053789529768748  0.7640792560669779  0.9022498066495996  1.0000
  C   C28       1.0  0.40112551756455866  0.8291112946192599  0.9968934408114194  1.0000
  C   C29       1.0  0.5991219280209987  0.8550445486973786  0.0021419413803017077  1.0000
  C   C30       1.0  0.6980170823994667  0.6932859310730989  0.5697653213129427  1.0000
  C   C31       1.0  0.49796645926882366  0.8989778769243839  0.09672278752782401  1.0000
  C   C32       1.0  0.5944884384961993  0.9112853677253411  0.09931281404173828  1.0000
  C   C33       1.0  0.28344947393620157  0.8839753314450649  0.07886675178897944  1.0000
  C   C34       1.0  0.8004960742816962  0.9685349191239612  0.09145635349327828  1.0000
  C   C35       1.0  0.8127056157823631  0.20259222770869914  0.9136284921845501  1.0000
  C   C36       1.0  0.898815825115825  0.693626233886306  0.9139481400593397  1.0000
  C   C37       1.0  0.21068715732221224  0.8088382511999657  0.8977231808633662  1.0000
  C   C38       1.0  0.7131937153279253  0.8699157233429347  0.9081645767369222  1.0000
  C   C39       1.0  0.9038037364794463  0.2907381816489476  0.09760933983616137  1.0000
  C   C40       1.0  0.9547364373723323  0.8089586997139976  0.09095399765310944  1.0000
  C   C41       1.0  0.029781271692009195  0.1229475671790894  0.8400240547906037  1.0000
  C   C42       1.0  0.7975500034151111  0.6961416146796183  0.6250223737379272  1.0000
  C   C43       1.0  0.299588046771504  0.2021451960484413  0.19067735683597678  1.0000
  C   C44       1.0  0.0698282019074341  0.1622037644840475  0.36424716588773975  1.0000
  C   C45       1.0  0.30845015376888085  0.3091704197573861  0.22394293744807917  1.0000
  C   C46       1.0  0.12089334293474249  0.12404150537606985  0.4303088027326253  1.0000
  N   N1        1.0  0.13653796932766937  0.1852912083892164  0.1278497052909771  1.0000
  N   N2        1.0  0.8675006384627719  0.9945105616326799  0.05453087541459914  1.0000
  N   N3        1.0  0.18878520281769065  0.8877927875983218  0.04143877332514019  1.0000
  N   N4        1.0  0.86163946833949  0.1446057800647367  0.9431548108382445  1.0000
  N   N5        1.0  0.9491389483476665  0.796110635771086  0.9374089006252998  1.0000
  N   N6        1.0  0.14322268393936355  0.8406513147434753  0.9281720465501451  1.0000
  N   N7        1.0  0.8141675475672587  0.9339664935225828  0.9419562889247216  1.0000
  N   N8        1.0  0.1369891815117299  0.06974599557253919  0.2753044239280982  1.0000
  N   N9        1.0  0.9193096928434841  0.2008672647595304  0.05805169052882059  1.0000
  N   N10       1.0  0.987153782346276  0.8669986114601047  0.04796161740067361  1.0000
  N   N11       1.0  0.013187111019675495  0.0629369624023397  0.8871369348306856  1.0000
  N   N12       1.0  0.8659849356775168  0.7970667575264727  0.7137724604658472  1.0000
  N   N13       1.0  0.1967465618855115  0.12843096163172163  0.13332291128852353  1.0000
  N   N14       1.0  0.0793747147629489  0.1300748628464987  0.2724522545120749  1.0000
  N   N15       1.0  0.9102778770875021  0.029523937590077817  0.5959372574587292  1.0000
  N   N16       1.0  0.6498417086477702  0.6004701015697053  0.3411678092426911  1.0000
  N   N17       1.0  0.31219955970607327  0.2341735266595677  0.6445500705340875  1.0000
  N   N18       1.0  0.34733237233417913  0.4163291347031405  0.4424105937444765  1.0000
  N   N19       1.0  0.7478894389687553  0.1650679490870886  0.8028255761153743  1.0000
  N   N20       1.0  0.8521450237195863  0.6027522791733375  0.8090817527260796  1.0000
  N   N21       1.0  0.06642190832928922  0.9994535721170552  0.8743970517798871  1.0000
  N   N22       1.0  0.8128619064773304  0.8626210589582187  0.7177601110544317  1.0000
  Cl  Cl1       1.0  0.3203244772893399  0.2226390318170957  0.8406858565111577  1.0000
  Cl  Cl2       1.0  0.8761935127738737  0.5038274233942986  0.22935210476727969  1.0000
  Cl  Cl3       1.0  0.8119636622481679  0.67594364336356  0.17384988249296646  1.0000
  Cl  Cl4       1.0  0.5468698508548684  0.6018226247212369  0.636869104713  1.0000
  Cl  Cl5       1.0  0.4013215454748221  0.16416399320409877  0.21963589916443738  1.0000
  Cl  Cl6       1.0  0.000963001053556001  0.23906953065107936  0.3863195025565247  1.0000
