data_image0
_chemical_formula_structural       Nd4H12C4S4O28
_chemical_formula_sum              "Nd4 H12 C4 S4 O28"
_cell_length_a       6.962799361647553
_cell_length_b       6.962435130640686
_cell_length_c       11.614312279000423
_cell_angle_alpha    90.00003095157469
_cell_angle_beta     90.00000281691752
_cell_angle_gamma    90.00249017864242

_space_group_name_H-M_alt    "P 1"
_space_group_IT_number       1

loop_
  _space_group_symop_operation_xyz
  'x, y, z'

loop_
  _atom_site_type_symbol
  _atom_site_label
  _atom_site_symmetry_multiplicity
  _atom_site_fract_x
  _atom_site_fract_y
  _atom_site_fract_z
  _atom_site_occupancy
  Nd  Nd1       1.0  0.6387585383551979  0.11293172816020561  0.9953331694612758  1.0000
  Nd  Nd2       1.0  0.36124038258297725  0.8870626633802489  0.4953321018086569  1.0000
  Nd  Nd3       1.0  0.8870781092238715  0.6387300691075523  0.7453546159830894  1.0000
  Nd  Nd4       1.0  0.11292508632974571  0.3612727180992438  0.24535423423530744  1.0000
  H   H1        1.0  0.1547385379329214  0.019461060686786904  0.9486993100620397  1.0000
  H   H2        1.0  0.845260377034272  0.9805519610529674  0.44870860993769673  1.0000
  H   H3        1.0  0.9805012827919981  0.1546385219300106  0.6986268455563547  1.0000
  H   H4        1.0  0.0195019063717368  0.8453642237595391  0.19862576085476039  1.0000
  H   H5        1.0  0.4679551985459298  0.38221733661034574  0.8180261153077879  1.0000
  H   H6        1.0  0.532045134350426  0.6177768974281433  0.3180284049280928  1.0000
  H   H7        1.0  0.6176640697939246  0.4679132019454003  0.5680474890834759  1.0000
  H   H8        1.0  0.3823391015763207  0.532092300286756  0.0680514711079709  1.0000
  H   H9        1.0  0.4059039670664292  0.18206329155157164  0.7677097150601924  1.0000
  H   H10       1.0  0.5940949227455262  0.8179308977510902  0.2677137930309996  1.0000
  H   H11       1.0  0.8178279031416694  0.4059478365504107  0.517732834825793  1.0000
  H   H12       1.0  0.18218387860306254  0.5940590574437226  0.0177351132212564  1.0000
  C   C1        1.0  0.14752766449631594  0.1026483439933727  0.0291425093478352  1.0000
  C   C2        1.0  0.8524668843925414  0.8973599960437326  0.5291481417258126  1.0000
  C   C3        1.0  0.8974124243811871  0.14743668297074927  0.7791008296440722  1.0000
  C   C4        1.0  0.1025936481948975  0.8525661342808565  0.2790988871164188  1.0000
  S   S1        1.0  0.751779963718306  0.6154849515489647  0.0568782034366109  1.0000
  S   S2        1.0  0.24821458868240137  0.3845104866170743  0.5568793564388841  1.0000
  S   S3        1.0  0.3844623174882145  0.7515920267801094  0.8067969269384178  1.0000
  S   S4        1.0  0.6155351414954853  0.24840363349566993  0.3067939300404277  1.0000
  O   O1        1.0  0.9836450373273918  0.1522023812437894  0.0689218893971955  1.0000
  O   O2        1.0  0.0163452082645534  0.8478002489265892  0.568927497294368  1.0000
  O   O3        1.0  0.8479131345611536  0.9834778837101514  0.8188605313307634  1.0000
  O   O4        1.0  0.1520986881740711  0.016520660154178298  0.3188565927291691  1.0000
  O   O5        1.0  0.8703295416921577  0.6584815076766191  0.9544225296383573  1.0000
  O   O6        1.0  0.12966793757257017  0.34151859260152423  0.4544238635816528  1.0000
  O   O7        1.0  0.3413241878813338  0.8700768864010587  0.7043113257323554  1.0000
  O   O8        1.0  0.6586660760057936  0.12991581010373213  0.20430915135491293  1.0000
  O   O9        1.0  0.8737035082346551  0.543583205712615  0.151024102355656  1.0000
  O   O10       1.0  0.1262982381223807  0.45641518881584636  0.6510269997866658  1.0000
  O   O11       1.0  0.45624501139944573  0.8736687353235412  0.9009032511560092  1.0000
  O   O12       1.0  0.543752460515492  0.1263298811240077  0.4009036574919662  1.0000
  O   O13       1.0  0.6553973073988644  0.793357420199591  0.0967411176227628  1.0000
  O   O14       1.0  0.34459868675029537  0.20664236225179175  0.5967404911473437  1.0000
  O   O15       1.0  0.20671274834045048  0.6549567564951249  0.8466270774003845  1.0000
  O   O16       1.0  0.7932890245455583  0.34503175786553447  0.3466198089465919  1.0000
  O   O17       1.0  0.6059531482503572  0.46434211721503266  0.027497187295125503  1.0000
  O   O18       1.0  0.39404858115229763  0.5356532950018932  0.5274966693489915  1.0000
  O   O19       1.0  0.5357416961118915  0.6058618106053117  0.777459824482456  1.0000
  O   O20       1.0  0.46425863129923783  0.3941352599468716  0.2774577349625176  1.0000
  O   O21       1.0  0.30157725568502514  0.14479501979356973  0.08160623466511652  1.0000
  O   O22       1.0  0.6984072468879106  0.8552104940794863  0.5816109906834016  1.0000
  O   O23       1.0  0.8553263770761887  0.30141352697146556  0.8316377579250726  1.0000
  O   O24       1.0  0.14467539404110144  0.698587900585956  0.3316366262527666  1.0000
  O   O25       1.0  0.44079221309541344  0.24705571144522764  0.8397639276408526  1.0000
  O   O26       1.0  0.5592109951190594  0.752935669411315  0.3397662619127644  1.0000
  O   O27       1.0  0.752803091171785  0.4406613195671982  0.5898034010706611  1.0000
  O   O28       1.0  0.2472015193459214  0.5593427657446314  0.0898022246778183  1.0000
