data_image0
_chemical_formula_structural       Zn8H60C60N12O26
_chemical_formula_sum              "Zn8 H60 C60 N12 O26"
_cell_length_a       15.397739196610903
_cell_length_b       15.655372797368951
_cell_length_c       17.112025379236233
_cell_angle_alpha    64.25578033906481
_cell_angle_beta     63.58767110829398
_cell_angle_gamma    62.14673863430169

_space_group_name_H-M_alt    "P 1"
_space_group_IT_number       1

loop_
  _space_group_symop_operation_xyz
  'x, y, z'

loop_
  _atom_site_type_symbol
  _atom_site_label
  _atom_site_symmetry_multiplicity
  _atom_site_fract_x
  _atom_site_fract_y
  _atom_site_fract_z
  _atom_site_occupancy
  Zn  Zn1       1.0  0.027510023443497296  0.029962682518416314  0.08077759930787211  1.0000
  Zn  Zn2       1.0  0.8318588386967818  0.029740416267422635  0.04330066664319083  1.0000
  Zn  Zn3       1.0  0.0340638276221767  0.8253132011565258  0.05445035067813108  1.0000
  Zn  Zn4       1.0  0.0343619501026069  0.02000929141670581  0.9039260807772038  1.0000
  Zn  Zn5       1.0  0.39448078462964986  0.40785037424087295  0.5198988127065788  1.0000
  Zn  Zn6       1.0  0.6163847599755954  0.3989955759683357  0.48072114704790897  1.0000
  Zn  Zn7       1.0  0.43635795424298607  0.40728896327635067  0.6802055583584377  1.0000
  Zn  Zn8       1.0  0.4151981764863919  0.6033467994496248  0.5012949405452362  1.0000
  H   H1        1.0  0.9699619965406682  0.8518115265154911  0.30128904679926194  1.0000
  H   H2        1.0  0.8880113360623908  0.943127307760051  0.34682854422499104  1.0000
  H   H3        1.0  0.7740575217520416  0.832676686398827  0.43715428730523354  1.0000
  H   H4        1.0  0.8569624955586121  0.7685975014066815  0.35308814706336017  1.0000
  H   H5        1.0  0.8126162423411287  0.9319227745932681  0.23305185759702596  1.0000
  H   H6        1.0  0.6595232051361178  0.9171196011184437  0.2530565440088139  1.0000
  H   H7        1.0  0.6384673334256661  0.8600366780739537  0.3639416943790295  1.0000
  H   H8        1.0  0.5877404790557746  0.9591256819943158  0.4459140352191183  1.0000
  H   H9        1.0  0.5074002204421789  0.10962395285076813  0.5027837639778668  1.0000
  H   H10       1.0  0.7248815584555713  0.2432254971759704  0.277784609584991  1.0000
  H   H11       1.0  0.3943347207373477  0.9392854310623378  0.9481516393539592  1.0000
  H   H12       1.0  0.42588394301662186  0.8576939018762106  0.0392689885158502  1.0000
  H   H13       1.0  0.5367695927455642  0.7317872602825378  0.9496381659779091  1.0000
  H   H14       1.0  0.4728477332962626  0.8203442303807479  0.8679107556857275  1.0000
  H   H15       1.0  0.30540759503931986  0.8086058037681454  0.9783059892000241  1.0000
  H   H16       1.0  0.3423740143183593  0.6405887650466158  0.9834307717471803  1.0000
  H   H17       1.0  0.4659219660703044  0.6115641345985312  0.9639868367184761  1.0000
  H   H18       1.0  0.5112950469843013  0.5941745469011083  0.07634212389567824  1.0000
  H   H19       1.0  0.4926343686498242  0.5231484259310761  0.24109298104855997  1.0000
  H   H20       1.0  0.2007937787025611  0.7597524291605354  0.29770767513172564  1.0000
  H   H21       1.0  0.7316897723550823  0.43507561183822213  0.009830562196477058  1.0000
  H   H22       1.0  0.7901390817921551  0.5146445231991024  0.932895235471648  1.0000
  H   H23       1.0  0.7402721046828588  0.517797631400413  0.8165151352451404  1.0000
  H   H24       1.0  0.6755415404354608  0.4331764924176369  0.8988561411243128  1.0000
  H   H25       1.0  0.8345552759064176  0.30006929063054605  0.9217562117045477  1.0000
  H   H26       1.0  0.8926099343662128  0.2698709522303064  0.7805857210865668  1.0000
  H   H27       1.0  0.838560749880024  0.38886325246546266  0.7299387801265668  1.0000
  H   H28       1.0  0.8920314240377107  0.5271549390674083  0.7347790499423114  1.0000
  H   H29       1.0  0.0654958964695709  0.5418251439343538  0.6605080283776632  1.0000
  H   H30       1.0  0.18300792375431735  0.2632050743873791  0.8520304791893312  1.0000
  H   H31       1.0  0.9148842646766724  0.6357723071379909  0.9030890016216446  1.0000
  H   H32       1.0  0.932277036325786  0.7180155435957334  0.9245862621255798  1.0000
  H   H33       1.0  0.7319212372634566  0.720728249605145  0.9411101856737789  1.0000
  H   H34       1.0  0.7925669156012773  0.8074285267718511  0.8519447257131391  1.0000
  H   H35       1.0  0.7911686750906098  0.865701163213899  0.9662947088864945  1.0000
  H   H36       1.0  0.6157829792760481  0.9686952716398881  0.9855598316146511  1.0000
  H   H37       1.0  0.5902078854656806  0.8943557905324869  0.9598311116928712  1.0000
  H   H38       1.0  0.5876879484280195  0.7451180031002738  0.07634031446009727  1.0000
  H   H39       1.0  0.5384760143942345  0.6522059005343764  0.23837912724251709  1.0000
  H   H40       1.0  0.7795967612051982  0.6862272624937591  0.2740657067802063  1.0000
  H   H41       1.0  0.8501292592939009  0.9227357703201594  0.491655096878681  1.0000
  H   H42       1.0  0.794736767889475  0.04615330545713199  0.4678345034799066  1.0000
  H   H43       1.0  0.739550912986054  0.8980011279619691  0.6444387100734447  1.0000
  H   H44       1.0  0.6588822236996421  0.9725019700231883  0.5739049035811237  1.0000
  H   H45       1.0  0.6445642608633049  0.12764380757869281  0.5876219405485588  1.0000
  H   H46       1.0  0.5261241809434267  0.10702476149718626  0.7301541169328517  1.0000
  H   H47       1.0  0.5898623270044823  0.9888666730138668  0.7685766703223254  1.0000
  H   H48       1.0  0.8420752122684904  0.9096995780817001  0.685372439111802  1.0000
  H   H49       1.0  0.924853252914353  0.9099133293811553  0.7808384285483995  1.0000
  H   H50       1.0  0.7189502826639825  0.21149234171978287  0.7865493158805635  1.0000
  H   H51       1.0  0.5320562901266257  0.7620954692733264  0.4553472048732631  1.0000
  H   H52       1.0  0.4758719805950804  0.8389906931686825  0.5188325337156814  1.0000
  H   H53       1.0  0.6368994360282726  0.776677571375622  0.5553601061613235  1.0000
  H   H54       1.0  0.6853961018778064  0.6875346204725475  0.4965787536286044  1.0000
  H   H55       1.0  0.5575609100217066  0.6090053859802539  0.6032331252301051  1.0000
  H   H56       1.0  0.6194871521237033  0.5377240923224207  0.7264632800567272  1.0000
  H   H57       1.0  0.644590792022406  0.6363089911016006  0.7082645194060364  1.0000
  H   H58       1.0  0.5175586921152657  0.8258930993857448  0.6744665213412804  1.0000
  H   H59       1.0  0.3536814702281532  0.9072831305468869  0.7782369111111366  1.0000
  H   H60       1.0  0.2275883320484056  0.6935463478788009  0.8158213563919576  1.0000
  C   C1        1.0  0.8251403651856888  0.8418484983216957  0.36629720986611164  1.0000
  C   C2        1.0  0.7581800482186267  0.9182559963912742  0.3022543568496726  1.0000
  C   C3        1.0  0.7008177407788097  0.016143389979163137  0.3287965621568461  1.0000
  C   C4        1.0  0.6173686925387186  0.021771384023871628  0.4087059851932723  1.0000
  C   C5        1.0  0.5722810351743846  0.10530849075935589  0.4407162975082955  1.0000
  C   C6        1.0  0.6132257713499456  0.18383076670114917  0.3953045377806676  1.0000
  C   C7        1.0  0.6946179907971484  0.1811499009986051  0.3137907815633414  1.0000
  C   C8        1.0  0.735056762199001  0.09964809828539249  0.27927537430016264  1.0000
  C   C9        1.0  0.8137315332265372  0.09834680531355396  0.1873131939545729  1.0000
  C   C10       1.0  0.5702046039547071  0.2683664308615264  0.4348784522494072  1.0000
  C   C11       1.0  0.46404464046568705  0.7932802030561847  0.9410395092246802  1.0000
  C   C12       1.0  0.37642369944924786  0.7480625261735555  0.99177207795573  1.0000
  C   C13       1.0  0.3615524986554632  0.7111991047629402  0.09343150346405342  1.0000
  C   C14       1.0  0.4415809782017277  0.6292958662031372  0.1247322325219996  1.0000
  C   C15       1.0  0.4327633854893307  0.59030311165958  0.21655856780515842  1.0000
  C   C16       1.0  0.3473887703262832  0.6391401610828781  0.2787780950995539  1.0000
  C   C17       1.0  0.2681828717110761  0.7230974214290099  0.24898253158698228  1.0000
  C   C18       1.0  0.2729196850677553  0.7556684372047686  0.15717333417461518  1.0000
  C   C19       1.0  0.1763539263290568  0.8274651943706887  0.13044648617271565  1.0000
  C   C20       1.0  0.34817777301383046  0.5940055624819467  0.3752628454416325  1.0000
  C   C21       1.0  0.7424273082391154  0.4547700755736345  0.8795785586275854  1.0000
  C   C22       1.0  0.8388853523178453  0.36308415006526934  0.8587954166088212  1.0000
  C   C23       1.0  0.9400880341072196  0.38041507698608257  0.8289071249955314  1.0000
  C   C24       1.0  0.955503265524662  0.46824515944717154  0.7607474019608349  1.0000
  C   C25       1.0  0.0524110651805216  0.4780529473868924  0.7194832464659912  1.0000
  C   C26       1.0  0.1349633856318917  0.40394484826396854  0.7521270367129702  1.0000
  C   C27       1.0  0.1189740754788886  0.3212837974301196  0.8266211435277385  1.0000
  C   C28       1.0  0.0240430244323591  0.3069896848236199  0.8612323362115648  1.0000
  C   C29       1.0  0.025487052173645008  0.20154839849220715  0.9149901108560957  1.0000
  C   C30       1.0  0.2419456630445822  0.4040711466837124  0.6984698913519056  1.0000
  C   C31       1.0  0.7844659119209183  0.7602919981547204  0.9233674690275466  1.0000
  C   C32       1.0  0.7334743825477759  0.8332262556388557  0.9816347356106192  1.0000
  C   C33       1.0  0.7066401092356642  0.7759782610779667  0.08275505660522241  1.0000
  C   C34       1.0  0.6291869133619059  0.7338469032590853  0.11967266930761847  1.0000
  C   C35       1.0  0.6024631427432752  0.6796551248384121  0.21067626390679828  1.0000
  C   C36       1.0  0.6581500406196736  0.6590667457029017  0.26678116626887777  1.0000
  C   C37       1.0  0.7377045903732197  0.6977002479977019  0.23122333504483808  1.0000
  C   C38       1.0  0.7583063194848448  0.7597216991882692  0.14095460526603884  1.0000
  C   C39       1.0  0.8284096600255424  0.8176673068920621  0.11036517710981278  1.0000
  C   C40       1.0  0.6218671173763326  0.5990716080355867  0.3637973367458613  1.0000
  C   C41       1.0  0.7189550745204939  0.9713451185090496  0.5934215520550412  1.0000
  C   C42       1.0  0.6676639695001682  0.055556469100643914  0.6390695149127411  1.0000
  C   C43       1.0  0.7349028795695459  0.061190773415454314  0.679066677200993  1.0000
  C   C44       1.0  0.8150580556584472  0.976251749039179  0.7068390403064769  1.0000
  C   C45       1.0  0.8611876286319243  0.9756560079224459  0.7608323092237654  1.0000
  C   C46       1.0  0.8224965833765481  0.05815784986248926  0.7939439047510108  1.0000
  C   C47       1.0  0.7454844764197617  0.14552942779179298  0.7641533331942725  1.0000
  C   C48       1.0  0.707137516278884  0.14854581633932182  0.7026223767061881  1.0000
  C   C49       1.0  0.6377127217089793  0.2479376226830183  0.6604032691852667  1.0000
  C   C50       1.0  0.8649188767780416  0.0507643065864586  0.8598021374656498  1.0000
  C   C51       1.0  0.6139417415600548  0.7323188989075435  0.5371839937922189  1.0000
  C   C52       1.0  0.5683070265457175  0.6596648515375634  0.6243541952780449  1.0000
  C   C53       1.0  0.4650499908303374  0.7151498237562921  0.6820576181896527  1.0000
  C   C54       1.0  0.4539864065185952  0.7970368659079341  0.7038785390867518  1.0000
  C   C55       1.0  0.36298012106253447  0.842345919288569  0.7629276668887002  1.0000
  C   C56       1.0  0.28331429264297736  0.8018167003837817  0.8067617705002307  1.0000
  C   C57       1.0  0.29125415836096386  0.7224479724936758  0.7839588284846287  1.0000
  C   C58       1.0  0.3797992451780701  0.6830043018410026  0.7189060581878621  1.0000
  C   C59       1.0  0.3835443265783098  0.6103953571274163  0.6815635642564857  1.0000
  C   C60       1.0  0.19211849303412268  0.8444863516855678  0.8771685559822302  1.0000
  N   N1        1.0  0.9097806063717613  0.867427482622361  0.3574343808397487  1.0000
  N   N2        1.0  0.6948673392462438  0.8724090878690519  0.3024760511099063  1.0000
  N   N3        1.0  0.4506526167985854  0.8753296506360969  0.9697247854338047  1.0000
  N   N4        1.0  0.40054766850956014  0.6697732795949208  0.9527477815262203  1.0000
  N   N5        1.0  0.7299483401776141  0.49190983934219906  0.9503194195756496  1.0000
  N   N6        1.0  0.832163621067039  0.33410875699257764  0.7910634224710905  1.0000
  N   N7        1.0  0.8806832142214276  0.6845138108621996  0.9413514855201658  1.0000
  N   N8        1.0  0.6477852655496292  0.9169156602269342  0.9507309619403943  1.0000
  N   N9        1.0  0.8122755732381393  0.9818244374709196  0.5189753369852285  1.0000
  N   N10       1.0  0.5716067801972358  0.04216335434751535  0.7112849709833428  1.0000
  N   N11       1.0  0.5456915475574745  0.801393058899535  0.4808641909146802  1.0000
  N   N12       1.0  0.6434056818506518  0.5953042979668197  0.6759145227635845  1.0000
  O   O1        1.0  0.977427391762987  0.9706660623296487  0.03677671358062889  1.0000
  O   O2        1.0  0.780043162470406  0.11325307620078473  0.12461975465755173  1.0000
  O   O3        1.0  0.9063136701620422  0.08078081105056611  0.17963894932135105  1.0000
  O   O4        1.0  0.6231105327369659  0.32506015270906374  0.40624885784156844  1.0000
  O   O5        1.0  0.4822207260314215  0.2774078454659446  0.49691666154111414  1.0000
  O   O6        1.0  0.13007149414489308  0.7832305415660203  0.12291940526178277  1.0000
  O   O7        1.0  0.14815294893278969  0.9215270890798026  0.12030173575783455  1.0000
  O   O8        1.0  0.33229400399630993  0.650329713367775  0.4200053549796436  1.0000
  O   O9        1.0  0.37136290730616395  0.49851225539164573  0.4032191666627369  1.0000
  O   O10       1.0  0.003998300513615001  0.16268264635514382  0.8764919765825286  1.0000
  O   O11       1.0  0.053152428172836594  0.15652744643811906  0.9867328470702574  1.0000
  O   O12       1.0  0.306628374741102  0.3756072311747189  0.7397263021129562  1.0000
  O   O13       1.0  0.2603713423282272  0.43030623518848904  0.6122183034717352  1.0000
  O   O14       1.0  0.7847469392098675  0.9134751926242546  0.09035725590226208  1.0000
  O   O15       1.0  0.9231428236939864  0.7690134063367609  0.10726448892091886  1.0000
  O   O16       1.0  0.6736045654994528  0.5054955916300444  0.38842228188772776  1.0000
  O   O17       1.0  0.5363970321163904  0.6464505942000258  0.4133964456192133  1.0000
  O   O18       1.0  0.5488207514106378  0.2848802031060203  0.7128435451475853  1.0000
  O   O19       1.0  0.675627637923526  0.28754413321264866  0.5757718066261149  1.0000
  O   O20       1.0  0.9613200812716939  0.9999400026122274  0.848530983701288  1.0000
  O   O21       1.0  0.8048427040588564  0.09250660720895362  0.9240789433349053  1.0000
  O   O22       1.0  0.4118468512764082  0.5170049382335479  0.7237413036246211  1.0000
  O   O23       1.0  0.35843258307071574  0.6513009771838655  0.608249142439071  1.0000
  O   O24       1.0  0.1771859855117768  0.9341495570273184  0.8732280550916586  1.0000
  O   O25       1.0  0.1354744054837909  0.7916857813424515  0.9372346058819192  1.0000
  O   O26       1.0  0.4716121906483082  0.45716094081295483  0.5470890749431662  1.0000
