data_image0
_chemical_formula_structural       Zn16H16C96S20Br16O64
_chemical_formula_sum              "Zn16 H16 C96 S20 Br16 O64"
_cell_length_a       19.615691889452503
_cell_length_b       19.70002572297883
_cell_length_c       33.25880926605674
_cell_angle_alpha    79.20462900651599
_cell_angle_beta     79.46728966091308
_cell_angle_gamma    64.05610180484705

_space_group_name_H-M_alt    "P 1"
_space_group_IT_number       1

loop_
  _space_group_symop_operation_xyz
  'x, y, z'

loop_
  _atom_site_type_symbol
  _atom_site_label
  _atom_site_symmetry_multiplicity
  _atom_site_fract_x
  _atom_site_fract_y
  _atom_site_fract_z
  _atom_site_occupancy
  Zn  Zn1       1.0  0.05635999101578191  0.3984409726292668  0.4792541950075131  1.0000
  Zn  Zn2       1.0  0.9870844549383264  0.4810684780131  0.5600781470952609  1.0000
  Zn  Zn3       1.0  0.0559108597274971  0.5628381802318856  0.4808123991958623  1.0000
  Zn  Zn4       1.0  0.9010316678005521  0.5571688481621777  0.47911061507254243  1.0000
  Zn  Zn5       1.0  0.6902172456780988  0.35207945458525103  0.27190958226366035  1.0000
  Zn  Zn6       1.0  0.6895846019453132  0.19097040284281516  0.26672377730206864  1.0000
  Zn  Zn7       1.0  0.7702134711414031  0.2672612740293374  0.19029507156815129  1.0000
  Zn  Zn8       1.0  0.8473814913673436  0.19971756713262329  0.2720423108495637  1.0000
  Zn  Zn9       1.0  0.2679768909878391  0.764010659847386  0.6889636731588167  1.0000
  Zn  Zn10      1.0  0.3513657174475783  0.696526587228149  0.7695577891902798  1.0000
  Zn  Zn11      1.0  0.19087017418151928  0.8466047438984886  0.770773290930421  1.0000
  Zn  Zn12      1.0  0.19091239724473755  0.6872425890886189  0.7664139053723671  1.0000
  Zn  Zn13      1.0  0.5577155679951177  0.0629470381320161  0.9830078653565404  1.0000
  Zn  Zn14      1.0  0.4019596457279988  0.054163255170856045  0.9770946842147122  1.0000
  Zn  Zn15      1.0  0.5556138701485408  0.9005595044514363  0.978500249280486  1.0000
  Zn  Zn16      1.0  0.4821952405768641  0.9854691183154568  0.06043171433828576  1.0000
  H   H1        1.0  0.9518917619832195  0.2546762565345659  0.350849111451076  1.0000
  H   H2        1.0  0.740746684633244  0.45598866140637984  0.35408771356081536  1.0000
  H   H3        1.0  0.9994207103016703  0.3050342222418011  0.3982065936470604  1.0000
  H   H4        1.0  0.09198951646300911  0.5990316709701133  0.6983630578307183  1.0000
  H   H5        1.0  0.2034974816692454  0.6992705990406166  0.5976797189989965  1.0000
  H   H6        1.0  0.044452745278583394  0.5553486521982122  0.6476428094908043  1.0000
  H   H7        1.0  0.5543606464672806  0.04909025504718299  0.15315722239418508  1.0000
  H   H8        1.0  0.650273071200516  0.15640065618386959  0.04816191422906257  1.0000
  H   H9        1.0  0.6072610445128888  0.09568983031363139  0.19967125803465538  1.0000
  H   H10       1.0  0.4983156696480933  0.7924983088802265  0.8990185262523838  1.0000
  H   H11       1.0  0.2978720748682094  0.004400720562685476  0.8974148668790247  1.0000
  H   H12       1.0  0.44499500197034086  0.748867149685374  0.8512227867474561  1.0000
  H   H13       1.0  0.8457341265241141  0.5740485345669554  0.3991619305344115  1.0000
  H   H14       1.0  0.0659784169159252  0.6886963027622244  0.5130873611387938  1.0000
  H   H15       1.0  0.7983815231191259  0.1757539203360778  0.12291031582872589  1.0000
  H   H16       1.0  0.17639000189313242  0.9052466166243389  0.8497983672695351  1.0000
  C   C1        1.0  0.06112462322511189  0.31467285427883246  0.5626019987953228  1.0000
  C   C2        1.0  0.0636873676303722  0.5751750651924253  0.5672726487431916  1.0000
  C   C3        1.0  0.18154490645325444  0.44066220047561433  0.4387667937486412  1.0000
  C   C4        1.0  0.9336719740759846  0.6878613762426296  0.4387737288294814  1.0000
  C   C5        1.0  0.9339501764028171  0.434999316987607  0.4286555647302704  1.0000
  C   C6        1.0  0.8205572730876227  0.5599830990000002  0.5622286549008348  1.0000
  C   C7        1.0  0.5651368322817234  0.3095217350504171  0.31249628549033287  1.0000
  C   C8        1.0  0.6892428884669357  0.1746338271128493  0.1812199799861673  1.0000
  C   C9        1.0  0.6872086534746273  0.43283235679867005  0.18734721544743843  1.0000
  C   C10       1.0  0.9357458972984601  0.1914761975604408  0.18939850624947493  1.0000
  C   C11       1.0  0.8155898545112308  0.3235473407090907  0.32011031918047184  1.0000
  C   C12       1.0  0.8139098332549394  0.06742358414944512  0.30915073765326173  1.0000
  C   C13       1.0  0.43541806069274  0.6863099513253985  0.6865154494483646  1.0000
  C   C14       1.0  0.314601154924354  0.8176836275688686  0.8203719469376691  1.0000
  C   C15       1.0  0.1917450373321472  0.9313283084175268  0.6889277678689749  1.0000
  C   C16       1.0  0.0636871278519351  0.8085684796232613  0.8101672657950372  1.0000
  C   C17       1.0  0.18007500476189617  0.6784613698907762  0.6806504766715874  1.0000
  C   C18       1.0  0.31530240244042324  0.5685875115310068  0.8120778225215871  1.0000
  C   C19       1.0  0.4357128035830016  0.18487943595594197  0.9379489662054326  1.0000
  C   C20       1.0  0.43158395032095603  0.9286981543715809  0.9300858616295642  1.0000
  C   C21       1.0  0.68293547940295  0.9409729198106758  0.9391414095002939  1.0000
  C   C22       1.0  0.5610172685660261  0.8177612095491825  0.06245104293839883  1.0000
  C   C23       1.0  0.5683255456717973  0.07169617115607703  0.06944664070784508  1.0000
  C   C24       1.0  0.3153729905871145  0.061438063476302235  0.06001485225357328  1.0000
  C   C25       1.0  0.8983194340096999  0.40905247788245436  0.4019726783146139  1.0000
  C   C26       1.0  0.843982700605082  0.3525945848790856  0.3490535236251019  1.0000
  C   C27       1.0  0.8243864282725752  0.45123412544919733  0.38947927933479315  1.0000
  C   C28       1.0  0.9166318777447273  0.3097060159726012  0.3618039216131663  1.0000
  C   C29       1.0  0.7978274136074646  0.4229794399428214  0.36333257111696327  1.0000
  C   C30       1.0  0.9429980679837727  0.33780585974704974  0.388051494880571  1.0000
  C   C31       1.0  0.09586974686662592  0.603495696498257  0.5945394013806932  1.0000
  C   C32       1.0  0.150227662562223  0.6521352462752573  0.6511517264011173  1.0000
  C   C33       1.0  0.1412311449790593  0.6445515602274056  0.5806072807935363  1.0000
  C   C34       1.0  0.1054518791645052  0.6115492855277935  0.6653430686114417  1.0000
  C   C35       1.0  0.16801115980236864  0.6683540873650812  0.6087709409344197  1.0000
  C   C36       1.0  0.07897318366477891  0.5874613095118519  0.6371637252806435  1.0000
  C   C37       1.0  0.30218733323386004  0.456012980795407  0.3999284798210851  1.0000
  C   C38       1.0  0.4437579317549876  0.29472013748640086  0.35079180864872217  1.0000
  C   C39       1.0  0.2560582126364892  0.41706789936917227  0.4137419316890527  1.0000
  C   C40       1.0  0.4899515739087406  0.3335269360039489  0.33703336659708316  1.0000
  C   C41       1.0  0.3751515623272823  0.33936572798233305  0.3735381823619262  1.0000
  C   C42       1.0  0.3704128767569869  0.4114077668928077  0.3768209594756156  1.0000
  C   C43       1.0  0.7286699598719295  0.5750384377561986  0.629946659128471  1.0000
  C   C44       1.0  0.527540507135825  0.6704362094871003  0.6187486494527689  1.0000
  C   C45       1.0  0.7461941037821661  0.5834084365266886  0.5873345714172444  1.0000
  C   C46       1.0  0.509878837702125  0.6618762229915518  0.6613512590153262  1.0000
  C   C47       1.0  0.6073331895840896  0.6383616908422098  0.6073024373990277  1.0000
  C   C48       1.0  0.6489949089027149  0.6063581680333385  0.6414570796937225  1.0000
  C   C49       1.0  0.07658631296482811  0.22344751534939886  0.6308097570184897  1.0000
  C   C50       1.0  0.1761956389054617  0.02295859003187669  0.6210761259823483  1.0000
  C   C51       1.0  0.0857702302491674  0.24067379484830542  0.5881535858287562  1.0000
  C   C52       1.0  0.167485951839943  0.005769119406963307  0.6637473440889392  1.0000
  C   C53       1.0  0.1434511094060724  0.10230743476606113  0.6091423973994379  1.0000
  C   C54       1.0  0.1099598153917896  0.14409148715106573  0.642929868332416  1.0000
  C   C55       1.0  0.839067024865848  0.8069251390239169  0.39795809244210284  1.0000
  C   C56       1.0  0.907564686362541  0.9496666165128859  0.3513338444931262  1.0000
  C   C57       1.0  0.9080863152320191  0.7626010439039278  0.4140775873851509  1.0000
  C   C58       1.0  0.8391020707157609  0.9932517866334291  0.3345717068625331  1.0000
  C   C59       1.0  0.9078451440284213  0.8814833918061851  0.3743060345577545  1.0000
  C   C60       1.0  0.8391620482219793  0.874885269509498  0.37492876212597526  1.0000
  C   C61       1.0  0.6592572242763667  0.15093896993564462  0.15047782815396712  1.0000
  C   C62       1.0  0.5994881939337517  0.09920153308562617  0.09781894706448914  1.0000
  C   C63       1.0  0.6708741443751408  0.16805284937578321  0.10719511074075427  1.0000
  C   C64       1.0  0.587147367994561  0.0823553799980131  0.14055529609997552  1.0000
  C   C65       1.0  0.6412061665976269  0.1423108344250039  0.08136561978102458  1.0000
  C   C66       1.0  0.6166766505069177  0.10820238763085398  0.16635124410139912  1.0000
  C   C67       1.0  0.6753382743950881  0.5249867447063891  0.11943152697559604  1.0000
  C   C68       1.0  0.5760468595032506  0.7252388696705693  0.130327080721834  1.0000
  C   C69       1.0  0.6644446135320338  0.507000807322875  0.16196179360262153  1.0000
  C   C70       1.0  0.5859817907102141  0.743356137195306  0.08779308682218807  1.0000
  C   C71       1.0  0.6086850838939526  0.6457280275276959  0.14193616211412768  1.0000
  C   C72       1.0  0.6431560889228861  0.6045926006140828  0.10797744622916382  1.0000
  C   C73       1.0  0.0832130449156736  0.1232793587808274  0.17764027689513273  1.0000
  C   C74       1.0  0.1676545249967916  0.1256483458178366  0.07176430120603068  1.0000
  C   C75       1.0  0.010715274170003402  0.1639142173960479  0.16500216998655753  1.0000
  C   C76       1.0  0.24021901261922096  0.08619947130004141  0.08442624393391897  1.0000
  C   C77       1.0  0.11041028316674331  0.1391427477562601  0.10578404137503834  1.0000
  C   C78       1.0  0.1405092844320279  0.1092856395662096  0.14369741881356646  1.0000
  C   C79       1.0  0.3415179172067369  0.8507491489485091  0.8479879423070853  1.0000
  C   C80       1.0  0.40124980173943914  0.9008453642394298  0.9014696181250341  1.0000
  C   C81       1.0  0.3002234875089016  0.9236409991608381  0.861270669307771  1.0000
  C   C82       1.0  0.44287866728264197  0.828893914706093  0.8883311184599588  1.0000
  C   C83       1.0  0.3301081107389762  0.9480144530418858  0.8876533503922771  1.0000
  C   C84       1.0  0.4131303573451319  0.8046598145688152  0.8618171106470238  1.0000
  C   C85       1.0  0.4090894592640452  0.4494457656426363  0.8537350622102264  1.0000
  C   C86       1.0  0.342496813110067  0.30358413209260954  0.895919072119248  1.0000
  C   C87       1.0  0.3409896420931133  0.49365229723974113  0.8367578594018992  1.0000
  C   C88       1.0  0.410520222526074  0.25965260597616424  0.9130423827508873  1.0000
  C   C89       1.0  0.3419989923185653  0.37277530067549947  0.8742585959803433  1.0000
  C   C90       1.0  0.40976013046162757  0.38013655678953023  0.8752653820036185  1.0000
  C   C91       1.0  0.942944469437478  0.7941006153115923  0.8497516373277562  1.0000
  C   C92       1.0  0.8051522888330355  0.9542217772160553  0.9010110547319171  1.0000
  C   C93       1.0  0.989624202035479  0.8322851899758774  0.8357038426324122  1.0000
  C   C94       1.0  0.758041981790342  0.9163767406458374  0.9145361602602688  1.0000
  C   C95       1.0  0.8725700427950328  0.909653931218962  0.8773418216262595  1.0000
  C   C96       1.0  0.8757025365202509  0.8384830760238627  0.8735081762143295  1.0000
  S   S1        1.0  0.2961261028423152  0.3262047952971939  0.3982783159577109  1.0000
  S   S2        1.0  0.44926534880217167  0.4247320220227733  0.35195351655663387  1.0000
  S   S3        1.0  0.6652078118638657  0.6290158383476834  0.561306115709577  1.0000
  S   S4        1.0  0.5908926050351866  0.6147759213769889  0.6873860237287133  1.0000
  S   S5        1.0  0.1350938145328797  0.15964683285592676  0.5628700234343214  1.0000
  S   S6        1.0  0.11938085285073188  0.08662335287922221  0.6892257278895783  1.0000
  S   S7        1.0  0.9727716250690578  0.8043178543458323  0.4012737229515435  1.0000
  S   S8        1.0  0.7749587531289138  0.9510466665735532  0.3470548854092925  1.0000
  S   S9        1.0  0.6155727728940406  0.58743564976033  0.1878464075840823  1.0000
  S   S10       1.0  0.6355801618189502  0.6629027696453919  0.062042957287211174  1.0000
  S   S11       1.0  0.012556310119315099  0.18440995561478954  0.11155893173607716  1.0000
  S   S12       1.0  0.23846758804088347  0.06518429437088  0.13784800843426123  1.0000
  S   S13       1.0  0.2778450395880157  0.45018232341305264  0.8470194230891079  1.0000
  S   S14       1.0  0.4738747489402257  0.30283098066130504  0.9025948717305705  1.0000
  S   S15       1.0  0.9512789489498343  0.9224805574351007  0.8517950479053196  1.0000
  S   S16       1.0  0.7964906194790017  0.8260875241475247  0.8986148653281272  1.0000
  S   S17       1.0  0.7570150658144285  0.5402307091635025  0.40711280453654536  1.0000
  S   S18       1.0  0.1738301838115888  0.6640283612326598  0.5274222638996802  1.0000
  S   S19       1.0  0.7172538856840518  0.2281867108930271  0.08155319632975724  1.0000
  S   S20       1.0  0.2108334840692194  0.9928446845818253  0.8440822403327244  1.0000
  Br  Br1       1.0  0.2820827840813536  0.5542871390791432  0.4090204989224658  1.0000
  Br  Br2       1.0  0.4641200017217599  0.19592242094179815  0.3419329168029249  1.0000
  Br  Br3       1.0  0.7975231459034403  0.527546585518479  0.6696782278821585  1.0000
  Br  Br4       1.0  0.459233965408103  0.7173396216354321  0.5788519881297771  1.0000
  Br  Br5       1.0  0.0273968013976997  0.2921448110677005  0.6700445799847968  1.0000
  Br  Br6       1.0  0.22377801626399224  0.9545389826358175  0.5816284490747916  1.0000
  Br  Br7       1.0  0.7544924942472662  0.783871852640331  0.40330909044759267  1.0000
  Br  Br8       1.0  0.9925967398760775  0.9723835023686078  0.3456574168795468  1.0000
  Br  Br9       1.0  0.7251085677719616  0.4571664661666827  0.079985910758154  1.0000
  Br  Br10      1.0  0.5261608423369708  0.7930070868980221  0.16999999152209708  1.0000
  Br  Br11      1.0  0.1080027863190338  0.08886894516020759  0.23189279854757658  1.0000
  Br  Br12      1.0  0.1423672554714202  0.15961131156091568  0.017644808165535188  1.0000
  Br  Br13      1.0  0.4931340836033301  0.4730695724621225  0.8499997667273644  1.0000
  Br  Br14      1.0  0.2588948343728958  0.2795006408379733  0.8992398726854273  1.0000
  Br  Br15      1.0  0.9612156461968838  0.6964214447632245  0.8399750927280748  1.0000
  Br  Br16      1.0  0.7874229741652599  0.051371401727678456  0.9112869310286977  1.0000
  O   O1        1.0  0.0008126052873080999  0.49818374802479337  0.49970547028716056  1.0000
  O   O2        1.0  0.0819428672208318  0.3132980551655535  0.523757382679072  1.0000
  O   O3        1.0  0.04955732368870971  0.5180533565589798  0.5826150994634034  1.0000
  O   O4        1.0  0.1551030286988748  0.5043579948204525  0.4529070304083189  1.0000
  O   O5        1.0  0.021419462652581  0.3735963243898722  0.5809266282699496  1.0000
  O   O6        1.0  0.14987651702851681  0.3941859962895792  0.44421982252241304  1.0000
  O   O7        1.0  0.050166748710992706  0.6102211837824143  0.5308562874139893  1.0000
  O   O8        1.0  0.003661809281617  0.6578314408693373  0.44596862097752404  1.0000
  O   O9        1.0  0.9108519466657725  0.5068184459296745  0.42964915564717626  1.0000
  O   O10       1.0  0.8855304563880396  0.6588908055737122  0.45099726554170866  1.0000
  O   O11       1.0  0.987265096667585  0.3836404192029689  0.4480687685670544  1.0000
  O   O12       1.0  0.8798897701609861  0.5348286956007654  0.5808510999823965  1.0000
  O   O13       1.0  0.8184951881481695  0.5678132561786813  0.5232298321883915  1.0000
  O   O14       1.0  0.7479833544680686  0.2531712304246057  0.2503941225151394  1.0000
  O   O15       1.0  0.5923973892029011  0.3596464061113237  0.30305122984727  1.0000
  O   O16       1.0  0.6545599915315847  0.17763715353518694  0.21748108773138594  1.0000
  O   O17       1.0  0.7199732438741648  0.37352203387023747  0.16875835477138415  1.0000
  O   O18       1.0  0.5965318157997856  0.2419058511750337  0.3028676664390132  1.0000
  O   O19       1.0  0.6715167728743197  0.43498242981425506  0.22638844051072468  1.0000
  O   O20       1.0  0.7485851399919595  0.18877211949149605  0.17013834845685244  1.0000
  O   O21       1.0  0.8784991464832573  0.22895682633269132  0.16868633504007136  1.0000
  O   O22       1.0  0.860920019082414  0.25876564764965326  0.30870825423687615  1.0000
  O   O23       1.0  0.9333811524589491  0.17659003676391907  0.22844840737258199  1.0000
  O   O24       1.0  0.7493446294183032  0.3658313302974109  0.3093399983138453  1.0000
  O   O25       1.0  0.7491119220133059  0.09107800344215615  0.295572484052414  1.0000
  O   O26       1.0  0.8576007656930074  0.10159692951984294  0.3030090720681144  1.0000
  O   O27       1.0  0.2505240867259105  0.7484319576569689  0.7494043044902695  1.0000
  O   O28       1.0  0.3760940800939494  0.7214491519510916  0.6677428695722012  1.0000
  O   O29       1.0  0.3657839053301116  0.7659910360808907  0.8001534328558859  1.0000
  O   O30       1.0  0.17681510639389592  0.9324967582715972  0.7280770069953418  1.0000
  O   O31       1.0  0.43711830609822755  0.6697504137251398  0.725639936855373  1.0000
  O   O32       1.0  0.22475017767050082  0.8727585124213988  0.6698954724571633  1.0000
  O   O33       1.0  0.24249498679332504  0.8411172601039069  0.8193062942392471  1.0000
  O   O34       1.0  0.0911308660910066  0.8586386253600581  0.8007112426370211  1.0000
  O   O35       1.0  0.1638639242745654  0.6611463153608169  0.7189905910959736  1.0000
  O   O36       1.0  0.094269519838889  0.741696418535767  0.7995968098991211  1.0000
  O   O37       1.0  0.2192089264747281  0.7160497445835715  0.664587265894802  1.0000
  O   O38       1.0  0.35898740180623895  0.6030476419893559  0.8055325357248221  1.0000
  O   O39       1.0  0.2498760551950099  0.5923746307587263  0.7993530740835479  1.0000
  O   O40       1.0  0.5002313571065358  0.9997322093828487  0.999888753587619  1.0000
  O   O41       1.0  0.5021106419990886  0.1592249523884917  0.9498033674924709  1.0000
  O   O42       1.0  0.38880749093289074  0.9947306813752094  0.940467528555295  1.0000
  O   O43       1.0  0.6534757546395866  0.8925552500313072  0.9469285959701779  1.0000
  O   O44       1.0  0.3903796225023656  0.15233444430545973  0.945600161569423  1.0000
  O   O45       1.0  0.6539358913575342  0.007266518961067439  0.9502925037497644  1.0000
  O   O46       1.0  0.4970101648734725  0.8843864763597438  0.9415420374484281  1.0000
  O   O47       1.0  0.5775839631474471  0.8159676152648601  0.023410781104864418  1.0000
  O   O48       1.0  0.5301456493381523  0.03336725644309979  0.08627684907773406  1.0000
  O   O49       1.0  0.5255660035245953  0.8767781128750157  0.08105929007009381  1.0000
  O   O50       1.0  0.5828393938160303  0.08900904634177928  0.03097526743933088  1.0000
  O   O51       1.0  0.31686127058826935  0.0751910567020246  0.021001234704172585  1.0000
  O   O52       1.0  0.37295562257007486  0.028043675113863676  0.08068399666898775  1.0000
  O   O53       1.0  0.7969187712308566  0.5954536902339027  0.3862217351537466  1.0000
  O   O54       1.0  0.6888379896107182  0.5660455539126162  0.3878293173914925  1.0000
  O   O55       1.0  0.7539524527998366  0.5318445048306657  0.45130620690970585  1.0000
  O   O56       1.0  0.09603677233219092  0.7202619254586864  0.5090302326942151  1.0000
  O   O57       1.0  0.21677894977354134  0.7080366076396629  0.5249920593327813  1.0000
  O   O58       1.0  0.2066900188621332  0.5934767382067533  0.5097543298383442  1.0000
  O   O59       1.0  0.8027844299522043  0.17952462553912335  0.09204490492977864  1.0000
  O   O60       1.0  0.7198896600524732  0.23107191505982166  0.03792566656174757  1.0000
  O   O61       1.0  0.683095017612594  0.2970828717127461  0.10086174965804419  1.0000
  O   O62       1.0  0.1549540503344389  0.9529654910608797  0.8634569927324801  1.0000
  O   O63       1.0  0.18577080481433944  0.058809110730010196  0.864787736868301  1.0000
  O   O64       1.0  0.2191919294320286  0.9992229260351451  0.7997631636410529  1.0000
