data_image0
_chemical_formula_structural       H28Pb2C36Br4N8
_chemical_formula_sum              "H28 Pb2 C36 Br4 N8"
_cell_length_a       4.132360071737265
_cell_length_b       13.255942198510295
_cell_length_c       17.308887297356726
_cell_angle_alpha    89.9984738585058
_cell_angle_beta     90.00116048506507
_cell_angle_gamma    90.99549585207981

_space_group_name_H-M_alt    "P 1"
_space_group_IT_number       1

loop_
  _space_group_symop_operation_xyz
  'x, y, z'

loop_
  _atom_site_type_symbol
  _atom_site_label
  _atom_site_symmetry_multiplicity
  _atom_site_fract_x
  _atom_site_fract_y
  _atom_site_fract_z
  _atom_site_occupancy
  H   H1        1.0  0.8430901185111638  0.6928960534020805  0.878195296832239  1.0000
  H   H2        1.0  0.15697186012276634  0.8070794584392904  0.37819208190689596  1.0000
  H   H3        1.0  0.15691527902705363  0.30710057267521756  0.12180461903901126  1.0000
  H   H4        1.0  0.8430996887297725  0.19290175705582163  0.6217957017881943  1.0000
  H   H5        1.0  0.3821869319025596  0.6681066807050158  0.9436388341403447  1.0000
  H   H6        1.0  0.6178003603338098  0.8318880998070599  0.4436500840686721  1.0000
  H   H7        1.0  0.6178312717447342  0.33189667737802625  0.056361659431516414  1.0000
  H   H8        1.0  0.38220979621850404  0.16810774880580234  0.5563504095600751  1.0000
  H   H9        1.0  0.8073619383376284  0.37488985211118137  0.9241008847741272  1.0000
  H   H10       1.0  0.19262506226192502  0.12510763605078523  0.4240952036094826  1.0000
  H   H11       1.0  0.19264151418678213  0.6251113119479684  0.07589729783238404  1.0000
  H   H12       1.0  0.8073580903373312  0.8748845672748262  0.5759076009417826  1.0000
  H   H13       1.0  0.8070030109060371  0.5244197791305825  0.6973863445737793  1.0000
  H   H14       1.0  0.19301722193932147  0.9755816915086091  0.19738506777304826  1.0000
  H   H15       1.0  0.19302626061774936  0.47557371406870896  0.302614149125887  1.0000
  H   H16       1.0  0.8069940405099701  0.024424718866654906  0.8026096483717569  1.0000
  H   H17       1.0  0.3174050579794212  0.8607835058393155  0.6661596006144708  1.0000
  H   H18       1.0  0.6825551995486948  0.6392253485192471  0.16615430158596925  1.0000
  H   H19       1.0  0.6825667898564448  0.13921629909700076  0.3338466702588364  1.0000
  H   H20       1.0  0.3174320308016264  0.3607826859646367  0.8338375257938824  1.0000
  H   H21       1.0  0.09834983011311493  0.8110478235736595  0.7962915638150465  1.0000
  H   H22       1.0  0.901672855044595  0.688942731355468  0.2962863246893194  1.0000
  H   H23       1.0  0.9016383976326383  0.18894661986593067  0.20371412941525346  1.0000
  H   H24       1.0  0.09834277120609161  0.3110591296021782  0.7037049250852764  1.0000
  H   H25       1.0  0.26849251310968475  0.7361081859366223  0.5570324207582403  1.0000
  H   H26       1.0  0.7314503380689035  0.7639157761377149  0.05703232775463362  1.0000
  H   H27       1.0  0.7315062596933403  0.26389450987250745  0.4429721169379378  1.0000
  H   H28       1.0  0.26849663873996127  0.23610075257217034  0.9429681655081484  1.0000
  Pb  Pb1       1.0  0.9999720689607232  0.49999232629101453  0.500011583538914  1.0000
  Pb  Pb2       1.0  0.999980330630564  1.05291499609817e-06  0.9999939428214406  1.0000
  C   C1        1.0  0.6098977016140738  0.5239918660034207  0.9249158004390171  1.0000
  C   C2        1.0  0.39008088257935475  0.9760043462889104  0.4249177926775617  1.0000
  C   C3        1.0  0.3900960751463602  0.4760093440565784  0.0750881595221813  1.0000
  C   C4        1.0  0.6098974318783023  0.023987880146194112  0.575081545434273  1.0000
  C   C5        1.0  0.4363630871633576  0.5946781688730101  0.9685159542681849  1.0000
  C   C6        1.0  0.5636293675031538  0.9053225359325909  0.46852428443280314  1.0000
  C   C7        1.0  0.5636647924367253  0.4053251431298579  0.0314833838521054  1.0000
  C   C8        1.0  0.43636861508687036  0.09467261588091701  0.5314773646489784  1.0000
  C   C9        1.0  0.9411914782258964  0.6630259578982066  0.757288012376087  1.0000
  C   C10       1.0  0.05884729343601692  0.8369650891228207  0.25728543965627193  1.0000
  C   C11       1.0  0.058833113387699115  0.336969067130383  0.2427142145101372  1.0000
  C   C12       1.0  0.9411876058523492  0.16303592521046548  0.7427069656500154  1.0000
  C   C13       1.0  0.6687460932815272  0.4288266713522193  0.9574233381161652  1.0000
  C   C14       1.0  0.3312576698533007  0.07116507742587434  0.4574211709350494  1.0000
  C   C15       1.0  0.33126664031338043  0.5711706745347629  0.04257773324151511  1.0000
  C   C16       1.0  0.6687330557367377  0.9288301089626434  0.5425804781285777  1.0000
  C   C17       1.0  0.9206585485153341  0.5991805952782201  0.6925646378146626  1.0000
  C   C18       1.0  0.07935153540242372  0.9008203325480795  0.19256375141402066  1.0000
  C   C19       1.0  0.07935886506056992  0.40081521874972037  0.3074364335701248  1.0000
  C   C20       1.0  0.9206498141363826  0.09918386066406273  0.8074338534185375  1.0000
  C   C21       1.0  0.20345003323419777  0.7869743131254484  0.6752629124214311  1.0000
  C   C22       1.0  0.7965467790343297  0.7130295294491805  0.17525897721723285  1.0000
  C   C23       1.0  0.7965578624315129  0.21302305578178257  0.32473989213782073  1.0000
  C   C24       1.0  0.20344747138188526  0.28697620720649303  0.8247351611548341  1.0000
  C   C25       1.0  0.827300613662736  0.6330846926447224  0.83388337234765  1.0000
  C   C26       1.0  0.17272303980096382  0.8669076011361982  0.33387843627560454  1.0000
  C   C27       1.0  0.17271719493706433  0.366914893415725  0.16611712126173475  1.0000
  C   C28       1.0  0.8273062312272118  0.13308589227131057  0.6661099249283994  1.0000
  C   C29       1.0  0.08162436176463932  0.7593096097822427  0.7473027664504388  1.0000
  C   C30       1.0  0.9183927710903037  0.7406909366001246  0.24729713114690108  1.0000
  C   C31       1.0  0.9183712019669985  0.2406855534967819  0.2527023490526261  1.0000
  C   C32       1.0  0.0816134161416926  0.2593132336909108  0.7526929631052044  1.0000
  C   C33       1.0  0.17586913884268543  0.7182020399377368  0.6146212890295006  1.0000
  C   C34       1.0  0.824087303097315  0.7818123554021812  0.11461724092237092  1.0000
  C   C35       1.0  0.824113333012754  0.28180677179245356  0.38538267082640243  1.0000
  C   C36       1.0  0.1758977453051074  0.2181979538103463  0.8853751641668028  1.0000
  Br  Br1       1.0  0.4958627387226714  0.3761683806499932  0.5839696360379066  1.0000
  Br  Br2       1.0  0.5041180061300424  0.12383841550096973  0.08394066613511343  1.0000
  Br  Br3       1.0  0.5040946753735442  0.6238322473153491  0.4160672548996943  1.0000
  Br  Br4       1.0  0.49584784814979355  0.8761734947800975  0.9160482724633143  1.0000
  N   N1        1.0  0.034188171281215304  0.6264139864918195  0.6230412523628461  1.0000
  N   N2        1.0  0.9658071885837035  0.8735954089881877  0.12303891492635441  1.0000
  N   N3        1.0  0.9658315033700833  0.3735803071624206  0.3769621299945528  1.0000
  N   N4        1.0  0.03416592290853521  0.1264164666286406  0.8769552233312229  1.0000
  N   N5        1.0  0.7228787705501463  0.5434429622848216  0.8500450928722574  1.0000
  N   N6        1.0  0.277080495651802  0.9565453157642879  0.3500492388322131  1.0000
  N   N7        1.0  0.2771286510585753  0.4565498801953043  0.14995771173201436  1.0000
  N   N8        1.0  0.7229053919618453  0.043449893664316626  0.6499529879571997  1.0000
