data_image0
_chemical_formula_structural       Zn2H26C42N4O14
_chemical_formula_sum              "Zn2 H26 C42 N4 O14"
_cell_length_a       7.077218100557431
_cell_length_b       9.309056703672512
_cell_length_c       14.499925669398028
_cell_angle_alpha    108.38168486507777
_cell_angle_beta     96.06162016319684
_cell_angle_gamma    92.47678833155226

_space_group_name_H-M_alt    "P 1"
_space_group_IT_number       1

loop_
  _space_group_symop_operation_xyz
  'x, y, z'

loop_
  _atom_site_type_symbol
  _atom_site_label
  _atom_site_symmetry_multiplicity
  _atom_site_fract_x
  _atom_site_fract_y
  _atom_site_fract_z
  _atom_site_occupancy
  Zn  Zn1       1.0  0.19869025356959472  0.5607127362440707  0.4398690643247677  1.0000
  Zn  Zn2       1.0  0.8013154836086827  0.4392903366602283  0.5601316310751728  1.0000
  H   H1        1.0  0.46194612470174673  0.8998083213108075  0.8102322573346613  1.0000
  H   H2        1.0  0.5380528217818608  0.1001845612657206  0.18976325797576274  1.0000
  H   H3        1.0  0.841372965945439  0.6465950763945967  0.2455443907848363  1.0000
  H   H4        1.0  0.1586140140939776  0.3534182589444512  0.7544643515153808  1.0000
  H   H5        1.0  0.6276013100922951  0.662999161441391  0.10191235338933068  1.0000
  H   H6        1.0  0.37238413425951217  0.3370130375130245  0.8980974590282145  1.0000
  H   H7        1.0  0.3066584542215621  0.5173204127364173  0.05598836801444659  1.0000
  H   H8        1.0  0.6933372313245911  0.48268154781890604  0.9440143531064111  1.0000
  H   H9        1.0  0.3449883924213922  0.15528910730273537  0.021806955583073797  1.0000
  H   H10       1.0  0.6550043787904939  0.8446992578485181  0.9781859476675694  1.0000
  H   H11       1.0  0.8451414003756595  0.0074977388225577  0.8085581085935729  1.0000
  H   H12       1.0  0.15485151735607863  0.9925054094938159  0.19143437067101127  1.0000
  H   H13       1.0  0.6574973217986511  0.1895218214953616  0.9220220537193314  1.0000
  H   H14       1.0  0.3425002127523129  0.8104847275409454  0.07796928295200438  1.0000
  H   H15       1.0  0.8172225963802687  0.35507977797276874  0.08674001111191389  1.0000
  H   H16       1.0  0.18277126112889155  0.6449188169577624  0.9132529655230641  1.0000
  H   H17       1.0  0.5984302136263294  0.7280649943331169  0.5258067266305346  1.0000
  H   H18       1.0  0.401580724553753  0.2719335103561846  0.47419467759090866  1.0000
  H   H19       1.0  0.20304029992082914  0.7884770457310423  0.3040219727867139  1.0000
  H   H20       1.0  0.7969602460120272  0.2115305869542752  0.6959800815504524  1.0000
  H   H21       1.0  0.5290988031508519  0.9731984855232627  0.3230970991229896  1.0000
  H   H22       1.0  0.4709098288489458  0.026818199653071393  0.6769092786297009  1.0000
  H   H23       1.0  0.8198293983150792  0.05665797930483048  0.3607853755483959  1.0000
  H   H24       1.0  0.1801791959400845  0.9433450696567289  0.6392189070835032  1.0000
  H   H25       1.0  0.14262409752123523  0.1644376942338255  0.41545513859540517  1.0000
  H   H26       1.0  0.8573842564185838  0.8355630805063327  0.5845493574798297  1.0000
  C   C1        1.0  0.3463709131168144  0.42333502504171616  0.17385365728915053  1.0000
  C   C2        1.0  0.6536239166910323  0.5766589883897024  0.8261467092453005  1.0000
  C   C3        1.0  0.4648508378756802  0.4128961747959607  0.2549709871047768  1.0000
  C   C4        1.0  0.5351467044604376  0.5870966986669756  0.7450279039864826  1.0000
  C   C5        1.0  0.6457973820917573  0.4940461515761712  0.280083702987298  1.0000
  C   C6        1.0  0.354203856798911  0.5059546591245621  0.7199176836577764  1.0000
  C   C7        1.0  0.7020838766082349  0.5834134572118188  0.22423053228051507  1.0000
  C   C8        1.0  0.2979095802924904  0.41659418894344924  0.7757739266497624  1.0000
  C   C9        1.0  0.5823525745360526  0.5914981372989061  0.14366979016202922  1.0000
  C   C10       1.0  0.41763841340389274  0.4085129202349052  0.8563366200210114  1.0000
  C   C11       1.0  0.4039452021753149  0.5106777140397866  0.11767625797146758  1.0000
  C   C12       1.0  0.5960548663789637  0.4893253673914088  0.8823269125052918  1.0000
  C   C13       1.0  0.08933388751351862  0.2673387454051621  0.06175569952017669  1.0000
  C   C14       1.0  0.9106596144008066  0.7326564339762953  0.9382386311591803  1.0000
  C   C15       1.0  0.19618999993234348  0.1667055228512737  0.9989461252744578  1.0000
  C   C16       1.0  0.8037992407575986  0.8332896713593385  0.0010479939537759648  1.0000
  C   C17       1.0  0.10611279617830861  0.07403322168754299  0.9073286139904584  1.0000
  C   C18       1.0  0.8938781019829848  0.9259642446127427  0.09266467302523293  1.0000
  C   C19       1.0  0.912618969192728  0.08360778350365901  0.8791537710677916  1.0000
  C   C20       1.0  0.08736932196341476  0.9163919725267745  0.12083778303132679  1.0000
  C   C21       1.0  0.8089636800571824  0.18519331401458325  0.9430128543941622  1.0000
  C   C22       1.0  0.1910331367998452  0.8148064095462076  0.05697981186010283  1.0000
  C   C23       1.0  0.896414955104639  0.2774298910281345  0.03470902134184678  1.0000
  C   C24       1.0  0.10358032931690528  0.7225686933366972  0.9652854042826533  1.0000
  C   C25       1.0  0.3895898864404117  0.30838386589175576  0.3063521188912759  1.0000
  C   C26       1.0  0.6104164251640752  0.6916112465116057  0.6936483601647012  1.0000
  C   C27       1.0  0.7798932221226379  0.491281385759031  0.3665131821213948  1.0000
  C   C28       1.0  0.22010623426081105  0.508716019958328  0.6334881095785292  1.0000
  C   C29       1.0  0.21021392033770067  0.9597011450334988  0.8384659468760844  1.0000
  C   C30       1.0  0.7897828815395938  0.0402849226332194  0.1615294490277464  1.0000
  C   C31       1.0  0.5343316434743244  0.7684718615387139  0.46812810483232437  1.0000
  C   C32       1.0  0.46567929145363246  0.23152664596192102  0.5318726101362117  1.0000
  C   C33       1.0  0.3349655244043105  0.8019416708857888  0.3521917630223541  1.0000
  C   C34       1.0  0.6650659624135146  0.19807606528409138  0.6478173588802323  1.0000
  C   C35       1.0  0.4977411788743709  0.8923267688212774  0.3601054316833441  1.0000
  C   C36       1.0  0.5022509709264825  0.10766835646534638  0.6399033028233917  1.0000
  C   C37       1.0  0.8138822173653109  0.9356929191412391  0.4672921140829516  1.0000
  C   C38       1.0  0.18613145610791548  0.0643044259002892  0.5327126394656645  1.0000
  C   C39       1.0  0.8961543259442167  0.02980758462811651  0.42167495244409997  1.0000
  C   C40       1.0  0.10385661548799864  0.9701909172498585  0.5783271410302504  1.0000
  C   C41       1.0  0.08209185717903007  0.09371408678461528  0.4539564289764968  1.0000
  C   C42       1.0  0.9179177888809206  0.9062855529301215  0.5460465211718457  1.0000
  N   N1        1.0  0.3596761447782342  0.7256517835811281  0.4199381981393132  1.0000
  N   N2        1.0  0.6403265047641822  0.2743490306105371  0.5800611912307403  1.0000
  N   N3        1.0  0.6236037576937647  0.8698296138275694  0.4337851481207196  1.0000
  N   N4        1.0  0.3764053074357321  0.13017799201075772  0.566216639865772  1.0000
  O   O1        1.0  0.2855461939064696  0.3594290315890589  0.37524097751207114  1.0000
  O   O2        1.0  0.7144651226333422  0.6405728689700326  0.6247638974353578  1.0000
  O   O3        1.0  0.42358823118899375  0.17127343493270084  0.27671692031517386  1.0000
  O   O4        1.0  0.5764130174580585  0.8287273673340535  0.7232865340886221  1.0000
  O   O5        1.0  0.9411095338099428  0.5666148031953214  0.38050913064620323  1.0000
  O   O6        1.0  0.05889652447068268  0.433378046231958  0.6194888048414741  1.0000
  O   O7        1.0  0.7224481764112128  0.4194254012617478  0.42123687737606735  1.0000
  O   O8        1.0  0.2775515235397208  0.5805742758656792  0.578764890133428  1.0000
  O   O9        1.0  0.16485497590110748  0.35216965612249845  0.1567589785082362  1.0000
  O   O10       1.0  0.8351447820719288  0.6478175429858127  0.8432354177619673  1.0000
  O   O11       1.0  0.13021561209954055  0.8656542136346983  0.7624808862401409  1.0000
  O   O12       1.0  0.86977764427607  0.1343250271973062  0.23751845529084653  1.0000
  O   O13       1.0  0.39857156739019217  0.9708159209123084  0.8661728496980601  1.0000
  O   O14       1.0  0.6014137741744605  0.0291826980538872  0.1338210825405  1.0000
