data_image0
_chemical_formula_structural       Cu4H48C84N24
_chemical_formula_sum              "Cu4 H48 C84 N24"
_cell_length_a       8.690879310051022
_cell_length_b       17.639557780700446
_cell_length_c       22.879704413568383
_cell_angle_alpha    97.14006372678523
_cell_angle_beta     89.99966259121634
_cell_angle_gamma    89.99983836281596

_space_group_name_H-M_alt    "P 1"
_space_group_IT_number       1

loop_
  _space_group_symop_operation_xyz
  'x, y, z'

loop_
  _atom_site_type_symbol
  _atom_site_label
  _atom_site_symmetry_multiplicity
  _atom_site_fract_x
  _atom_site_fract_y
  _atom_site_fract_z
  _atom_site_occupancy
  Cu  Cu1       1.0  0.9560220741168022  0.43289768213704594  0.2473887308610685  1.0000
  Cu  Cu2       1.0  0.4560262131834491  0.5671082793590257  0.2526117617860564  1.0000
  Cu  Cu3       1.0  0.043968488168225406  0.5671030894339565  0.7526116030068906  1.0000
  Cu  Cu4       1.0  0.5439770060610415  0.4328919067526867  0.7473872084062165  1.0000
  H   H1        1.0  0.23682515887274747  0.3072161696177104  0.49339339136060534  1.0000
  H   H2        1.0  0.8307124610207095  0.3034108862725872  0.305326924414473  1.0000
  H   H3        1.0  0.9247682985185863  0.20893889435120627  0.3702711403876577  1.0000
  H   H4        1.0  0.34275527105526743  0.34245357634578966  0.3948262294525051  1.0000
  H   H5        1.0  0.2339886662353337  0.42829358010060037  0.3257210095397483  1.0000
  H   H6        1.0  0.341910065645628  0.0445340845382418  0.438499328804376  1.0000
  H   H7        1.0  0.3895755406807949  0.2728503426638794  0.7248530849339474  1.0000
  H   H8        1.0  0.29432257851689064  0.18767317849403747  0.6381303156080733  1.0000
  H   H9        1.0  0.5051290563852504  0.34141947131575273  0.5281453244813505  1.0000
  H   H10       1.0  0.5961994512655124  0.41919664279313895  0.6203304893071574  1.0000
  H   H11       1.0  0.026604919648939098  0.13803082152551127  0.5364341745358203  1.0000
  H   H12       1.0  0.8050589041165636  0.06421543718023769  0.5688733936766751  1.0000
  H   H13       1.0  0.7368256011181697  0.6927850024625072  0.0066036646759570754  1.0000
  H   H14       1.0  0.33070986289407495  0.6965907041571808  0.19467127095845874  1.0000
  H   H15       1.0  0.424777682582878  0.7910614001583836  0.12972804046485456  1.0000
  H   H16       1.0  0.8427589764026138  0.6575468782653644  0.10517445987822067  1.0000
  H   H17       1.0  0.7339906307879146  0.5717042115015758  0.17427968394553517  1.0000
  H   H18       1.0  0.8419093014952919  0.9554686898245986  0.06150462966810715  1.0000
  H   H19       1.0  0.8895658366662785  0.7271497751621607  0.7751475997104789  1.0000
  H   H20       1.0  0.7943190874626892  0.8123282562056175  0.8618711364155942  1.0000
  H   H21       1.0  0.0051292469089077  0.6585847445252211  0.9718552730782121  1.0000
  H   H22       1.0  0.09619577324399131  0.5808022690944483  0.8796694303512708  1.0000
  H   H23       1.0  0.5266087609754563  0.8619704994953493  0.9635661159795176  1.0000
  H   H24       1.0  0.3050627517997526  0.93578311710057  0.9311273394536174  1.0000
  H   H25       1.0  0.7631780604396069  0.6927822177622146  0.5065975503044696  1.0000
  H   H26       1.0  0.16928155322984398  0.6965795544595392  0.6946681137818658  1.0000
  H   H27       1.0  0.07523261955409309  0.7910480902035174  0.6297209658977749  1.0000
  H   H28       1.0  0.6572387431511117  0.6575454530072802  0.6051713259448234  1.0000
  H   H29       1.0  0.7659915403772215  0.5717049014946838  0.6742786822539841  1.0000
  H   H30       1.0  0.658096605489952  0.955463263815382  0.5615011356770905  1.0000
  H   H31       1.0  0.6104391848915967  0.7271492579895592  0.27514452158401775  1.0000
  H   H32       1.0  0.7056875445005628  0.8123287356971572  0.3618701205272785  1.0000
  H   H33       1.0  0.49487301222720254  0.6585846951895957  0.47185225370975553  1.0000
  H   H34       1.0  0.4037968641713617  0.5808086851939007  0.379668941201821  1.0000
  H   H35       1.0  0.9734029021102298  0.8619716545670426  0.463565437737543  1.0000
  H   H36       1.0  0.19495121888996175  0.9357876290680381  0.4311280197595622  1.0000
  H   H37       1.0  0.2631695636642277  0.3072152401732993  0.9934005555866392  1.0000
  H   H38       1.0  0.6692783981560738  0.30341173427482454  0.8053248412978178  1.0000
  H   H39       1.0  0.5752243860192792  0.2089427804761925  0.8702708502414254  1.0000
  H   H40       1.0  0.15724539339275617  0.3424596724177532  0.8948325104978991  1.0000
  H   H41       1.0  0.2660022327335482  0.42829830228224347  0.8257234283861692  1.0000
  H   H42       1.0  0.15809506836436776  0.0445332243717118  0.9384958064741156  1.0000
  H   H43       1.0  0.1104224243404985  0.2728504486408099  0.22485487054013475  1.0000
  H   H44       1.0  0.2056703241912601  0.18766853497380248  0.1381305894562814  1.0000
  H   H45       1.0  0.9948739723184232  0.3414154651352063  0.028145884639350492  1.0000
  H   H46       1.0  0.903807445998467  0.41919848833605755  0.12032959098638678  1.0000
  H   H47       1.0  0.4733944582347077  0.13802973371380026  0.0364372292633419  1.0000
  H   H48       1.0  0.6949370155052962  0.0642142877761245  0.0688783750967943  1.0000
  C   C1        1.0  0.9439919590503363  0.30945637659245046  0.3260061823452318  1.0000
  C   C2        1.0  0.9963029862363939  0.257358555337504  0.3623472250874684  1.0000
  C   C3        1.0  0.1413984580704408  0.26856651414012583  0.38882082173049065  1.0000
  C   C4        1.0  0.22749783004339014  0.33213425198247387  0.3766460642653228  1.0000
  C   C5        1.0  0.16806902175542152  0.38023297778144627  0.3384744898678775  1.0000
  C   C6        1.0  0.20149808340681116  0.21613372929735414  0.4287220726353523  1.0000
  C   C7        1.0  0.20648063934284974  0.138492829430767  0.41595656998414643  1.0000
  C   C8        1.0  0.2596143050785571  0.08626258971858648  0.46040982728861474  1.0000
  C   C9        1.0  0.3400003408357576  0.133129880577016  0.511986966048063  1.0000
  C   C10       1.0  0.32980889257817836  0.21099626214859057  0.5225277994757533  1.0000
  C   C11       1.0  0.4142730051403163  0.2860783502201798  0.6805189441174234  1.0000
  C   C12       1.0  0.3605459310980308  0.2384857710454539  0.6318748019248375  1.0000
  C   C13       1.0  0.39006231855186974  0.2577986005648468  0.5753334696538417  1.0000
  C   C14       1.0  0.4753791907258104  0.32451758893495253  0.5710093548605855  1.0000
  C   C15       1.0  0.527070790522977  0.36787456210951314  0.6220983170839033  1.0000
  C   C16       1.0  0.16215655253907355  0.10281379944495939  0.3596162888312406  1.0000
  C   C17       1.0  0.42612608489783804  0.09198688651117237  0.5498751250876521  1.0000
  C   C18       1.0  0.12487646401515916  0.041557514390426306  0.481374112553894  1.0000
  C   C19       1.0  0.0148791333461205  0.07740422028769699  0.5201929148414166  1.0000
  C   C20       1.0  0.8909573169339352  0.036322214276673  0.5387320354441627  1.0000
  C   C21       1.0  0.7550779322803861  0.47088828295098034  0.2524342428993265  1.0000
  C   C22       1.0  0.4439943211256363  0.6905444691570322  0.17399431624454556  1.0000
  C   C23       1.0  0.49630446834113684  0.7426456110928399  0.13765214287214178  1.0000
  C   C24       1.0  0.6414039491689393  0.7314354367733743  0.11118001349183967  1.0000
  C   C25       1.0  0.7275057948917192  0.6678652698329302  0.12335523566274989  1.0000
  C   C26       1.0  0.6680640075536529  0.6197712109481656  0.16152648622374238  1.0000
  C   C27       1.0  0.7015038989162647  0.7838641107088478  0.07127782346596227  1.0000
  C   C28       1.0  0.706489264150065  0.8615067297905765  0.08404478016016977  1.0000
  C   C29       1.0  0.759617573400341  0.913740312272182  0.03959257779061427  1.0000
  C   C30       1.0  0.8400152784019426  0.8668749101409575  0.9880155586967232  1.0000
  C   C31       1.0  0.8298152342262026  0.7890022433700706  0.9774724370105901  1.0000
  C   C32       1.0  0.9142649850202033  0.7139194054042617  0.8194784143976362  1.0000
  C   C33       1.0  0.8605380297136732  0.761518402387395  0.8681267476015222  1.0000
  C   C34       1.0  0.8900651500273893  0.7422032397595544  0.9246682422588036  1.0000
  C   C35       1.0  0.9753765822363362  0.6754829239409971  0.9289889883821516  1.0000
  C   C36       1.0  0.027061094087436302  0.6321278913123435  0.8779011996151384  1.0000
  C   C37       1.0  0.6621790514124868  0.8971830008973002  0.14038666149471618  1.0000
  C   C38       1.0  0.926148283600533  0.9080171984333986  0.9501288927404161  1.0000
  C   C39       1.0  0.6248775036212139  0.95844446122323  0.01862632464521135  1.0000
  C   C40       1.0  0.5148823748581323  0.9225999734875715  0.9798072219132834  1.0000
  C   C41       1.0  0.3909639862686091  0.9636756110905652  0.9612680037925898  1.0000
  C   C42       1.0  0.2550858188737167  0.5291203355877839  0.24756824696206078  1.0000
  C   C43       1.0  0.0560020551858713  0.6905352209064971  0.6739902706570433  1.0000
  C   C44       1.0  0.0036967811767851994  0.7426324472888127  0.637646989237261  1.0000
  C   C45       1.0  0.8585990080585546  0.7314284971393121  0.6111746256247912  1.0000
  C   C46       1.0  0.7724892803783304  0.6678624968112956  0.6233517240637738  1.0000
  C   C47       1.0  0.8319215405370954  0.6197666464422226  0.6615253042042467  1.0000
  C   C48       1.0  0.7985051358848027  0.7838618438762738  0.5712725508483203  1.0000
  C   C49       1.0  0.7935271824748541  0.8614999012740012  0.5840391102822905  1.0000
  C   C50       1.0  0.7403923660688677  0.9137381535796149  0.5395878815297478  1.0000
  C   C51       1.0  0.6600017277752952  0.8668737193192724  0.488010998502716  1.0000
  C   C52       1.0  0.6701943267011146  0.788999896473065  0.47746818766848514  1.0000
  C   C53       1.0  0.5857359672510397  0.7139229879434978  0.3194810033688639  1.0000
  C   C54       1.0  0.6394549868902075  0.7615144056488176  0.3681232932600693  1.0000
  C   C55       1.0  0.6099385994290286  0.742205565941525  0.4246641085386358  1.0000
  C   C56       1.0  0.5246171247129465  0.6754843252685275  0.4289910812912651  1.0000
  C   C57       1.0  0.4729266755644943  0.6321273285442288  0.37789993154127893  1.0000
  C   C58       1.0  0.8378386123422671  0.8971749367492305  0.640379470937681  1.0000
  C   C59       1.0  0.5738725318054351  0.9080155942993142  0.4501249247017681  1.0000
  C   C60       1.0  0.875125604594487  0.958445518896809  0.5186242383565582  1.0000
  C   C61       1.0  0.985125236521952  0.9226010935629463  0.4798052031427602  1.0000
  C   C62       1.0  0.10904475167696147  0.9636785431548629  0.46126698589486637  1.0000
  C   C63       1.0  0.24490687687836749  0.5291113083095951  0.747562488644263  1.0000
  C   C64       1.0  0.5560008436884303  0.3094574356279907  0.8260052448985602  1.0000
  C   C65       1.0  0.5036941483533965  0.2573602929206941  0.8623477762845297  1.0000
  C   C66       1.0  0.35859696876390496  0.26856879566941666  0.8888236897714491  1.0000
  C   C67       1.0  0.27249627367407914  0.3321395292178834  0.8766480812394946  1.0000
  C   C68       1.0  0.33193000660076416  0.3802318694436834  0.8384762397469173  1.0000
  C   C69       1.0  0.29850162154890114  0.21613840777344953  0.9287257263556868  1.0000
  C   C70       1.0  0.29351970821663537  0.1384957792691637  0.9159578946472351  1.0000
  C   C71       1.0  0.2403879470777781  0.08626048283423418  0.9604099435847643  1.0000
  C   C72       1.0  0.1599902420816406  0.1331253089369184  0.011986474028205393  1.0000
  C   C73       1.0  0.1701856837372375  0.21099626175549702  0.022529442283690995  1.0000
  C   C74       1.0  0.08572902919912911  0.2860779005729269  0.18051811255342184  1.0000
  C   C75       1.0  0.13944793000891306  0.23848583006870433  0.131876955679644  1.0000
  C   C76       1.0  0.10993461729622568  0.2577947081774781  0.07533489840664488  1.0000
  C   C77       1.0  0.024622034481289693  0.3245184001026614  0.07100964660132547  1.0000
  C   C78       1.0  0.9729375226117724  0.36787573213573665  0.12209895246505195  1.0000
  C   C79       1.0  0.3378368247326335  0.102820660213375  0.8596169906053248  1.0000
  C   C80       1.0  0.0738595381399207  0.0919818921340649  0.04987435020617429  1.0000
  C   C81       1.0  0.37512571559316393  0.0415574718130856  0.9813758615186216  1.0000
  C   C82       1.0  0.48512314562670167  0.07739796973459788  0.020195481240229195  1.0000
  C   C83       1.0  0.6090334797987538  0.0363223274290263  0.0387342618654927  1.0000
  C   C84       1.0  0.7449174003141225  0.4708861821281545  0.7524356608800247  1.0000
  N   N1        1.0  0.027906213851878196  0.3697821442656847  0.31353707089562016  1.0000
  N   N2        1.0  0.2604754925302685  0.25112309790728204  0.4815480757987203  1.0000
  N   N3        1.0  0.49622428494161835  0.35012130617407416  0.6765405250400107  1.0000
  N   N4        1.0  0.12692121289325087  0.07111045036375428  0.3135357804759096  1.0000
  N   N5        1.0  0.49670224524049894  0.0551662024740054  0.5796389159411675  1.0000
  N   N6        1.0  0.6337230130428038  0.500936353278533  0.2555504864730835  1.0000
  N   N7        1.0  0.5279088047005303  0.6302182946881769  0.18646388206453676  1.0000
  N   N8        1.0  0.7604777307895318  0.748880898091812  0.018450054464260263  1.0000
  N   N9        1.0  0.9962177187169629  0.6498757793703402  0.8234609615697934  1.0000
  N   N10       1.0  0.6269566182284549  0.9288841556623594  0.18646967447232035  1.0000
  N   N11       1.0  0.9967177951973625  0.9448377662840881  0.9203658082751643  1.0000
  N   N12       1.0  0.1337219147951103  0.4990650399828309  0.2444503159509139  1.0000
  N   N13       1.0  0.9720808965656358  0.6302129047009186  0.6864618765124959  1.0000
  N   N14       1.0  0.7395311786664678  0.7488753035988011  0.5184441783774076  1.0000
  N   N15       1.0  0.5037789342953828  0.6498800272849793  0.3234589849480898  1.0000
  N   N16       1.0  0.8730647469025568  0.9288760570803586  0.6864650247831746  1.0000
  N   N17       1.0  0.5032940701778158  0.9448385824526965  0.420363088452774  1.0000
  N   N18       1.0  0.36627445308884893  0.4990569487542515  0.7444452449511018  1.0000
  N   N19       1.0  0.47208405884089893  0.3697853287650261  0.8135362700225245  1.0000
  N   N20       1.0  0.2395254884159498  0.2511216156827842  0.9815530578550734  1.0000
  N   N21       1.0  0.0037820486061689996  0.3501261489593047  0.1765407870931099  1.0000
  N   N22       1.0  0.3730673123313366  0.07111837693278739  0.813535187842504  1.0000
  N   N23       1.0  0.0032923277973183  0.05516190501960949  0.07963836082417688  1.0000
  N   N24       1.0  0.866267496831675  0.5009374738040577  0.7555527963849186  1.0000
