data_image0
_chemical_formula_structural       Al4H24C47I6N4O20
_chemical_formula_sum              "Al4 H24 C47 I6 N4 O20"
_cell_length_a       6.657402999709093
_cell_length_b       20.109046231276597
_cell_length_c       23.497779298308703
_cell_angle_alpha    101.79893731832594
_cell_angle_beta     89.90845570991105
_cell_angle_gamma    91.44811820186

_space_group_name_H-M_alt    "P 1"
_space_group_IT_number       1

loop_
  _space_group_symop_operation_xyz
  'x, y, z'

loop_
  _atom_site_type_symbol
  _atom_site_label
  _atom_site_symmetry_multiplicity
  _atom_site_fract_x
  _atom_site_fract_y
  _atom_site_fract_z
  _atom_site_occupancy
  Al  Al1       1.0  0.07233015803429052  0.4987285216706924  0.4988636546603757  1.0000
  Al  Al2       1.0  0.5724094132951477  0.4997407625598598  0.5016769770849194  1.0000
  Al  Al3       1.0  0.5657241963505656  0.9984385804027415  0.999938267063726  1.0000
  Al  Al4       1.0  0.06592705200979049  0.9973030761504944  0.0010598348143701622  1.0000
  H   H1        1.0  0.11260648516884689  0.8874952765662203  0.1317058482001272  1.0000
  H   H2        1.0  0.090686642466963  0.8139180973703048  0.20662945857566936  1.0000
  H   H3        1.0  0.14405517545749547  0.7369484005899026  0.3469352186339663  1.0000
  H   H4        1.0  0.112978427696639  0.657635785236451  0.4164218516393632  1.0000
  H   H5        1.0  0.47411951365656796  0.8663569130233387  0.10562010106023224  1.0000
  H   H6        1.0  0.5855104344154753  0.6560461755776786  0.2671242066939286  1.0000
  H   H7        1.0  0.45300303718545354  0.7896243610952212  0.17848153334176686  1.0000
  H   H8        1.0  0.6214765528566842  0.7685321113286322  0.7397517690364452  1.0000
  H   H9        1.0  0.5976881955385379  0.08175284919743583  0.8482062505169948  1.0000
  H   H10       1.0  0.580268380414438  0.25495746127239033  0.6452702994038404  1.0000
  H   H11       1.0  0.5788111933324487  0.34078739245025963  0.5810729522764432  1.0000
  H   H12       1.0  0.0385763547030322  0.1613416344588785  0.9203909273780226  1.0000
  H   H13       1.0  0.04732113982382201  0.244709930862804  0.8537627069856767  1.0000
  H   H14       1.0  0.7848955003712774  0.13281399569655866  0.3120271834690413  1.0000
  H   H15       1.0  0.8209175378845969  0.21170800622844868  0.36166263517583985  1.0000
  H   H16       1.0  0.6226711130092327  0.20105755161029754  0.3098864771508119  1.0000
  H   H17       1.0  0.8732598620343308  0.19025957576234734  0.22850057847986702  1.0000
  H   H18       1.0  0.9071151085501584  0.26859285474388633  0.2778020229006728  1.0000
  H   H19       1.0  0.15418620321943174  0.14151917519130566  0.2776493750336968  1.0000
  H   H20       1.0  0.1856043711922268  0.22037264344815805  0.32739832054795664  1.0000
  H   H21       1.0  0.3304873367658345  0.5794865074193752  0.4837964105923902  1.0000
  H   H22       1.0  0.8119649012796941  0.41397099280487054  0.4682596630848296  1.0000
  H   H23       1.0  0.3114560269487044  0.9108758938502393  0.9715750857081531  1.0000
  H   H24       1.0  0.8232551059502173  0.08579989251801831  0.026666647831255802  1.0000
  C   C1        1.0  0.31931029087044743  0.4102695094442553  0.4126314261231911  1.0000
  C   C2        1.0  0.3152182820048495  0.4313787572956612  0.5738696283364035  1.0000
  C   C3        1.0  0.8317735387141523  0.587960676121071  0.5858420294493243  1.0000
  C   C4        1.0  0.8260295652963378  0.5706884351236924  0.4275328921871449  1.0000
  C   C5        1.0  0.8305870127088183  0.6135772934624413  0.3824500218282267  1.0000
  C   C6        1.0  0.6815571953573779  0.6127719447811871  0.33945421877958637  1.0000
  C   C7        1.0  0.6978442119890929  0.6566587736725681  0.3008630776716572  1.0000
  C   C8        1.0  0.8633493564434856  0.7022213460796465  0.3043236108827685  1.0000
  C   C9        1.0  0.014761256759953793  0.7023528645055778  0.34570224850889986  1.0000
  C   C10       1.0  0.996819351202717  0.6584886729509167  0.3840460789893214  1.0000
  C   C11       1.0  0.957633263010429  0.825562799858709  0.18392245329471282  1.0000
  C   C12       1.0  0.9690891386201912  0.866180642912653  0.14281626067405984  1.0000
  C   C13       1.0  0.7698997052003521  0.7981074032483307  0.19660964421049704  1.0000
  C   C14       1.0  0.7941170815083254  0.8809571055736073  0.11477487706406463  1.0000
  C   C15       1.0  0.6072952811426333  0.8541848064302257  0.1279804419999024  1.0000
  C   C16       1.0  0.5955055336667955  0.8123096575058782  0.16817491945595006  1.0000
  C   C17       1.0  0.8462104245946589  0.6362773994304832  0.6402361679573474  1.0000
  C   C18       1.0  0.9012514588513769  0.7222445491153453  0.7389825819427999  1.0000
  C   C19       1.0  0.7638234909953211  0.7690439363044703  0.7632068469589086  1.0000
  C   C20       1.0  0.789045906465283  0.8167761573043821  0.8150166655209219  1.0000
  C   C21       1.0  0.86934424461505  0.6764513829867269  0.686429636017202  1.0000
  C   C22       1.0  0.8035694060757236  0.8594458952032795  0.8600524481503983  1.0000
  C   C23       1.0  0.3191441941102368  0.13603673876227873  0.14111093677203  1.0000
  C   C24       1.0  0.27887023029666114  0.22200411918566945  0.240286618878379  1.0000
  C   C25       1.0  0.36721461594637356  0.28553975819691146  0.2544142170826689  1.0000
  C   C26       1.0  0.34473084487788713  0.328851398317376  0.3084421357042686  1.0000
  C   C27       1.0  0.3062292680373915  0.1783387195841613  0.18625292680474806  1.0000
  C   C28       1.0  0.32709642592681115  0.3661063731654437  0.3561417613452988  1.0000
  C   C29       1.0  0.31320287889664644  0.3888468839313076  0.6194907190766727  1.0000
  C   C30       1.0  0.16803361099762526  0.39175081946144985  0.6638605343908779  1.0000
  C   C31       1.0  0.1730119962574079  0.3453348110078949  0.7015719659241171  1.0000
  C   C32       1.0  0.32340899504839626  0.29556581060354153  0.6938833482268123  1.0000
  C   C33       1.0  0.46678228441516006  0.2937592254644131  0.6498121812082474  1.0000
  C   C34       1.0  0.4648923613292054  0.34076808453054513  0.6143568799070351  1.0000
  C   C35       1.0  0.4693226439360955  0.1580408235330566  0.8071754776504179  1.0000
  C   C36       1.0  0.4743753463648517  0.11628677274200071  0.847902605405025  1.0000
  C   C37       1.0  0.314714789286036  0.20552825655948948  0.810038292853271  1.0000
  C   C38       1.0  0.31927817439175504  0.1173041433761952  0.8883828378700614  1.0000
  C   C39       1.0  0.16005983750639527  0.16188614850552344  0.8894081973108428  1.0000
  C   C40       1.0  0.16351672638025147  0.20722452201155056  0.8523183189104842  1.0000
  C   C41       1.0  0.32452419242060426  0.0723203177075575  0.9315689669108167  1.0000
  C   C42       1.0  0.3184518744419266  0.08580103374512758  0.0878792622577009  1.0000
  C   C43       1.0  0.8039017191676264  0.9243693476944163  0.0702981023120729  1.0000
  C   C44       1.0  0.8130311125428237  0.9097809697591688  0.9131859314215802  1.0000
  C   C45       1.0  0.13906393688970548  0.1968055553018786  0.2827630419729132  1.0000
  C   C46       1.0  0.9187276603805331  0.2132535932638291  0.2734067367805579  1.0000
  C   C47       1.0  0.7789904136118863  0.18826082187968043  0.3166377170527497  1.0000
  I   I1        1.0  0.17945923599111782  0.7149994093232124  0.7800084610182765  1.0000
  I   I2        1.0  0.5499839767255993  0.3253585300705879  0.195383818506329  1.0000
  I   I3        1.0  0.7056090435915294  0.14807123484199283  0.7465775542554168  1.0000
  I   I4        1.0  0.946325125187208  0.3471518096131874  0.7646845094415512  1.0000
  I   I5        1.0  0.9571227941909654  0.4700325073250086  0.6777007477250052  1.0000
  I   I6        1.0  0.43594874479288853  0.5426147795081347  0.3250645133920713  1.0000
  N   N1        1.0  0.8927403697298786  0.7478932979462273  0.266460361392447  1.0000
  N   N2        1.0  0.7400041095594928  0.7547900135525154  0.2363242331893574  1.0000
  N   N3        1.0  0.34140454306891144  0.24210641624870274  0.7246599551327294  1.0000
  N   N4        1.0  0.3005594741375718  0.25738961684820794  0.7779432382751067  1.0000
  O   O1        1.0  0.4878457561258643  0.44780432791830543  0.5570455141420395  1.0000
  O   O2        1.0  0.14645402218078368  0.42790591077934453  0.43276051162578716  1.0000
  O   O3        1.0  0.9963714242825573  0.5540265525836291  0.44423937015262993  1.0000
  O   O4        1.0  0.14873907409589293  0.44458775384786253  0.552895957111545  1.0000
  O   O5        1.0  0.9984265524341537  0.5689876857756387  0.5623688958590307  1.0000
  O   O6        1.0  0.48873743195613883  0.4272530073898012  0.4371168454001547  1.0000
  O   O7        1.0  0.3253610353139038  0.5396193591924999  0.5010537565409052  1.0000
  O   O8        1.0  0.6569686884355335  0.5691982958005327  0.5663732200917693  1.0000
  O   O9        1.0  0.6559394156351602  0.5562739319065386  0.4472967965363708  1.0000
  O   O10       1.0  0.818867632121332  0.4577234667971837  0.4949361476828713  1.0000
  O   O11       1.0  0.1461798062654296  0.061048424547529095  0.0703743572570872  1.0000
  O   O12       1.0  0.4950018322950242  0.050872823455606016  0.9432581999945667  1.0000
  O   O13       1.0  0.6447123508340836  0.9272453429736559  0.9366858145777002  1.0000
  O   O14       1.0  0.4861429548655564  0.07048458704720424  0.0630961186517638  1.0000
  O   O15       1.0  0.6365920648009294  0.9449180943930032  0.055188575995394694  1.0000
  O   O16       1.0  0.15707997412012284  0.06021657327925572  0.9542846941911094  1.0000
  O   O17       1.0  0.3131139300552803  0.9563044015008656  0.9955007817189241  1.0000
  O   O18       1.0  0.9761158061203685  0.9365560323385721  0.05036327491566792  1.0000
  O   O19       1.0  0.9862027961288503  0.9320629229158897  0.9321136763137758  1.0000
  O   O20       1.0  0.8196142933604877  0.03915768777383731  0.005262585547598101  1.0000
