data_image0
_chemical_formula_structural       Al2H24C48O12F6
_chemical_formula_sum              "Al2 H24 C48 O12 F6"
_cell_length_a       3.987418773031704
_cell_length_b       28.64229685387656
_cell_length_c       28.64238843285113
_cell_angle_alpha    119.99925103555447
_cell_angle_beta     89.99994839911488
_cell_angle_gamma    90.00040937319147

_space_group_name_H-M_alt    "P 1"
_space_group_IT_number       1

loop_
  _space_group_symop_operation_xyz
  'x, y, z'

loop_
  _atom_site_type_symbol
  _atom_site_label
  _atom_site_symmetry_multiplicity
  _atom_site_fract_x
  _atom_site_fract_y
  _atom_site_fract_z
  _atom_site_occupancy
  Al  Al1       1.0  0.0037352266370262992  0.5000031684206262  0.5000000856041565  1.0000
  Al  Al2       1.0  0.0037660785630536  0.16666869812190985  0.8333338206352464  1.0000
  H   H1        1.0  0.21603208037414126  0.185709276840491  0.6993849262770411  1.0000
  H   H2        1.0  0.21998348752555327  0.239905059064938  0.6536230394118049  1.0000
  H   H3        1.0  0.7653641122125306  0.36563479244126973  0.7880832195954354  1.0000
  H   H4        1.0  0.7853654766000628  0.3083825461532183  0.8308462894681908  1.0000
  H   H5        1.0  0.7653632060795841  0.3010386331417506  0.5452532684380955  1.0000
  H   H6        1.0  0.22002317943736213  0.42675715143476356  0.6797216037595958  1.0000
  H   H7        1.0  0.21604966046288607  0.48096209953408187  0.6339700952554208  1.0000
  H   H8        1.0  0.7853451014270828  0.35829653045940524  0.50249784982892  1.0000
  H   H9        1.0  0.21609015674186335  0.01367706912110811  0.8142944405672877  1.0000
  H   H10       1.0  0.2200375915141563  0.913721211055268  0.7600956800112897  1.0000
  H   H11       1.0  0.765411038749647  0.9224616875593339  0.6343691045927926  1.0000
  H   H12       1.0  0.785421451373601  0.0224760191696872  0.6916257331380463  1.0000
  H   H13       1.0  0.7654064090824662  0.7442231139793163  0.6989596630117915  1.0000
  H   H14       1.0  0.22000152395007425  0.7529682522283067  0.5732442188861951  1.0000
  H   H15       1.0  0.21603923453859858  0.6530147202448404  0.5190394698897406  1.0000
  H   H16       1.0  0.7853844266817089  0.6442128015549994  0.6417051709097946  1.0000
  H   H17       1.0  0.21608176266376225  0.300624422095339  0.9863305535758896  1.0000
  H   H18       1.0  0.2200103566702296  0.34637440441628087  0.08628535610526457  1.0000
  H   H19       1.0  0.7653874191953989  0.2119086118660077  0.07753900614299877  1.0000
  H   H20       1.0  0.7854292943662383  0.16915831789331262  0.9775256131714724  1.0000
  H   H21       1.0  0.7654004783175309  0.4547290804749905  0.25577381013455636  1.0000
  H   H22       1.0  0.22001927163181273  0.3202704871301591  0.24704233834956568  1.0000
  H   H23       1.0  0.21604010403409282  0.3660297033528649  0.3469963321181239  1.0000
  H   H24       1.0  0.7853815985802086  0.49749265581236546  0.3557851823459187  1.0000
  C   C1        1.0  0.5033810472330413  0.46143874033008786  0.41715321863836136  1.0000
  C   C2        1.0  0.5033579817428873  0.4557182195635078  0.5385622808420862  1.0000
  C   C3        1.0  0.5033761811433094  0.5828503420528361  0.544284795631121  1.0000
  C   C4        1.0  0.5033962806275694  0.21095869868970843  0.7947807247675343  1.0000
  C   C5        1.0  0.503403160160822  0.08382738647919277  0.7890469258755245  1.0000
  C   C6        1.0  0.5034058173721049  0.2052238240979415  0.9161734174356437  1.0000
  C   C7        1.0  0.5018598395084267  0.24369167299121108  0.7677226912107996  1.0000
  C   C8        1.0  0.3424832218809683  0.22463132946961628  0.7177859256727073  1.0000
  C   C9        1.0  0.3445706170203948  0.2550616754411548  0.6923224765621682  1.0000
  C   C10       1.0  0.49570468436407816  0.30646649165684864  0.7175343468348884  1.0000
  C   C11       1.0  0.6482297601733932  0.32596968753834665  0.7683779871177946  1.0000
  C   C12       1.0  0.657836620885014  0.2943285536438363  0.7924875296418248  1.0000
  C   C13       1.0  0.4948955531840723  0.34040243542219856  0.6930935149358958  1.0000
  C   C14       1.0  0.4948803065767818  0.3262605713831943  0.6402424393064904  1.0000
  C   C15       1.0  0.6482557958290371  0.3407001227861385  0.5649598141164702  1.0000
  C   C16       1.0  0.4957163501174548  0.36020285455015955  0.6158071398671935  1.0000
  C   C17       1.0  0.3446122857300153  0.4116037711648416  0.6410184527457118  1.0000
  C   C18       1.0  0.342468873829084  0.4420407479130544  0.6155616360359701  1.0000
  C   C19       1.0  0.5018648940099625  0.4229831340594996  0.5656210263936642  1.0000
  C   C20       1.0  0.6578217396399137  0.3723490972884914  0.5408585079051277  1.0000
  C   C21       1.0  0.5018844925082533  0.024035822846641894  0.7563114030232754  1.0000
  C   C22       1.0  0.34248967043401984  0.9931596267435333  0.7753708254075274  1.0000
  C   C23       1.0  0.34461254673442443  0.9372656562163538  0.744939654223195  1.0000
  C   C24       1.0  0.4957223311775181  0.9110751827992014  0.6935328190817598  1.0000
  C   C25       1.0  0.6482830164177072  0.9424184321361933  0.6740344347646711  1.0000
  C   C26       1.0  0.6578769861247479  0.9981688880470468  0.7056774628718754  1.0000
  C   C27       1.0  0.49490340305528946  0.8526988682299145  0.6595957234078681  1.0000
  C   C28       1.0  0.4948848420671652  0.8139902754430464  0.6737379989655493  1.0000
  C   C29       1.0  0.6482700983419106  0.7242717524640123  0.6593006128935242  1.0000
  C   C30       1.0  0.4957186121529773  0.7556122702930846  0.6397984057832672  1.0000
  C   C31       1.0  0.34459528073818285  0.7294226230437598  0.5883981578785293  1.0000
  C   C32       1.0  0.34246477873575987  0.6735228226385174  0.5579595458928422  1.0000
  C   C33       1.0  0.5018703358419073  0.6426443226460916  0.577017898861939  1.0000
  C   C34       1.0  0.6578439170918811  0.6685156831453367  0.6276499482398917  1.0000
  C   C35       1.0  0.501894061948569  0.23228254358410505  0.9759703309332932  1.0000
  C   C36       1.0  0.3424741784325319  0.28221568961252064  0.006843074811406729  1.0000
  C   C37       1.0  0.3445963243044756  0.30767653568511116  0.06274257394498754  1.0000
  C   C38       1.0  0.4956908607357703  0.28245787798868344  0.08892619490615054  1.0000
  C   C39       1.0  0.6482695950248285  0.2316164641200871  0.05758538991633334  1.0000
  C   C40       1.0  0.6578718593495052  0.20751389139765306  0.0018302850608477698  1.0000
  C   C41       1.0  0.49486118938415297  0.30688427806644103  0.14730063452196152  1.0000
  C   C42       1.0  0.4949000129689551  0.35974436297577467  0.18601865950900273  1.0000
  C   C43       1.0  0.6482765403147466  0.4350219395486972  0.2757258095168495  1.0000
  C   C44       1.0  0.4957230400200529  0.38417679681925415  0.24438985988711434  1.0000
  C   C45       1.0  0.3446070319339825  0.3589734311540409  0.27058445526684227  1.0000
  C   C46       1.0  0.3424657681920635  0.38443908329094956  0.32648473064859457  1.0000
  C   C47       1.0  0.5018733053028297  0.43437604146699  0.3573595835636921  1.0000
  C   C48       1.0  0.6578495884371802  0.45913337524545017  0.33148533530021496  1.0000
  O   O1        1.0  0.7386906738093869  0.5579701068038573  0.553084924835481  1.0000
  O   O2        1.0  0.7386969528992395  0.49512028410211406  0.4420307041844395  1.0000
  O   O3        1.0  0.738688045655074  0.44691788573056346  0.5048801265228419  1.0000
  O   O4        1.0  0.2688555774699779  0.5601409525606725  0.5097472511496547  1.0000
  O   O5        1.0  0.2688361625684763  0.49025369144744946  0.5503889770220312  1.0000
  O   O6        1.0  0.268860548910517  0.4496140641363622  0.4398641329868552  1.0000
  O   O7        1.0  0.7387277119511138  0.17154193542293653  0.8912945984549336  1.0000
  O   O8        1.0  0.7387240800554196  0.21975819094638605  0.8284606458264674  1.0000
  O   O9        1.0  0.7387189440931718  0.10870812263632952  0.7802467121944544  1.0000
  O   O10       1.0  0.26890108760411363  0.21705428474207597  0.8934688722875348  1.0000
  O   O11       1.0  0.2688935197681772  0.106533724136703  0.8235836158757903  1.0000
  O   O12       1.0  0.2688978872891212  0.1764198403440175  0.7829500174563719  1.0000
  F   F1        1.0  0.5154038003876734  0.3946536552980999  0.7295832220988885  1.0000
  F   F2        1.0  0.5153083164665871  0.27200948557898363  0.6037512377807913  1.0000
  F   F3        1.0  0.5153649765256745  0.8349409111244692  0.6053458557203226  1.0000
  F   F4        1.0  0.5153469862791127  0.831749856670356  0.7279890717792766  1.0000
  F   F5        1.0  0.5152593900263511  0.27039341919468274  0.16505914372028488  1.0000
  F   F6        1.0  0.5154029588150166  0.39622786211698713  0.16825358104937033  1.0000
