data_image0
_chemical_formula_structural       Zn4H66C94S6N4O34
_chemical_formula_sum              "Zn4 H66 C94 S6 N4 O34"
_cell_length_a       10.978679662825076
_cell_length_b       13.755061666776832
_cell_length_c       26.325012740085516
_cell_angle_alpha    90.17870046188261
_cell_angle_beta     87.53725528505892
_cell_angle_gamma    90.01975043164501

_space_group_name_H-M_alt    "P 1"
_space_group_IT_number       1

loop_
  _space_group_symop_operation_xyz
  'x, y, z'

loop_
  _atom_site_type_symbol
  _atom_site_label
  _atom_site_symmetry_multiplicity
  _atom_site_fract_x
  _atom_site_fract_y
  _atom_site_fract_z
  _atom_site_occupancy
  Zn  Zn1       1.0  0.5287707578953301  0.4000949418531264  0.5039730570490449  1.0000
  Zn  Zn2       1.0  0.5286386923882204  0.5995833846453209  0.5027841408223352  1.0000
  Zn  Zn3       1.0  0.48059470906233764  0.598498707925124  0.0821844565616061  1.0000
  Zn  Zn4       1.0  0.4811743390538083  0.39999183140555783  0.0856754458455384  1.0000
  H   H1        1.0  0.39776577873944763  0.24767024582708072  0.5660403967260876  1.0000
  H   H2        1.0  0.30838248437763127  0.08775215746357652  0.6015640124736735  1.0000
  H   H3        1.0  0.6362576616418352  0.25024450096746886  0.4404390919113298  1.0000
  H   H4        1.0  0.6353226513790702  0.7512901026178014  0.43554208652255966  1.0000
  H   H5        1.0  0.7040436096111266  0.910923873164322  0.3936522493427931  1.0000
  H   H6        1.0  0.3963242992873147  0.7471974015190174  0.560872137552046  1.0000
  H   H7        1.0  0.6509758006732227  0.40183515974771933  0.18278686618327103  1.0000
  H   H8        1.0  0.7267872332352567  0.38425912782290794  0.36650231180524173  1.0000
  H   H9        1.0  0.49769603783732186  0.650972271112565  0.6653979454044361  1.0000
  H   H10       1.0  0.49044022880725885  0.7415122133662211  0.7464279962667606  1.0000
  H   H11       1.0  0.4989046147107458  0.3396703133911174  0.6640049807018543  1.0000
  H   H12       1.0  0.4880540572519577  0.33787634391727295  0.9226103607482798  1.0000
  H   H13       1.0  0.4805972686672959  0.24757907610994329  0.8417103828937159  1.0000
  H   H14       1.0  0.4943217437788832  0.6493233313110167  0.9238498046163457  1.0000
  H   H15       1.0  0.8020320787463077  0.605931355571805  0.5946380479953534  1.0000
  H   H16       1.0  0.2540196445117359  0.5830754179360584  0.5921880123627119  1.0000
  H   H17       1.0  0.35181471886169646  0.7534647683675647  0.023643248450717604  1.0000
  H   H18       1.0  0.27274548693366535  0.9154263833177372  0.9896858945275042  1.0000
  H   H19       1.0  0.6169265286663475  0.7455627439369936  0.1300240945689382  1.0000
  H   H20       1.0  0.607063400947375  0.24444532790101903  0.14539936625448044  1.0000
  H   H21       1.0  0.6813581279831877  0.08323041969303803  0.1808171215404357  1.0000
  H   H22       1.0  0.3584383557723497  0.2537270769626901  0.03212840150266061  1.0000
  H   H23       1.0  0.7510550287585572  0.39624558212902633  0.0074079592053522  1.0000
  H   H24       1.0  0.20312972709952956  0.40871214851325294  0.9904241568715905  1.0000
  H   H25       1.0  0.1697005179111812  0.7615021538877684  0.5938558255907296  1.0000
  H   H26       1.0  0.6745058137749708  0.23378612085352307  0.3384630512705727  1.0000
  H   H27       1.0  0.3012401010293288  0.823672333251949  0.8594069720844575  1.0000
  H   H28       1.0  0.3014307150132254  0.16291671015422793  0.7285956006471609  1.0000
  H   H29       1.0  0.133385283440667  0.2407953526341657  0.002972677050280501  1.0000
  H   H30       1.0  0.6135508104214226  0.7564009527314896  0.21422907956646506  1.0000
  H   H31       1.0  0.2557350502981989  0.6038996943692893  0.35161607931730293  1.0000
  H   H32       1.0  0.35307932452352003  0.5883471295634949  0.4030490921499777  1.0000
  H   H33       1.0  0.3712427419547807  0.6895703846829238  0.3625336663618768  1.0000
  H   H34       1.0  0.33531151224102723  0.7065283555143936  0.2747931853894556  1.0000
  H   H35       1.0  0.331731479206816  0.644565204380065  0.2157053152015109  1.0000
  H   H36       1.0  0.23286968474820205  0.6093521183757888  0.26752816469517887  1.0000
  H   H37       1.0  0.8612647067624764  0.2207535358579591  0.20633924257538894  1.0000
  H   H38       1.0  0.8208820736285033  0.31062832682068403  0.16096792781853966  1.0000
  H   H39       1.0  0.944385651492631  0.33003103804696116  0.20091656916019224  1.0000
  H   H40       1.0  0.9854655456406078  0.3356400347744284  0.2903054417282362  1.0000
  H   H41       1.0  0.9139055885587268  0.2963054301464823  0.3484947238476579  1.0000
  H   H42       1.0  0.9148282758417918  0.22071890480256684  0.2938302710923821  1.0000
  H   H43       1.0  0.14076789602754047  0.45640767497265955  0.38704626473572995  1.0000
  H   H44       1.0  0.25446967706024987  0.4115141513005583  0.42691699670948685  1.0000
  H   H45       1.0  0.12003281585380422  0.34355115181974594  0.4177827034001993  1.0000
  H   H46       1.0  0.8858487627351223  0.35528225125859353  0.4262686113292062  1.0000
  H   H47       1.0  0.8036706265100407  0.46567872327213444  0.42333373942948793  1.0000
  H   H48       1.0  0.943762219221007  0.4522017241833042  0.3881238288332938  1.0000
  H   H49       1.0  0.921164956061446  0.7572485510836916  0.6853598970612043  1.0000
  H   H50       1.0  0.7950165340596483  0.6800528685532686  0.6741463731570863  1.0000
  H   H51       1.0  0.9105337939179421  0.6427513428959134  0.7152918588594943  1.0000
  H   H52       1.0  0.13101057903227087  0.6051442213203019  0.7131384350498992  1.0000
  H   H53       1.0  0.25829028472011123  0.6466647080754346  0.6751723684857185  1.0000
  H   H54       1.0  0.14011952931948457  0.728241971711235  0.6949814499755577  1.0000
  H   H55       1.0  0.06713431904383782  0.5377176768091873  0.2039644947485471  1.0000
  H   H56       1.0  0.2072072146191886  0.5406417242199667  0.16774486750770026  1.0000
  H   H57       1.0  0.1105899410104669  0.6437194266658821  0.1701069286821593  1.0000
  H   H58       1.0  0.8839461976415633  0.6510486859261776  0.17618720273509333  1.0000
  H   H59       1.0  0.7527504772188677  0.5796461357857015  0.166169003887731  1.0000
  H   H60       1.0  0.8672709156267544  0.5359351668195416  0.20554924276154907  1.0000
  H   H61       1.0  0.8620630706006693  0.2336499788664527  0.9154274978098869  1.0000
  H   H62       1.0  0.7377810244791616  0.3122355700145576  0.9321406322999835  1.0000
  H   H63       1.0  0.8486247994518051  0.34634764369145193  0.884296392567798  1.0000
  H   H64       1.0  0.06976823932225779  0.37164635944756  0.8751298772650388  1.0000
  H   H65       1.0  0.20131484186272527  0.3383812182261678  0.9084371928100269  1.0000
  H   H66       1.0  0.08275214933286176  0.25292258356395797  0.8991097267998784  1.0000
  C   C1        1.0  0.5056459987195082  0.4934827341552435  0.6033070564828478  1.0000
  C   C2        1.0  0.29092640019694477  0.5049981483757194  0.5040463999803677  1.0000
  C   C3        1.0  0.5428981753293414  0.4902476927556522  0.40241953227730687  1.0000
  C   C4        1.0  0.7633481771006246  0.5166418870540285  0.5100885428134846  1.0000
  C   C5        1.0  0.49464665145627856  0.496081820808236  0.9845179422815421  1.0000
  C   C6        1.0  0.24522868892957206  0.48904021043601653  0.07924711300014312  1.0000
  C   C7        1.0  0.4766049779643351  0.5158283179310957  0.18407903012789725  1.0000
  C   C8        1.0  0.7176423526623807  0.49297453463834284  0.08703812597840252  1.0000
  C   C9        1.0  0.446967128007465  0.20358033217969057  0.5374180463575655  1.0000
  C   C10       1.0  0.43781578512328406  0.10197061646734083  0.5364923200759862  1.0000
  C   C11       1.0  0.3631945899000328  0.048629404091435915  0.5726641468592817  1.0000
  C   C12       1.0  0.5822203918505906  0.20464301609082014  0.4663952604127601  1.0000
  C   C13       1.0  0.580959692705413  0.10319667253207851  0.4618184339976069  1.0000
  C   C14       1.0  0.6500662106075552  0.04910214442108442  0.4234732096575159  1.0000
  C   C15       1.0  0.5805600919361921  0.7952966401471928  0.46247064038439595  1.0000
  C   C16       1.0  0.5786602786583757  0.8968300886835723  0.4601187291445612  1.0000
  C   C17       1.0  0.6492432710503522  0.9498672681297294  0.422636547969745  1.0000
  C   C18       1.0  0.44434743100353546  0.7933910576655734  0.5331862408064297  1.0000
  C   C19       1.0  0.43500008685277436  0.8950201220371028  0.5346660043806608  1.0000
  C   C20       1.0  0.36138825284663056  0.9492307370376667  0.5715664228349553  1.0000
  C   C21       1.0  0.5074800338921932  0.05082191052876081  0.4981985233559953  1.0000
  C   C22       1.0  0.5058484569601589  0.9477282691995442  0.4974989099253406  1.0000
  C   C23       1.0  0.49263643914517263  0.5105314791042234  0.2405192388242057  1.0000
  C   C24       1.0  0.5859168588607986  0.4480317750804944  0.2578476062107384  1.0000
  C   C25       1.0  0.4207769865928981  0.5652833187781213  0.2746165801860414  1.0000
  C   C26       1.0  0.6659964841648714  0.39729488031347426  0.22328518772151543  1.0000
  C   C27       1.0  0.7661893831381333  0.3463706115664992  0.2384267659775361  1.0000
  C   C28       1.0  0.5271168570406813  0.4950783789227488  0.3458065803899475  1.0000
  C   C29       1.0  0.43603120439811965  0.5553512451899183  0.32809472984530436  1.0000
  C   C30       1.0  0.6053920986600047  0.4414253262616655  0.3110807158101778  1.0000
  C   C31       1.0  0.7081740622931035  0.38662814455936717  0.3262197155945189  1.0000
  C   C32       1.0  0.7900798943123419  0.34284568157072215  0.2913982551889164  1.0000
  C   C33       1.0  0.49625491732848565  0.5828688905360907  0.6865202186811459  1.0000
  C   C34       1.0  0.49253224342202623  0.5835913627486493  0.7397678905390777  1.0000
  C   C35       1.0  0.49083828252072675  0.6732585132034004  0.7674063728319853  1.0000
  C   C36       1.0  0.495420660817544  0.4063226106721346  0.6863052389536506  1.0000
  C   C37       1.0  0.4906778735552351  0.40355066234441506  0.7395263561742524  1.0000
  C   C38       1.0  0.4859556292250318  0.3147738346140231  0.768774141564073  1.0000
  C   C39       1.0  0.4895421573399473  0.40604753996443327  0.901553045097117  1.0000
  C   C40       1.0  0.4874122526414624  0.40539022155098087  0.8483733146418048  1.0000
  C   C41       1.0  0.4840185058374757  0.31582450231749  0.8207337791795553  1.0000
  C   C42       1.0  0.49191044656758004  0.5826446758411025  0.9016751849433435  1.0000
  C   C43       1.0  0.49061900877624254  0.5854605650393269  0.8485492204797254  1.0000
  C   C44       1.0  0.48999215363782866  0.6743314082578777  0.8193568823839925  1.0000
  C   C45       1.0  0.4983762446202959  0.4947117647403447  0.6602388630065903  1.0000
  C   C46       1.0  0.49039692740548446  0.49372719661185743  0.7670364042492539  1.0000
  C   C47       1.0  0.49244467328233543  0.4942127115172001  0.9277370232113924  1.0000
  C   C48       1.0  0.48922213250907726  0.4952547295581268  0.8210889870586798  1.0000
  C   C49       1.0  0.899836712041278  0.5156445209836634  0.5099400027809083  1.0000
  C   C50       1.0  0.9625360182218329  0.5570948057532022  0.5510778146517552  1.0000
  C   C51       1.0  0.9622862536113885  0.47322169334358233  0.4685955046809696  1.0000
  C   C52       1.0  0.9012071909289432  0.6005099943320718  0.5940662166708321  1.0000
  C   C53       1.0  0.9623967129330566  0.635963199914713  0.6349639672781324  1.0000
  C   C54       1.0  0.15454106822794958  0.5075572931873112  0.5069857611524142  1.0000
  C   C55       1.0  0.0918449358462468  0.4671399973502732  0.4673462880496403  1.0000
  C   C56       1.0  0.09279971118186839  0.5531591195181138  0.549461755611283  1.0000
  C   C57       1.0  0.1548294322975394  0.5897236482513865  0.5920172901836268  1.0000
  C   C58       1.0  0.09275860102464147  0.6278272036969312  0.634674837335446  1.0000
  C   C59       1.0  0.40851569636115664  0.7964610692713168  0.04829527118613441  1.0000
  C   C60       1.0  0.4055843272108178  0.8983741563910146  0.04862062254343871  1.0000
  C   C61       1.0  0.32982607517428864  0.9533259641432185  0.0162596389163667  1.0000
  C   C62       1.0  0.5562296267877115  0.7925596588558933  0.10961543267314511  1.0000
  C   C63       1.0  0.557237036659572  0.8938063880986679  0.1150535811680058  1.0000
  C   C64       1.0  0.6284825648946395  0.9461547775669392  0.150908921243861  1.0000
  C   C65       1.0  0.5518645906644863  0.2019387750436722  0.11996110223203973  1.0000
  C   C66       1.0  0.5541282957543243  0.10020988916125625  0.11974352783926182  1.0000
  C   C67       1.0  0.6271215197038416  0.045428483097396104  0.15316553873410751  1.0000
  C   C68       1.0  0.410814921914401  0.20647639114560692  0.05596925142244662  1.0000
  C   C69       1.0  0.4049385169362337  0.10495785950679702  0.0524648515931858  1.0000
  C   C70       1.0  0.3293849937208364  0.052689299477592016  0.018188578975724606  1.0000
  C   C71       1.0  0.4806615727593665  0.9477819800772312  0.0831270507255013  1.0000
  C   C72       1.0  0.4794891904796401  0.05080648655443553  0.08506412584387851  1.0000
  C   C73       1.0  0.8540057015652703  0.48940231233302717  0.08580200113159721  1.0000
  C   C74       1.0  0.9152449706240019  0.4432092572636536  0.043480025097402106  1.0000
  C   C75       1.0  0.9166412035533965  0.5299209287812731  0.12527423468750243  1.0000
  C   C76       1.0  0.8504735227168183  0.3985445698882942  0.004071288750608898  1.0000
  C   C77       1.0  0.9084631552996355  0.3577751256989714  0.9616280236025788  1.0000
  C   C78       1.0  0.1088709386556204  0.48699340679613823  0.0807921827244087  1.0000
  C   C79       1.0  0.04657722104170858  0.5264157698318997  0.12325033402860443  1.0000
  C   C80       1.0  0.045525311312282185  0.44366345284719005  0.0401029712213656  1.0000
  C   C81       1.0  0.10402213431161297  0.40377934064692056  0.9952103351019872  1.0000
  C   C82       1.0  0.03879591335689268  0.36338702710124693  0.9562107534052586  1.0000
  C   C83       1.0  0.3500893522002925  0.6112666293437458  0.3634696338885277  1.0000
  C   C84       1.0  0.3255585125953147  0.6347571243433522  0.2569026309177502  1.0000
  C   C85       1.0  0.8518528948224499  0.2993489305194786  0.19958584503309146  1.0000
  C   C86       1.0  0.9063840670733253  0.29634751434303314  0.3072886452648902  1.0000
  C   C87       1.0  0.156133494501745  0.4174812272770654  0.4226935469407422  1.0000
  C   C88       1.0  0.8952914702880364  0.43487745878045575  0.4242900233143062  1.0000
  C   C89       1.0  0.8934972468171479  0.6811460509998855  0.6796588697595496  1.0000
  C   C90       1.0  0.1595176171044557  0.6537478310685505  0.6816355407413967  1.0000
  C   C91       1.0  0.11203933119391958  0.5637353420900555  0.16842464968284793  1.0000
  C   C92       1.0  0.8513832343941488  0.5764800133574327  0.1704797259444177  1.0000
  C   C93       1.0  0.8354273147221392  0.3101741499339497  0.9213811573203332  1.0000
  C   C94       1.0  0.10222522211950752  0.3297314216311308  0.9074584726022011  1.0000
  S   S1        1.0  0.27144156297245553  0.8877130888011993  0.6196683852609937  1.0000
  S   S2        1.0  0.7485834837180007  0.10976932472823363  0.378316599273063  1.0000
  S   S3        1.0  0.4914061042277353  0.7912299743235494  0.8489392524816994  1.0000
  S   S4        1.0  0.4886823955010371  0.19787075267146298  0.7391003588148806  1.0000
  S   S5        1.0  0.23936641813516246  0.11671939962154455  0.9740900303225857  1.0000
  S   S6        1.0  0.722163844203301  0.8831223404282728  0.1939444928332605  1.0000
  N   N1        1.0  0.5179926384780413  0.25170984526032925  0.50326784381582  1.0000
  N   N2        1.0  0.5158723411163988  0.7469899351911096  0.4984519224712045  1.0000
  N   N3        1.0  0.4821144508733539  0.74684159220616  0.07813898403896502  1.0000
  N   N4        1.0  0.4820931402214228  0.2518257905915108  0.08869572447132872  1.0000
  O   O1        1.0  0.5170708599751846  0.4107565323165404  0.5821213521459897  1.0000
  O   O2        1.0  0.5002323036760713  0.5752642462259844  0.5807661899861358  1.0000
  O   O3        1.0  0.3446832461089143  0.5862181130048256  0.496758750729505  1.0000
  O   O4        1.0  0.3430698617862689  0.42309854946115183  0.507803743367468  1.0000
  O   O5        1.0  0.5610575799565537  0.5704596158873088  0.4251792842930159  1.0000
  O   O6        1.0  0.5340927200316655  0.40753274050676686  0.42402254447590354  1.0000
  O   O7        1.0  0.7098947714895446  0.43464296941441216  0.5072641555575927  1.0000
  O   O8        1.0  0.710975048892081  0.5992228795958567  0.5117399045541974  1.0000
  O   O9        1.0  0.47532385685744316  0.5782030604034535  0.005655698125096403  1.0000
  O   O10       1.0  0.5149222707540773  0.4163979545157376  0.0073164140137649  1.0000
  O   O11       1.0  0.3004400585245293  0.40818203830328076  0.0725465254133368  1.0000
  O   O12       1.0  0.29675488866027416  0.5708839373820851  0.0858728729108549  1.0000
  O   O13       1.0  0.4447525833508762  0.4381013873604048  0.16200772028555835  1.0000
  O   O14       1.0  0.4983572225014683  0.5968846678996159  0.161725786891509  1.0000
  O   O15       1.0  0.6669991193640356  0.5732807738150215  0.07747880441096562  1.0000
  O   O16       1.0  0.6622116799197072  0.41330652721892863  0.09745539489230033  1.0000
  O   O17       1.0  0.17784274135568978  0.8317235960220374  0.5848905010145488  1.0000
  O   O18       1.0  0.2056369277046599  0.9596423951842469  0.6493877292916039  1.0000
  O   O19       1.0  0.3473775018453011  0.8175339751495304  0.6438946912764151  1.0000
  O   O20       1.0  0.6487185850247812  0.16577219551094666  0.34693026733463483  1.0000
  O   O21       1.0  0.8078744059202592  0.03797884890924761  0.3463028122495828  1.0000
  O   O22       1.0  0.8198262322467612  0.17971583254723103  0.4053403010044364  1.0000
  O   O23       1.0  0.36092780682350417  0.7935889849112457  0.8810892931423311  1.0000
  O   O24       1.0  0.4873370948361355  0.8644831333539716  0.8101841029464225  1.0000
  O   O25       1.0  0.5810641885490568  0.792979677763242  0.8870375838379021  1.0000
  O   O26       1.0  0.36357278036789603  0.1976028684427931  0.7078722617148261  1.0000
  O   O27       1.0  0.47622179654929647  0.12462034836088526  0.7778811524209887  1.0000
  O   O28       1.0  0.585117561183921  0.1951811090205525  0.7005716777031239  1.0000
  O   O29       1.0  0.1472801577918545  0.17187547892390853  0.013143607945771402  1.0000
  O   O30       1.0  0.17304883305466487  0.04617871320579781  0.9459803341068851  1.0000
  O   O31       1.0  0.3158634697951257  0.18752416178450204  0.9478792492911908  1.0000
  O   O32       1.0  0.6227244731214796  0.8224808432301105  0.2279380220545804  1.0000
  O   O33       1.0  0.7719405626435218  0.9533592542494492  0.22742424904683392  1.0000
  O   O34       1.0  0.7977304813414321  0.8152406427040051  0.16519335494225368  1.0000
