data_image0
_chemical_formula_structural       Co2H24C28S6N12O12
_chemical_formula_sum              "Co2 H24 C28 S6 N12 O12"
_cell_length_a       8.447253325476005
_cell_length_b       9.718623647460277
_cell_length_c       12.922272264808676
_cell_angle_alpha    109.43793371004855
_cell_angle_beta     92.32372649073783
_cell_angle_gamma    107.11351757626451

_space_group_name_H-M_alt    "P 1"
_space_group_IT_number       1

loop_
  _space_group_symop_operation_xyz
  'x, y, z'

loop_
  _atom_site_type_symbol
  _atom_site_label
  _atom_site_symmetry_multiplicity
  _atom_site_fract_x
  _atom_site_fract_y
  _atom_site_fract_z
  _atom_site_occupancy
  Co  Co1       1.0  0.8239794230963611  0.8177757803875991  0.6666071505664848  1.0000
  Co  Co2       1.0  0.17602273312597558  0.1822337765369113  0.3333958757910623  1.0000
  H   H1        1.0  0.9939666361544467  0.7873459119096394  0.4792592682456133  1.0000
  H   H2        1.0  0.006029467538588974  0.2126567494321492  0.5207426668801318  1.0000
  H   H3        1.0  0.16059740368711295  0.9839216542973472  0.6541197777143425  1.0000
  H   H4        1.0  0.8394005045597126  0.0160728738147071  0.34587788657498214  1.0000
  H   H5        1.0  0.9510535307852023  0.8244352103035196  0.8948738851522863  1.0000
  H   H6        1.0  0.048954668070557296  0.17556156194168443  0.105124619320712  1.0000
  H   H7        1.0  0.8007595810806761  0.3178151782170033  0.25144986541037184  1.0000
  H   H8        1.0  0.1992269933602769  0.6821841230686729  0.748556393595436  1.0000
  H   H9        1.0  0.6445341095472301  0.4664256549544277  0.5732715723395005  1.0000
  H   H10       1.0  0.3554715170204473  0.5335804729147072  0.42673844686910206  1.0000
  H   H11       1.0  0.22717954539034216  0.9346875294198471  0.017881369110291735  1.0000
  H   H12       1.0  0.7728302542947886  0.06531036919110991  0.9821151355584163  1.0000
  H   H13       1.0  0.48082168746974213  0.07747316848865178  0.9532578149427096  1.0000
  H   H14       1.0  0.5191827639836787  0.9225328543423075  0.0467389896709349  1.0000
  H   H15       1.0  0.050668989385336254  0.5023011936390915  0.2180176521598014  1.0000
  H   H16       1.0  0.9493113898470679  0.4976842693891186  0.7819858045564986  1.0000
  H   H17       1.0  0.15165286980214884  0.6848014643409996  0.32595283337277436  1.0000
  H   H18       1.0  0.8483371116163242  0.31519080346288314  0.6740440530015875  1.0000
  H   H19       1.0  0.626535599172655  0.2555773142228047  0.3944700554467389  1.0000
  H   H20       1.0  0.37345695446501986  0.744425444580493  0.6055403167504352  1.0000
  H   H21       1.0  0.46460595608424876  0.0647027300828569  0.6595423867621052  1.0000
  H   H22       1.0  0.5353864616502049  0.9352929729200169  0.3404530909167747  1.0000
  H   H23       1.0  0.602337754514231  0.09617072124188301  0.7804461123825065  1.0000
  H   H24       1.0  0.39766155203331266  0.9038341728680451  0.21954949664161924  1.0000
  C   C1        1.0  0.9149125086786254  0.5569475521031676  0.35625579903047827  1.0000
  C   C2        1.0  0.08507448509999443  0.44305287698131923  0.6437476535389949  1.0000
  C   C3        1.0  0.914085643980755  0.6678790427915188  0.45781175157982557  1.0000
  C   C4        1.0  0.08590851327642207  0.3321247957963607  0.5421911923292839  1.0000
  C   C5        1.0  0.34097855126551485  0.0389582801934694  0.7974814984502177  1.0000
  C   C6        1.0  0.6590215182332385  0.9610454713756909  0.2025161726469094  1.0000
  C   C7        1.0  0.1805109471243469  0.9764421820295583  0.735607592403433  1.0000
  C   C8        1.0  0.8194893962426876  0.023555801244839403  0.2643909896834559  1.0000
  C   C9        1.0  0.6607315407447417  0.392279081121373  0.9117250253261348  1.0000
  C   C10       1.0  0.3392640810399854  0.6077188346862883  0.08826179975807241  1.0000
  C   C11       1.0  0.06256150070684889  0.8892667121839323  0.8708678787550356  1.0000
  C   C12       1.0  0.9374431528766322  0.1107300776693521  0.12912975681720706  1.0000
  C   C13       1.0  0.8078122084738338  0.4060375576851527  0.3315773498959018  1.0000
  C   C14       1.0  0.19217673054487958  0.5939617141165955  0.6684274203832531  1.0000
  C   C15       1.0  0.7180760679410056  0.48855216937271  0.5097292296011774  1.0000
  C   C16       1.0  0.2819223971410736  0.5114505157207746  0.49027742077938546  1.0000
  C   C17       1.0  0.21722494132416148  0.9511947743211593  0.938827968761885  1.0000
  C   C18       1.0  0.7827824945803883  0.0488031404648126  0.06116847363811222  1.0000
  C   C19       1.0  0.35790068356823923  0.026890857649057406  0.9021096212983581  1.0000
  C   C20       1.0  0.6421036965455471  0.973111693844537  0.09788632778644063  1.0000
  C   C21       1.0  0.03014483591600475  0.602364708475463  0.279259977071611  1.0000
  C   C22       1.0  0.9698415276947898  0.39762412556249427  0.7207375113661956  1.0000
  C   C23       1.0  0.7099846994579834  0.3717503601203234  0.4098099253389408  1.0000
  C   C24       1.0  0.2900102191560449  0.6282523625445933  0.5901981826339053  1.0000
  C   C25       1.0  0.48838744297059133  0.11252860668068371  0.7507183141462478  1.0000
  C   C26       1.0  0.5116090111120286  0.8874716711958328  0.24927530602823114  1.0000
  C   C27       1.0  0.8361373699510325  0.55061989275805  0.08610671401064002  1.0000
  C   C28       1.0  0.1638589410537463  0.4493734490981823  0.913885970603822  1.0000
  S   S1        1.0  0.9551847373761786  0.70437649131852  0.20261915805050995  1.0000
  S   S2        1.0  0.044812338174168055  0.29561568137913236  0.7973724866462322  1.0000
  S   S3        1.0  0.7279738069900856  0.5903447502180723  0.9880108204788841  1.0000
  S   S4        1.0  0.2720265395656725  0.40965317982070815  0.011981557626541007  1.0000
  S   S5        1.0  0.5329990489516376  0.31933397941172365  0.783704595756632  1.0000
  S   S6        1.0  0.46699858861563104  0.6806662637594699  0.21628595356147426  1.0000
  N   N1        1.0  0.8179871131283248  0.6354852780904636  0.5329683426798653  1.0000
  N   N2        1.0  0.18201218783894998  0.3645197091817991  0.4670381233118164  1.0000
  N   N3        1.0  0.616943402014911  0.7306323178352656  0.7924981210131251  1.0000
  N   N4        1.0  0.383060630100843  0.2693725771968829  0.20750149003684737  1.0000
  N   N5        1.0  0.8177740600586177  0.4035291703985848  0.060400593886399206  1.0000
  N   N6        1.0  0.18221947141522316  0.5964629999437889  0.9395878554165337  1.0000
  N   N7        1.0  0.04382275284075379  0.9024224030034989  0.7705803944969464  1.0000
  N   N8        1.0  0.9561827350335718  0.09757671564637602  0.2294201586771508  1.0000
  N   N9        1.0  0.727845003433316  0.9645619019616375  0.5441280697683196  1.0000
  N   N10       1.0  0.2721696581218396  0.0354430467175035  0.4558865559468614  1.0000
  N   N11       1.0  0.7163690629249614  0.31291775122306836  0.9606807941897204  1.0000
  N   N12       1.0  0.28362732260816154  0.687079008734912  0.03930654197213097  1.0000
  O   O1        1.0  0.7172810455716884  0.0646105935331605  0.5068419983141298  1.0000
  O   O2        1.0  0.28271039040958346  0.9353759178518145  0.49315815667739576  1.0000
  O   O3        1.0  0.8651986545614248  0.9935944051144999  0.6112751091068419  1.0000
  O   O4        1.0  0.1348288132300723  0.0064195611451012  0.3887242936717287  1.0000
  O   O5        1.0  0.7096642070320982  0.6474081990319506  0.7583954089005972  1.0000
  O   O6        1.0  0.2903421936473193  0.35259659997174714  0.24159495844590143  1.0000
  O   O7        1.0  0.6157533667336635  0.836927750754178  0.522624489718325  1.0000
  O   O8        1.0  0.3842672604661388  0.1630808816939719  0.4774206161094271  1.0000
  O   O9        1.0  0.510857365363421  0.7073469420236621  0.8524467804948587  1.0000
  O   O10       1.0  0.48914714593939823  0.2926428985004321  0.1475483685220027  1.0000
  O   O11       1.0  0.6428409239102563  0.8470217607248713  0.7580358464027911  1.0000
  O   O12       1.0  0.35716839220332014  0.1529912655931085  0.24197365077353794  1.0000
