data_image0
_chemical_formula_structural       Zn2H52C40N8O12
_chemical_formula_sum              "Zn2 H52 C40 N8 O12"
_cell_length_a       8.974695528
_cell_length_b       9.710835827087902
_cell_length_c       12.363
_cell_angle_alpha    90.0
_cell_angle_beta     90.0
_cell_angle_gamma    97.05729948601592

_space_group_name_H-M_alt    "P 1"
_space_group_IT_number       1

loop_
  _space_group_symop_operation_xyz
  'x, y, z'

loop_
  _atom_site_type_symbol
  _atom_site_label
  _atom_site_symmetry_multiplicity
  _atom_site_fract_x
  _atom_site_fract_y
  _atom_site_fract_z
  _atom_site_occupancy
  Zn  Zn1       1.0  0.9999993840459567  0.0  0.0  1.0000
  Zn  Zn2       1.0  0.5000015013320791  1.0376388602e-06  0.4999991911348403  1.0000
  H   H1        1.0  0.9147220642973224  0.0976304024565948  0.18103615627274652  1.0000
  H   H2        1.0  0.5852768560842492  0.9023712183353042  0.6810361562727466  1.0000
  H   H3        1.0  0.08527772118323904  0.9023712183353042  0.8189638437272535  1.0000
  H   H4        1.0  0.4147226535098908  0.0976283271788816  0.3189646525924132  1.0000
  H   H5        1.0  0.08734901558705128  0.0941678015893572  0.2196368195421812  1.0000
  H   H6        1.0  0.4126505207485635  0.9058338192025417  0.7196360106770215  1.0000
  H   H7        1.0  0.9126507698935029  0.9058338192025417  0.7803639893229786  1.0000
  H   H8        1.0  0.5873489888455836  0.0941657263116369  0.2803639893229786  1.0000
  H   H9        1.0  0.8569725311930441  0.7071104134221144  0.9819841462428229  1.0000
  H   H10       1.0  0.6430273654892459  0.2928901697309243  0.4819833373776561  1.0000
  H   H11       1.0  0.1430292068889543  0.2928891320920712  0.0180142360268576  1.0000
  H   H12       1.0  0.3569736721784409  0.7071124886998277  0.5180142360268576  1.0000
  H   H13       1.0  0.8409619295265642  0.48990977250745266  0.0930510393917316  1.0000
  H   H14       1.0  0.6590390813996548  0.5100908106455861  0.5930510393917316  1.0000
  H   H15       1.0  0.15903758006757573  0.510089773006726  0.9069457251476152  1.0000
  H   H16       1.0  0.3409608420241098  0.4899118477851729  0.40694653401278214  1.0000
  H   H17       1.0  0.1998732176920086  0.6916578955572845  0.2900380166626206  1.0000
  H   H18       1.0  0.30012743288752836  0.3083437252346073  0.7900372077974609  1.0000
  H   H19       1.0  0.8001228112271405  0.3083406123180339  0.7099636010676988  1.0000
  H   H20       1.0  0.6998766716255318  0.6916568579184315  0.2099619833373794  1.0000
  H   H21       1.0  0.20242190609256736  0.899700335916279  0.1699401439779962  1.0000
  H   H22       1.0  0.2975773543566334  0.1002992095978996  0.6699393351128364  1.0000
  H   H23       1.0  0.7975752370705107  0.1002981719590466  0.8300630914826499  1.0000
  H   H24       1.0  0.7024266122132231  0.899700335916279  0.3300606648871636  1.0000
  H   H25       1.0  0.8971264239557611  0.3869832613225483  0.2637134999595574  1.0000
  H   H26       1.0  0.6028744490272544  0.6130162841916373  0.7637134999595574  1.0000
  H   H27       1.0  0.10287169550804261  0.613014208913917  0.7362881177707692  1.0000
  H   H28       1.0  0.3971264506972289  0.3869853366002616  0.2362873089056023  1.0000
  H   H29       1.0  0.0922876470125189  0.381080133862632  0.2530615546388404  1.0000
  H   H30       1.0  0.40771397986774355  0.6189204492904068  0.7530607457736807  1.0000
  H   H31       1.0  0.9077107483376919  0.6189194116515466  0.7469392542263196  1.0000
  H   H32       1.0  0.5922869198567399  0.3810811715014921  0.2469384453611596  1.0000
  H   H33       1.0  0.13268326728013585  0.315727563344069  0.4283693278330531  1.0000
  H   H34       1.0  0.3673136267380031  0.6842709445312565  0.9283677101027266  1.0000
  H   H35       1.0  0.8673152660132855  0.6842730198089697  0.5716306721669469  1.0000
  H   H36       1.0  0.6326822642379426  0.315726525705216  0.0716306721669469  1.0000
  H   H37       1.0  0.9375597999299288  0.3023856029152512  0.4587478767289497  1.0000
  H   H38       1.0  0.5624377303212994  0.6976139425989274  0.9587470678637899  1.0000
  H   H39       1.0  0.062439709664211314  0.6976139425989274  0.5412537410013769  1.0000
  H   H40       1.0  0.4375584365410602  0.3023856029152512  0.04125212327105031  1.0000
  H   H41       1.0  0.8065814823940869  0.5158725343591755  0.4243209576963523  1.0000
  H   H42       1.0  0.693417300044274  0.4841280487938633  0.9243209576963524  1.0000
  H   H43       1.0  0.19341705089933464  0.4841280487938633  0.5756798511688075  1.0000
  H   H44       1.0  0.30657984311880426  0.5158704590814622  0.0756798511688075  1.0000
  H   H45       1.0  0.9175106928651928  0.6668801172807477  0.37431691337054224  1.0000
  H   H46       1.0  0.5824903180610335  0.3331204658722839  0.8743152956402156  1.0000
  H   H47       1.0  0.08249006891608701  0.3331204658722839  0.6256847043597844  1.0000
  H   H48       1.0  0.41750905358991014  0.6668780420030345  0.1256838954946176  1.0000
  H   H49       1.0  0.5586056606256946  0.956913667237174  0.8896958666990216  1.0000
  H   H50       1.0  0.9413964645444536  0.0430869159158647  0.3896958666990216  1.0000
  H   H51       1.0  0.4413939869116561  0.0430869159158647  0.1103049421661382  1.0000
  H   H52       1.0  0.058605411480755286  0.956913667237174  0.6103049421661382  1.0000
  C   C1        1.0  0.932692449302742  0.6972144516388141  0.0496869691822397  1.0000
  C   C2        1.0  0.5673086995666877  0.3027871691530777  0.5496861603170728  1.0000
  C   C3        1.0  0.06730831247853791  0.3027861315142246  0.9503122219526007  1.0000
  C   C4        1.0  0.4326933144017245  0.6972144516388141  0.4503122219526006  1.0000
  C   C5        1.0  0.9253744224938883  0.5771087915303212  0.1116250101108136  1.0000
  C   C6        1.0  0.5746243599444724  0.42289179162271745  0.6116258189759733  1.0000
  C   C7        1.0  0.0746239728563296  0.42289075398385734  0.8883741810240267  1.0000
  C   C8        1.0  0.4253741733489491  0.5771087915303212  0.3883741810240267  1.0000
  C   C9        1.0  0.020599661509962203  0.5730453977646306  0.2006187818490659  1.0000
  C   C10       1.0  0.4794007131831676  0.42695414774954793  0.7006171641187393  1.0000
  C   C11       1.0  0.9793974816531161  0.42695311011069487  0.7993820270160938  1.0000
  C   C12       1.0  0.5206010248988306  0.5730453977646306  0.2993812181509341  1.0000
  C   C13       1.0  0.124624925747888  0.689972770052826  0.2208371754428526  1.0000
  C   C14       1.0  0.37537447264452334  0.3100278131002128  0.720836366577693  1.0000
  C   C15       1.0  0.8753711031712681  0.3100257378224995  0.779164442287474  1.0000
  C   C16       1.0  0.6246285176246148  0.689972770052826  0.2791628245571474  1.0000
  C   C17       1.0  0.12594959752417623  0.8056290347406687  0.1548815012537403  1.0000
  C   C18       1.0  0.3740498008682351  0.19437154841237  0.6548798835234139  1.0000
  C   C19       1.0  0.8740464313949801  0.1943694731346568  0.8451209253417461  1.0000
  C   C20       1.0  0.625954303644832  0.8056290347406687  0.3451193076114194  1.0000
  C   C21       1.0  0.008154106206987406  0.44995756357988625  0.2754582221143735  1.0000
  C   C22       1.0  0.49184640642934596  0.5500430195731525  0.7754582221143735  1.0000
  C   C23       1.0  0.9918430369560908  0.5500409442954393  0.7245417778856265  1.0000
  C   C24       1.0  0.5081544932951372  0.4499586012187393  0.22454177788562651  1.0000
  C   C25       1.0  0.0438338415563635  0.3745440466996897  0.4583976381137234  1.0000
  C   C26       1.0  0.4561630524617755  0.6254544611756288  0.9583968292485636  1.0000
  C   C27       1.0  0.9561656680377837  0.6254554988144889  0.5416031707514364  1.0000
  C   C28       1.0  0.5438352049452319  0.3745440466996897  0.0416031707514364  1.0000
  C   C29       1.0  0.9203477382671537  0.5761759541974953  0.4269149882714558  1.0000
  C   C30       1.0  0.5796522963583398  0.4238256665944037  0.9269149882714558  1.0000
  C   C31       1.0  0.0796509329694715  0.4238256665944037  0.5730850117285442  1.0000
  C   C32       1.0  0.42034609899187103  0.576173878919775  0.0730842028633845  1.0000
  C   C33       1.0  0.3194625375311446  0.9890514179294527  0.9134951063657724  1.0000
  C   C34       1.0  0.18053922729232844  0.0109502028624462  0.4134951063657724  1.0000
  C   C35       1.0  0.6805382242501351  0.010949165223586  0.08650489363422761  1.0000
  C   C36       1.0  0.8194626487328803  0.9890503802905926  0.5865057024993945  1.0000
  C   C37       1.0  0.47810636083972463  0.9868889785505742  0.9487260373695676  1.0000
  C   C38       1.0  0.0218965182276776  0.0131126422413246  0.4487260373695677  1.0000
  C   C39       1.0  0.5218932866976259  0.0131116046024644  0.051273962630432414  1.0000
  C   C40       1.0  0.9781075862853896  0.9868879409117141  0.5512747714955921  1.0000
  N   N1        1.0  0.02978753887206411  0.8102932214048053  0.0718199466149017  1.0000
  N   N2        1.0  0.4702108832196217  0.1897083993870865  0.5718191377497348  1.0000
  N   N3        1.0  0.9702121086652863  0.1897073617482334  0.9281808622502652  1.0000
  N   N4        1.0  0.5297900165048617  0.8102932214048053  0.4281800533850983  1.0000
  N   N5        1.0  0.034123214105406405  0.49298429644201747  0.3873186119873822  1.0000
  N   N6        1.0  0.46587604634379426  0.5070152490721682  0.8873186119873822  1.0000
  N   N7        1.0  0.9658751812448045  0.5070152490721682  0.6126805791474581  1.0000
  N   N8        1.0  0.5341234632503529  0.49298429644201747  0.1126797702822913  1.0000
  O   O1        1.0  0.2335254681574311  0.0440955008852839  0.9780061473752327  1.0000
  O   O2        1.0  0.2664760207796277  0.9559040446288947  0.4780061473752326  1.0000
  O   O3        1.0  0.7664729271927866  0.9559040446288947  0.0219946614899271  1.0000
  O   O4        1.0  0.7335280837334395  0.0440965385241441  0.5219938526247674  1.0000
  O   O5        1.0  0.2804564062250279  0.9325862242247638  0.8224977756208034  1.0000
  O   O6        1.0  0.21954522065523457  0.067414358928275  0.3224985844859631  1.0000
  O   O7        1.0  0.7195432413123226  0.067414358928275  0.1775022243791966  1.0000
  O   O8        1.0  0.7804580455003105  0.932588299502477  0.6775022243791967  1.0000
  O   O9        1.0  0.022076071563695593  0.1139275583513637  0.1578476098034471  1.0000
  O   O10       1.0  0.47792332682870853  0.8860730248016678  0.6578468009382804  1.0000
  O   O11       1.0  0.977924690217577  0.8860730248016678  0.8421531990617197  1.0000
  O   O12       1.0  0.5220772970093606  0.1139265207125106  0.3421531990617197  1.0000
