data_image0
_chemical_formula_structural       Zn8H47C77Cl19O26
_chemical_formula_sum              "Zn8 H47 C77 Cl19 O26"
_cell_length_a       17.90318521427307
_cell_length_b       18.343995800153202
_cell_length_c       18.359835426170275
_cell_angle_alpha    61.96212699311007
_cell_angle_beta     61.08332236101696
_cell_angle_gamma    61.53834504599268

_space_group_name_H-M_alt    "P 1"
_space_group_IT_number       1

loop_
  _space_group_symop_operation_xyz
  'x, y, z'

loop_
  _atom_site_type_symbol
  _atom_site_label
  _atom_site_symmetry_multiplicity
  _atom_site_fract_x
  _atom_site_fract_y
  _atom_site_fract_z
  _atom_site_occupancy
  Zn  Zn1       1.0  0.8689907393554037  0.5395518916331669  0.5410646142670573  1.0000
  Zn  Zn2       1.0  0.04730919558793544  0.545296644825221  0.5413200460664316  1.0000
  Zn  Zn3       1.0  0.04125475311867183  0.5421012799038819  0.37113156740603875  1.0000
  Zn  Zn4       1.0  0.04965746358061552  0.37070830524462645  0.5401523581524259  1.0000
  Zn  Zn5       1.0  0.6359004148281998  0.9544363893283359  0.9574207815940172  1.0000
  Zn  Zn6       1.0  0.45672454596512324  0.9631839356353706  0.12457733625608823  1.0000
  Zn  Zn7       1.0  0.4548229031314721  0.9607126413792385  0.9513614249498875  1.0000
  Zn  Zn8       1.0  0.46371279348247196  0.12922659403271547  0.9577076666741392  1.0000
  H   H1        1.0  0.037564130420690824  0.26404989278972824  0.31607781401154267  1.0000
  H   H2        1.0  0.8505354184038081  0.8327214367641812  0.3435424080775819  1.0000
  H   H3        1.0  0.8333016199782506  0.8962532772438506  0.24071248904663634  1.0000
  H   H4        1.0  0.6264288133659334  0.7990124229318171  0.4720625903400801  1.0000
  H   H5        1.0  0.7314857711015677  0.7798925599034945  0.47526349147676683  1.0000
  H   H6        1.0  0.6508213865597484  0.8866029648641172  0.4642036150659906  1.0000
  H   H7        1.0  0.4853896496450575  0.24254409018214318  0.15102224984843096  1.0000
  H   H8        1.0  0.46997100038692  0.1826072789158033  0.2630109321809968  1.0000
  H   H9        1.0  0.4884967612403485  0.13277119397079667  0.19045679202358207  1.0000
  H   H10       1.0  0.1331475102151317  0.1106087952163506  0.316518405938517  1.0000
  H   H11       1.0  0.07622731360503818  0.13629766764174886  0.2455710852832667  1.0000
  H   H12       1.0  0.7028698664297366  0.7810371187631445  0.6199681292097952  1.0000
  H   H13       1.0  0.1955165087195638  0.08325119783612682  0.21773242699685372  1.0000
  H   H14       1.0  0.3120685195704027  0.4536670784296461  0.6257659028475261  1.0000
  H   H15       1.0  0.39017574068765276  0.38506469657468756  0.5605083333076378  1.0000
  H   H16       1.0  0.2793098519022977  0.4449051736884753  0.5542865062583006  1.0000
  H   H17       1.0  0.0954861678234309  0.20637651415511019  0.9518594292382263  1.0000
  H   H18       1.0  0.0760411557025904  0.10626457851365248  0.9867778806711557  1.0000
  H   H19       1.0  0.1740419975432275  0.1054974956578647  0.990966938911413  1.0000
  H   H20       1.0  0.040812010951000885  0.7498778782750077  0.2580957233060774  1.0000
  H   H21       1.0  0.029865312780074798  0.8626589087667114  0.20980730523520916  1.0000
  H   H22       1.0  0.09826239870994868  0.7918871915438287  0.14549353006709267  1.0000
  H   H23       1.0  0.8353002603563553  0.3656316122894268  0.7650262193238577  1.0000
  H   H24       1.0  0.19411772138349193  0.8820934514869875  0.048055237854313815  1.0000
  H   H25       1.0  0.110949260367363  0.9457677969759997  0.11718413958769977  1.0000
  H   H26       1.0  0.22164512554159194  0.9540033612990726  0.061581145141040926  1.0000
  H   H27       1.0  0.9439262250118787  0.20219742229600254  0.39802507435553036  1.0000
  H   H28       1.0  0.8458442555454295  0.20650640895602376  0.3924824278870033  1.0000
  H   H29       1.0  0.8602871839111045  0.3043234225795572  0.37401276258295024  1.0000
  H   H30       1.0  0.7487172321412244  0.607654369265397  0.9461255917593476  1.0000
  H   H31       1.0  0.8257616908245353  0.5939520283528451  0.9903531274950907  1.0000
  H   H32       1.0  0.7263049079450424  0.6870065112240837  0.9905786213151018  1.0000
  H   H33       1.0  0.6820487913147345  0.14683125294799737  0.9594141900953091  1.0000
  H   H34       1.0  0.725645646058432  0.371939132936454  0.842733682483271  1.0000
  H   H35       1.0  0.7041041200981296  0.23768340897430554  0.9453194436376577  1.0000
  H   H36       1.0  0.6031302022350074  0.2525594058336366  0.9365790085568833  1.0000
  H   H37       1.0  0.9004372727738571  0.5383912503848336  0.2845018978861662  1.0000
  H   H38       1.0  0.8069003312420834  0.5281964632383163  0.28452363773995876  1.0000
  H   H39       1.0  0.8870685696225494  0.5663023575469451  0.18454255235221245  1.0000
  H   H40       1.0  0.7997235622053438  0.6737315731172445  0.08586644168916997  1.0000
  H   H41       1.0  0.7337383920204061  0.6119519281134627  0.18070705151215088  1.0000
  H   H42       1.0  0.6807743403641381  0.718185868778093  0.12038772684667992  1.0000
  H   H43       1.0  0.8189930117374686  0.2784927263489436  0.8630045109789322  1.0000
  H   H44       1.0  0.5351850794115054  0.8715284366961665  0.39391767498238306  1.0000
  H   H45       1.0  0.5328120007005525  0.9770057566284436  0.3762027111360949  1.0000
  H   H46       1.0  0.5119935955610373  0.9590764143501075  0.30090882503882466  1.0000
  H   H47       1.0  0.776377964983979  0.9424665407947329  0.3274100231117885  1.0000
  C   C1        1.0  0.1549926276723924  0.37343602310355095  0.6234057301691464  1.0000
  C   C2        1.0  0.7991871557022422  0.69343657019035  0.3079469603634238  1.0000
  C   C3        1.0  0.7960694666135382  0.6615664919456776  0.2532046877661502  1.0000
  C   C4        1.0  0.8578762515078395  0.6369871573440876  0.3637627033481934  1.0000
  C   C5        1.0  0.7413195101318522  0.7156961248978816  0.19934103712681425  1.0000
  C   C6        1.0  0.6889789627855408  0.8025383463336337  0.19952069351766988  1.0000
  C   C7        1.0  0.6910886691955085  0.8306679707034802  0.25671503560982273  1.0000
  C   C8        1.0  0.6517063729178931  0.906565786980117  0.29103667507092024  1.0000
  C   C9        1.0  0.722016296461753  0.8490364722438385  0.34542211871781364  1.0000
  C   C10       1.0  0.16923055872814527  0.2861790377383855  0.2588610511389788  1.0000
  C   C11       1.0  0.19963118646294478  0.3112349813317294  0.29748836586525584  1.0000
  C   C12       1.0  0.7335266684811614  0.15568649292139008  0.6549138332535095  1.0000
  C   C13       1.0  0.29361577193380833  0.27983746904731527  0.2785380029438259  1.0000
  C   C14       1.0  0.35492376202873294  0.22482164853616374  0.22548595230976798  1.0000
  C   C15       1.0  0.31988930523586845  0.19852610971474147  0.19097865409003126  1.0000
  C   C16       1.0  0.8596026085708175  0.6432313832141006  0.628278107774321  1.0000
  C   C17       1.0  0.2273881276413263  0.22973369877087887  0.20937865133122815  1.0000
  C   C18       1.0  0.15253776910304853  0.22075539604075797  0.20035298052640374  1.0000
  C   C19       1.0  0.08567736376121363  0.2898531885748739  0.2538242880677259  1.0000
  C   C20       1.0  0.19549876743851508  0.24123007705127006  0.7449199314576732  1.0000
  C   C21       1.0  0.21395384830005074  0.3163004970182755  0.6790946345838763  1.0000
  C   C22       1.0  0.28794841323878734  0.33291846874522685  0.6700498455846217  1.0000
  C   C23       1.0  0.7456298625177098  0.19810776317198275  0.6950845726356008  1.0000
  C   C24       1.0  0.3365311156349974  0.27471611201487894  0.729548203240505  1.0000
  C   C25       1.0  0.314593705635879  0.2014264678793865  0.7985011584068217  1.0000
  C   C26       1.0  0.24281394590961716  0.18662271088054885  0.8029830918639433  1.0000
  C   C27       1.0  0.18084681694870852  0.13151787564244444  0.861407074768323  1.0000
  C   C28       1.0  0.13704431770232617  0.36648883654370207  0.35685983235526925  1.0000
  C   C29       1.0  0.1284272937427744  0.19287961144470236  0.7895430610213483  1.0000
  C   C30       1.0  0.24996119600908176  0.7071683518642543  0.3200421823811014  1.0000
  C   C31       1.0  0.1786103895062396  0.7124972721148666  0.3040667514017984  1.0000
  C   C32       1.0  0.15708073259169453  0.7805832153648637  0.2304701732335986  1.0000
  C   C33       1.0  0.21015026964882114  0.8374225150338643  0.17295541538288023  1.0000
  C   C34       1.0  0.7986264195205237  0.25664962686651893  0.6394770865026658  1.0000
  C   C35       1.0  0.28514813170777836  0.8270029834155678  0.18849454778281693  1.0000
  C   C36       1.0  0.30098233285174564  0.7624656612294343  0.2648053625117513  1.0000
  C   C37       1.0  0.36650689716382356  0.7180659718818915  0.3141845619950844  1.0000
  C   C38       1.0  0.3071525508721962  0.6503217873573134  0.37830079236995584  1.0000
  C   C39       1.0  0.8291790922467612  0.6960333723425122  0.7472805943105175  1.0000
  C   C40       1.0  0.13141585951193951  0.6457712149844355  0.36184276007458044  1.0000
  C   C41       1.0  0.8045997865973931  0.7037628432534928  0.6819550535697944  1.0000
  C   C42       1.0  0.7249467250340444  0.7707973027003945  0.6708805553189735  1.0000
  C   C43       1.0  0.6726065925253052  0.8257876861957028  0.7236994034176406  1.0000
  C   C44       1.0  0.6948273785689026  0.814256024597391  0.7935482249566096  1.0000
  C   C45       1.0  0.8111433337661466  0.298115084151135  0.6801349603567957  1.0000
  C   C46       1.0  0.7754931554389798  0.7478172684941525  0.8019772741682941  1.0000
  C   C47       1.0  0.8293607521455827  0.6938457701572386  0.8647149413433368  1.0000
  C   C48       1.0  0.897511669090811  0.6400699932220134  0.7938548807593692  1.0000
  C   C49       1.0  0.377971766077188  0.1398355799255171  0.13504731992642158  1.0000
  C   C50       1.0  0.6371084286035825  0.8660536353996516  0.8564345221549776  1.0000
  C   C51       1.0  0.6349384698639469  0.8632124307865893  0.1400824078620888  1.0000
  C   C52       1.0  0.8677760147100955  0.35762674951207873  0.62998608474512  1.0000
  C   C53       1.0  0.363924894044267  0.14230387012978699  0.8628867585023916  1.0000
  C   C54       1.0  0.3485017000537951  0.8785817799717818  0.12894241181870578  1.0000
  C   C55       1.0  0.6485189824340549  0.13021345056687036  0.8515880039486279  1.0000
  C   C56       1.0  0.7738717383705238  0.2846016978353417  0.7700333701079528  1.0000
  C   C57       1.0  0.834981118103272  0.26861517634686993  0.5473587362951307  1.0000
  C   C58       1.0  0.8263550975158721  0.22404885028328178  0.5094770964415503  1.0000
  C   C59       1.0  0.7747648562918387  0.1666054836108301  0.5657263004004206  1.0000
  C   C60       1.0  0.7894661458154459  0.3276882009352207  0.8117146477296443  1.0000
  C   C61       1.0  0.5517746641323881  0.9303355449216397  0.3438571141724722  1.0000
  C   C62       1.0  0.8001390698832086  0.8824153674946728  0.311772684080637  1.0000
  C   C63       1.0  0.6795347128927745  0.8277255009305619  0.4449040886327253  1.0000
  C   C64       1.0  0.4547321482294464  0.1937812751158176  0.20677903028362726  1.0000
  C   C65       1.0  0.13833519014099946  0.1322132943139565  0.24780679026302008  1.0000
  C   C66       1.0  0.31843084391901044  0.4081165992620583  0.5984729648148317  1.0000
  C   C67       1.0  0.7205699592264525  0.22830664600554937  0.8242348220667423  1.0000
  C   C68       1.0  0.1279278576881993  0.13786416199188517  0.9535424507225868  1.0000
  C   C69       1.0  0.07729543252634133  0.7963242913880532  0.21075138028462712  1.0000
  C   C70       1.0  0.18319248542915284  0.9088622556241432  0.09623208080819264  1.0000
  C   C71       1.0  0.8706491213266999  0.23527359401991524  0.4131778466325288  1.0000
  C   C72       1.0  0.7794927042107602  0.6419803735515686  0.9536180566046469  1.0000
  C   C73       1.0  0.6756949188837424  0.21564584706639772  0.9213654864290035  1.0000
  C   C74       1.0  0.8504008829646923  0.5691779413429926  0.2519101411580493  1.0000
  C   C75       1.0  0.7383888914664924  0.6781140423722076  0.14385457012615185  1.0000
  C   C76       1.0  0.7080555999620658  0.18614847209798302  0.786816013937596  1.0000
  C   C77       1.0  0.7457473739428266  0.7785518574942286  0.30827882553271735  1.0000
  Cl  Cl1       1.0  0.3357238913711456  0.31277839627062326  0.32151170528339185  1.0000
  Cl  Cl2       1.0  0.3634639669832323  0.7792582559021  0.3671466687324103  1.0000
  Cl  Cl3       1.0  0.36536484593177226  0.5421328900070534  0.37168442986931166  1.0000
  Cl  Cl4       1.0  0.25497632655419267  0.6466449789881922  0.4892143380121824  1.0000
  Cl  Cl5       1.0  0.5799573286263141  0.9099032248131563  0.698540996538604  1.0000
  Cl  Cl6       1.0  0.878765812944785  0.7484278850845384  0.8790428245716415  1.0000
  Cl  Cl7       1.0  0.004146638224682445  0.655493848065717  0.7334760870099899  1.0000
  Cl  Cl8       1.0  0.9130346910420215  0.5258952364443203  0.8364474016715565  1.0000
  Cl  Cl9       1.0  0.7619909781139852  0.10980537993648909  0.5217672450118871  1.0000
  Cl  Cl10      1.0  0.667006217480008  0.08932579349559686  0.714531861720559  1.0000
  Cl  Cl11      1.0  0.6727685042972025  0.0063301443421366  0.20598570190827573  1.0000
  Cl  Cl12      1.0  0.1565300744570592  0.25729109105081693  0.08947199828526928  1.0000
  Cl  Cl13      1.0  0.02152654406155113  0.39273982812498076  0.19965848150967958  1.0000
  Cl  Cl14      1.0  0.8933751024435705  0.3427162628249932  0.4742722599894337  1.0000
  Cl  Cl15      1.0  0.42927829872812134  0.2942365333268242  0.714282057014131  1.0000
  Cl  Cl16      1.0  0.23255470365791817  0.019216889074492396  0.8659138714201831  1.0000
  Cl  Cl17      1.0  0.1310681039212724  0.13897164609919338  0.7297342424770508  1.0000
  Cl  Cl18      1.0  0.01404864936359472  0.2576765481672467  0.832354960138055  1.0000
  Cl  Cl19      1.0  0.4802920506368337  0.6709844096101348  0.25388076607099214  1.0000
  O   O1        1.0  0.0016538668402362108  0.49897603080245284  0.4992910819960344  1.0000
  O   O2        1.0  0.3921308574142301  0.06142798902362048  0.8717219190377038  1.0000
  O   O3        1.0  0.3774383632189213  0.8961116248459644  0.1679618024217433  1.0000
  O   O4        1.0  0.13262491868561446  0.33265596637303213  0.6011332670766052  1.0000
  O   O5        1.0  0.5643217197235019  0.17129450236208746  0.8685567401071665  1.0000
  O   O6        1.0  0.3701432402388394  0.8980815151698847  0.04648649714805959  1.0000
  O   O7        1.0  0.6863536545683502  0.05090141043633169  0.889427453344645  1.0000
  O   O8        1.0  0.6762732036125031  0.8735223429186759  0.05838565279952224  1.0000
  O   O9        1.0  0.37129204931232346  0.17726119255524256  0.9036310513513898  1.0000
  O   O10       1.0  0.37744606241097495  0.061427112571848894  0.17252364889836266  1.0000
  O   O11       1.0  0.552352281634768  0.8824072638733254  0.8829525642655727  1.0000
  O   O12       1.0  0.8186149061253261  0.6298856052543372  0.5972877011489004  1.0000
  O   O13       1.0  0.8185839625738608  0.6051403222866725  0.44493672941518975  1.0000
  O   O14       1.0  0.9427963705517044  0.6096018364806214  0.6198905495569561  1.0000
  O   O15       1.0  0.10485733701528939  0.4474510465368127  0.31949691787207973  1.0000
  O   O16       1.0  0.10599673840424367  0.6308117474404753  0.4439482139121651  1.0000
  O   O17       1.0  0.9519864825850918  0.3206152474508953  0.6172500379287201  1.0000
  O   O18       1.0  0.122780931207096  0.6089041894239314  0.3237889820351114  1.0000
  O   O19       1.0  0.8249563307545315  0.4393127010897543  0.6119948245265762  1.0000
  O   O20       1.0  0.12142014556714291  0.3266203297708116  0.43830106246574746  1.0000
  O   O21       1.0  0.130440379385874  0.45583673380136236  0.6053876641227731  1.0000
  O   O22       1.0  0.9421631023685748  0.62593062191268  0.3252160325361472  1.0000
  O   O23       1.0  0.5030244614277066  0.0010695152684121023  0.9963661934482744  1.0000
  O   O24       1.0  0.41958204821227696  0.1738408294619802  0.05525818813937634  1.0000
  O   O25       1.0  0.6795511239455579  0.8867594567012488  0.878866427097762  1.0000
  O   O26       1.0  0.5517114341046465  0.9006615292084275  0.17639804700868228  1.0000
