data_image0
_chemical_formula_structural       Cd4H38C50N14Cl8
_chemical_formula_sum              "Cd4 H38 C50 N14 Cl8"
_cell_length_a       11.148219585589485
_cell_length_b       11.148276650602861
_cell_length_c       11.925623417749614
_cell_angle_alpha    75.03593750497818
_cell_angle_beta     75.03625450287709
_cell_angle_gamma    82.55257200674787

_space_group_name_H-M_alt    "P 1"
_space_group_IT_number       1

loop_
  _space_group_symop_operation_xyz
  'x, y, z'

loop_
  _atom_site_type_symbol
  _atom_site_label
  _atom_site_symmetry_multiplicity
  _atom_site_fract_x
  _atom_site_fract_y
  _atom_site_fract_z
  _atom_site_occupancy
  Cd  Cd1       1.0  0.5004528382635272  0.05254021718198489  0.639078328704656  1.0000
  Cd  Cd2       1.0  0.9474626065420609  0.49954844771812634  0.8609241311392493  1.0000
  Cd  Cd3       1.0  0.4995474701832094  0.9474619304426495  0.36092440076136273  1.0000
  Cd  Cd4       1.0  0.05253776803967012  0.5004527693093904  0.13907880529493608  1.0000
  H   H1        1.0  0.6750900834327284  0.0627445352721665  0.8293725494987566  1.0000
  H   H2        1.0  0.9372529976825066  0.3249115785102886  0.6706349596126913  1.0000
  H   H3        1.0  0.3249116861242457  0.9372501747375421  0.17062993378728214  1.0000
  H   H4        1.0  0.06274439562147903  0.675092422064189  0.3293671856181533  1.0000
  H   H5        1.0  0.737452311491744  0.9266199681615603  0.013195238365483367  1.0000
  H   H6        1.0  0.0733695644626735  0.2625588022078063  0.48680609828590343  1.0000
  H   H7        1.0  0.2625562921808537  0.07337011818839297  0.9868042001158484  1.0000
  H   H8        1.0  0.9266218700624052  0.7374507692439136  0.5131927856596903  1.0000
  H   H9        1.0  0.6310295603879227  0.7277989305815493  0.11381161093534335  1.0000
  H   H10       1.0  0.27219177943631934  0.36897865764479576  0.38618539722914136  1.0000
  H   H11       1.0  0.36897612814193087  0.2721930087182399  0.8861872433108144  1.0000
  H   H12       1.0  0.7278008554355823  0.6310272023638104  0.6138107337852077  1.0000
  H   H13       1.0  0.4667756871308486  0.674213894761614  0.02855004670727372  1.0000
  H   H14       1.0  0.32578287710979487  0.5332275318299295  0.4714497122284128  1.0000
  H   H15       1.0  0.5332248877441613  0.3257845323662138  0.9714526711921607  1.0000
  H   H16       1.0  0.6742145917706426  0.4667755476057707  0.528548442774209  1.0000
  H   H17       1.0  0.16727521476891385  0.7584267715377633  0.9497091174138887  1.0000
  H   H18       1.0  0.2415755948579986  0.832724498977363  0.5502888751333758  1.0000
  H   H19       1.0  0.8327262297779471  0.24157259713255289  0.05028981271343006  1.0000
  H   H20       1.0  0.7584212121970285  0.16727485658283564  0.4497094913494875  1.0000
  H   H21       1.0  0.9794781375688901  0.9056188629450118  0.9400531567419534  1.0000
  H   H22       1.0  0.0943825912999756  0.020518952953913996  0.5599385551191886  1.0000
  H   H23       1.0  0.02052245807730911  0.09437958499118078  0.059940327325392694  1.0000
  H   H24       1.0  0.9056144935130774  0.9794766934594886  0.44005476316140596  1.0000
  H   H25       1.0  0.008282935885972608  0.12909826160446156  0.8235169592648077  1.0000
  H   H26       1.0  0.8709024717833171  0.9917194119745006  0.6764747297429423  1.0000
  H   H27       1.0  0.9917185880139103  0.8709001897104188  0.17647630175571996  1.0000
  H   H28       1.0  0.1290969272926361  0.008282751188140498  0.32351982837708687  1.0000
  H   H29       1.0  0.22354567933714264  0.18749799239600404  0.7111397256036582  1.0000
  H   H30       1.0  0.8125043354203926  0.7764580292843064  0.7888559431392251  1.0000
  H   H31       1.0  0.7764564969466932  0.8125041733360375  0.288857521133032  1.0000
  H   H32       1.0  0.1874949880791092  0.22354505501710514  0.21114260520902667  1.0000
  H   H33       1.0  0.579424627787894  0.6114879570247636  0.8332607316269999  1.0000
  H   H34       1.0  0.3885210646788053  0.4205790378633977  0.6667364841714019  1.0000
  H   H35       1.0  0.42057335695449183  0.3885076643922856  0.1667449551959805  1.0000
  H   H36       1.0  0.6114832269875166  0.5794194065625362  0.3332636626621904  1.0000
  H   H37       1.0  0.5664615519121555  0.4335487524151985  0.7499962426635773  1.0000
  H   H38       1.0  0.4335390872095673  0.5664487422238336  0.25000752164331896  1.0000
  C   C1        1.0  0.6346676469682039  0.9739031335233361  0.8757404553131493  1.0000
  C   C2        1.0  0.026090468930213717  0.3653355051052357  0.6242654762802358  1.0000
  C   C3        1.0  0.36533305828851337  0.026093430518578493  0.12426351596191405  1.0000
  C   C4        1.0  0.9739040130076051  0.6346703522024055  0.375734405836873  1.0000
  C   C5        1.0  0.6673451658205282  0.899094343322531  0.9777359415359257  1.0000
  C   C6        1.0  0.10089603963832161  0.33266258615023486  0.522267482851845  1.0000
  C   C7        1.0  0.3326595906790573  0.1008975888152293  0.022264814635612102  1.0000
  C   C8        1.0  0.8990975121575251  0.667343265887048  0.4777334617513701  1.0000
  C   C9        1.0  0.608583484521482  0.7884331599621814  0.033363837323356856  1.0000
  C   C10       1.0  0.21155722713498187  0.3914236820782618  0.4666365920726392  1.0000
  C   C11       1.0  0.3914165626864162  0.2115596839875664  0.9666386665533935  1.0000
  C   C12       1.0  0.78843454184166  0.6085812401711977  0.533361647835271  1.0000
  C   C13       1.0  0.5187724949272907  0.7567876925568124  0.9857609386001157  1.0000
  C   C14       1.0  0.24320751983725603  0.48123239514376315  0.5142419949829601  1.0000
  C   C15       1.0  0.481227350099033  0.2432079394009605  0.014242623250666506  1.0000
  C   C16       1.0  0.7567880887592366  0.5187706737512129  0.4857582849918601  1.0000
  C   C17       1.0  0.49318520576470365  0.8362309977368765  0.8817289704675344  1.0000
  C   C18       1.0  0.16376730344296675  0.5068186055625785  0.6182739892603235  1.0000
  C   C19       1.0  0.5068162255641299  0.16376835769175094  0.11827583573474948  1.0000
  C   C20       1.0  0.8362312202962698  0.4931826103825684  0.3817268749496634  1.0000
  C   C21       1.0  0.2913034645314597  0.8944219765770712  0.8308046220975739  1.0000
  C   C22       1.0  0.10558161209394264  0.7087000608666185  0.669193804576885  1.0000
  C   C23       1.0  0.7086969194917218  0.10557924990879287  0.16919411714020777  1.0000
  C   C24       1.0  0.8944215510254099  0.29130117008031675  0.33080678383828394  1.0000
  C   C25       1.0  0.17453974684423915  0.8536562196194949  0.8967271326196735  1.0000
  C   C26       1.0  0.14634838211288337  0.8254611231890648  0.6032714476358052  1.0000
  C   C27       1.0  0.8254597089252586  0.14634500348768137  0.10327182966493345  1.0000
  C   C28       1.0  0.8536522645620013  0.17453637901665076  0.39672895891396814  1.0000
  C   C29       1.0  0.07129517023178522  0.9371038963334327  0.8920925703750909  1.0000
  C   C30       1.0  0.06290122984879086  0.9287050662279549  0.6079029317697646  1.0000
  C   C31       1.0  0.9287061495982342  0.06289734109780198  0.10790258805875652  1.0000
  C   C32       1.0  0.9370983732970258  0.07129431081833809  0.3920897289369519  1.0000
  C   C33       1.0  0.08687192127225532  0.06023374537686979  0.8267887241608277  1.0000
  C   C34       1.0  0.9397669855943108  0.9131276517215382  0.6732066102988483  1.0000
  C   C35       1.0  0.913128532662498  0.9397665542952179  0.17320854316657366  1.0000
  C   C36       1.0  0.06023068169111673  0.08687263592280199  0.3267921656082961  1.0000
  C   C37       1.0  0.20582048002393094  0.09366025194830738  0.765043535314085  1.0000
  C   C38       1.0  0.9063426194436561  0.7941817341889742  0.7349551166608987  1.0000
  C   C39       1.0  0.7941789077222836  0.9063418998643155  0.23495605944162903  1.0000
  C   C40       1.0  0.09365775891465235  0.20581948662188404  0.2650461408947322  1.0000
  C   C41       1.0  0.402820120212624  0.7006105124028252  0.7937340457541708  1.0000
  C   C42       1.0  0.2993938297164079  0.5971798868916166  0.7062651670339902  1.0000
  C   C43       1.0  0.5971823810813319  0.29938699466860186  0.20626675414123954  1.0000
  C   C44       1.0  0.7006084731725509  0.4028204119711773  0.29373501195689045  1.0000
  C   C45       1.0  0.5004589868836149  0.6079228592121807  0.7967860567741667  1.0000
  C   C46       1.0  0.3920879778862627  0.4995477458061757  0.7032089138163826  1.0000
  C   C47       1.0  0.49954357865703974  0.39207371537045765  0.2032157895286985  1.0000
  C   C48       1.0  0.6079145290725593  0.5004497669402639  0.29678936776117837  1.0000
  C   C49       1.0  0.4923619384515163  0.5076436751459922  0.7499979706099111  1.0000
  C   C50       1.0  0.5076379103513845  0.49235196059512265  0.2500039123623096  1.0000
  N   N1        1.0  0.5512952919984215  0.9413831567536308  0.8269706716333615  1.0000
  N   N2        1.0  0.05861558504043531  0.4487063871383583  0.6730325447676647  1.0000
  N   N3        1.0  0.4487053452350053  0.058614335993738095  0.17303393211281562  1.0000
  N   N4        1.0  0.9413829368105129  0.5512948269151179  0.3269691588816102  1.0000
  N   N5        1.0  0.39995836391170064  0.8115019646414369  0.8304084874943737  1.0000
  N   N6        1.0  0.18849751281450722  0.6000444181170437  0.669595059610657  1.0000
  N   N7        1.0  0.600044991947776  0.1884964688391264  0.1695952401431597  1.0000
  N   N8        1.0  0.8115028655438082  0.39995680269381484  0.33040619794497417  1.0000
  N   N9        1.0  0.3057394961747734  0.011220206737632996  0.7650550921821093  1.0000
  N   N10       1.0  0.988783167626984  0.6942651292284123  0.7349451141325642  1.0000
  N   N11       1.0  0.6942626083091952  0.9887828839165208  0.23494446590424906  1.0000
  N   N12       1.0  0.011218868833701408  0.30573889013118816  0.2650550764249004  1.0000
  N   N13       1.0  0.30611851873653256  0.693879864558319  0.7500058227298892  1.0000
  N   N14       1.0  0.6938848427878102  0.3061185745972566  0.24999538658980203  1.0000
  Cl  Cl1       1.0  0.37131558068238496  0.10837392222404667  0.46647621970419806  1.0000
  Cl  Cl2       1.0  0.8916282160701958  0.6286875366469146  0.033522084787868736  1.0000
  Cl  Cl3       1.0  0.6286855275246098  0.8916300937568663  0.5335241939000851  1.0000
  Cl  Cl4       1.0  0.10837295638351212  0.3713155468452029  0.9664793752238693  1.0000
  Cl  Cl5       1.0  0.5961434917389071  0.24030186103281168  0.630708160877866  1.0000
  Cl  Cl6       1.0  0.7596977289202371  0.40385780475202876  0.869293941831742  1.0000
  Cl  Cl7       1.0  0.4038589434200475  0.7596965766357395  0.36929243204936313  1.0000
  Cl  Cl8       1.0  0.24030271557307262  0.5961424854617119  0.13070752269206312  1.0000
