data_image0
_chemical_formula_structural       Cd2H16C18S2I2N2O12
_chemical_formula_sum              "Cd2 H16 C18 S2 I2 N2 O12"
_cell_length_a       6.798040327421345
_cell_length_b       10.211656840727267
_cell_length_c       9.97277919016431
_cell_angle_alpha    73.50433288533361
_cell_angle_beta     77.27744721731412
_cell_angle_gamma    85.48196724933605

_space_group_name_H-M_alt    "P 1"
_space_group_IT_number       1

loop_
  _space_group_symop_operation_xyz
  'x, y, z'

loop_
  _atom_site_type_symbol
  _atom_site_label
  _atom_site_symmetry_multiplicity
  _atom_site_fract_x
  _atom_site_fract_y
  _atom_site_fract_z
  _atom_site_occupancy
  Cd  Cd1       1.0  0.82005543008993  0.1648441994585212  0.6512892636323641  1.0000
  Cd  Cd2       1.0  0.17994117846852484  0.8351502141756553  0.3487072548062996  1.0000
  H   H1        1.0  0.9730989136807224  0.4177430418108374  0.6264315574840322  1.0000
  H   H2        1.0  0.0268975711869288  0.5822554927502566  0.3735629282016573  1.0000
  H   H3        1.0  0.2975893952494958  0.685293135058977  0.0935478613093322  1.0000
  H   H4        1.0  0.7023903431990208  0.31470671447537063  0.9064408910099072  1.0000
  H   H5        1.0  0.7734914052673005  0.46022178720023277  0.5660583124459748  1.0000
  H   H6        1.0  0.22650805609451655  0.5397758797726198  0.4339319128436399  1.0000
  H   H7        1.0  0.3689309926645308  0.7474127105751052  0.8264018375755525  1.0000
  H   H8        1.0  0.631069708760329  0.25259516480229377  0.1735855951880793  1.0000
  H   H9        1.0  0.7809139903582862  0.21890642624513398  0.37672528557899887  1.0000
  H   H10       1.0  0.21909910859671564  0.7810910964509999  0.62326684932421  1.0000
  H   H11       1.0  0.3510108919268974  0.9920670140621083  0.689282396618843  1.0000
  H   H12       1.0  0.6490033816657218  0.007948542118498401  0.3107139959572365  1.0000
  H   H13       1.0  0.9815710165501488  0.12676228399335085  0.3650591188568768  1.0000
  H   H14       1.0  0.018437694877782504  0.8732330053151002  0.6349392905768879  1.0000
  H   H15       1.0  0.23073408502831685  0.4087088138911172  0.8435362559658512  1.0000
  H   H16       1.0  0.769276131126212  0.5912960776052998  0.1564755292398132  1.0000
  C   C1        1.0  0.29198927823436094  0.791365594240574  0.030763668329875277  1.0000
  C   C2        1.0  0.7079952297999768  0.20863081655543436  0.9692352450310082  1.0000
  C   C3        1.0  0.32998821282082264  0.8274162108901635  0.8808148421954909  1.0000
  C   C4        1.0  0.6700080947813518  0.1725884861170357  0.11917709962005311  1.0000
  C   C5        1.0  0.3231124872472081  0.9631313140409573  0.8055235431024312  1.0000
  C   C6        1.0  0.6768914655812425  0.03687410466056211  0.19447504260298124  1.0000
  C   C7        1.0  0.2684242777276325  0.20811486105003493  0.814240922294104  1.0000
  C   C8        1.0  0.731572271701019  0.7918883226465924  0.18576441182206335  1.0000
  C   C9        1.0  0.23427824838189795  0.29973553122425056  0.8965890639839315  1.0000
  C   C10       1.0  0.7657289660960062  0.7002664479303179  0.10341991970322788  1.0000
  C   C11       1.0  0.2040431465916299  0.2543701421024593  0.04588621975173619  1.0000
  C   C12       1.0  0.7959702808474562  0.7456237499868479  0.9541218396065074  1.0000
  C   C13       1.0  0.20010610494539094  0.11454589823972582  0.12080796295823858  1.0000
  C   C14       1.0  0.7999011111374019  0.8854512802251693  0.8791942143729158  1.0000
  C   C15       1.0  0.2778363725111249  0.0647620950619086  0.8802812993676663  1.0000
  C   C16       1.0  0.7221585594864666  0.935242298028392  0.11971896353691838  1.0000
  C   C17       1.0  0.24193734894873134  0.0194472480207679  0.03287415977221288  1.0000
  C   C18       1.0  0.7580638251427416  0.9805509100807723  0.9671297202793665  1.0000
  S   S1        1.0  0.30276003057907996  0.2726991529700697  0.6264344437043403  1.0000
  S   S2        1.0  0.6972365621783825  0.7273029720784264  0.3735721564890253  1.0000
  I   I1        1.0  0.17698187900973045  0.39765578474320773  0.16452332976653844  1.0000
  I   I2        1.0  0.8230120649971582  0.6023359037609168  0.8354923630046185  1.0000
  N   N1        1.0  0.2491684992614013  0.8843393149752712  0.10331592137514184  1.0000
  N   N2        1.0  0.7508249122086071  0.1156631873413829  0.8966810475122455  1.0000
  O   O1        1.0  0.17473794224472536  0.19210691897158944  0.5788428099112506  1.0000
  O   O2        1.0  0.8252586835956779  0.8078951302998333  0.4211658113193549  1.0000
  O   O3        1.0  0.8269578177013557  0.3980999818132744  0.6465763741381634  1.0000
  O   O4        1.0  0.17304168698927216  0.6018966265114472  0.3534151172286568  1.0000
  O   O5        1.0  0.5171911920361225  0.25643350922648966  0.5635903745867948  1.0000
  O   O6        1.0  0.48280549132919504  0.7435645706721702  0.4364162373223122  1.0000
  O   O7        1.0  0.8489793510348422  0.14013371165016514  0.42926016700694436  1.0000
  O   O8        1.0  0.1510217978741792  0.8598606665212926  0.5707366511300407  1.0000
  O   O9        1.0  0.23757562735252696  0.4182410981638326  0.6002995370586532  1.0000
  O   O10       1.0  0.7624268979015556  0.5817612574502959  0.3997000522626236  1.0000
  O   O11       1.0  0.16705149977569533  0.06968491352736811  0.25938476196383675  1.0000
  O   O12       1.0  0.8329709421986422  0.930309059190627  0.7406198547165841  1.0000
