data_image0
_chemical_formula_structural       Cu2Mo2H20C14N12O8
_chemical_formula_sum              "Cu2 Mo2 H20 C14 N12 O8"
_cell_length_a       8.245155185659044
_cell_length_b       8.456090807674506
_cell_length_c       10.047918378205615
_cell_angle_alpha    103.48146949363887
_cell_angle_beta     94.67849752923571
_cell_angle_gamma    116.42717938443909

_space_group_name_H-M_alt    "P 1"
_space_group_IT_number       1

loop_
  _space_group_symop_operation_xyz
  'x, y, z'

loop_
  _atom_site_type_symbol
  _atom_site_label
  _atom_site_symmetry_multiplicity
  _atom_site_fract_x
  _atom_site_fract_y
  _atom_site_fract_z
  _atom_site_occupancy
  Cu  Cu1       1.0  1.1803341804818727e-06  0.9999999601043823  1.0800573094317254e-06  1.0000
  Cu  Cu2       1.0  0.9999993485954876  0.5000000947435552  0.999998248238427  1.0000
  Mo  Mo1       1.0  0.20024421587948646  0.2853716013579231  0.7877704551044005  1.0000
  Mo  Mo2       1.0  0.7997562761377993  0.7146306543657275  0.21222778502659886  1.0000
  H   H1        1.0  0.20870656487706907  0.2445706930734843  0.3493465406871366  1.0000
  H   H2        1.0  0.7912878021083573  0.7554315485568992  0.6506532065291067  1.0000
  H   H3        1.0  0.1623255740047896  0.7171172289013867  0.3291217016637873  1.0000
  H   H4        1.0  0.8376716916025657  0.28288088169937714  0.6708754292226757  1.0000
  H   H5        1.0  0.5576138171613964  0.7147853824841661  0.865235138134267  1.0000
  H   H6        1.0  0.4423895763781331  0.2852153992267219  0.134765016749725  1.0000
  H   H7        1.0  0.5455120716817063  0.1984853476092567  0.8245578205266993  1.0000
  H   H8        1.0  0.4544931068632962  0.8015140610048802  0.17544119551817522  1.0000
  H   H9        1.0  0.4409609008461359  0.6376971917976488  0.5606329325568851  1.0000
  H   H10       1.0  0.5590337140141841  0.36229806698574407  0.4393663880387919  1.0000
  H   H11       1.0  0.2228484049030754  0.47991783821291273  0.5852259103249366  1.0000
  H   H12       1.0  0.7771465348449313  0.5200830397061367  0.4147726047622768  1.0000
  H   H13       1.0  0.10665955472293119  0.7107481779921797  0.5614047545915781  1.0000
  H   H14       1.0  0.8933402368969466  0.2892553194020308  0.4385986647380448  1.0000
  H   H15       1.0  0.3330014917043159  0.8725719212824857  0.5642816759208743  1.0000
  H   H16       1.0  0.6669982331978375  0.1274288580744809  0.4357191858607905  1.0000
  H   H17       1.0  0.22789060078154932  0.9019241237121847  0.7963788835987273  1.0000
  H   H18       1.0  0.7721132378857406  0.0980751722465953  0.2036239862258356  1.0000
  H   H19       1.0  0.23266943110853333  0.6941478285306742  0.80105829665699  1.0000
  H   H20       1.0  0.7673363550080694  0.30585290389917924  0.198943031574224  1.0000
  C   C1        1.0  0.1903520746338074  0.34413107388319014  0.3074400855751946  1.0000
  C   C2        1.0  0.8096440454483869  0.6558697641402417  0.6925595095693282  1.0000
  C   C3        1.0  0.16974744003618272  0.5888937631564843  0.2985298591868358  1.0000
  C   C4        1.0  0.8302516134769534  0.41110563136437855  0.7014706639432831  1.0000
  C   C5        1.0  0.60202570691159  0.8574029152479525  0.8673753812063085  1.0000
  C   C6        1.0  0.39797947163341263  0.14259649336618446  0.1326236348385663  1.0000
  C   C7        1.0  0.5972260992638498  0.1064292743414086  0.8463620843975691  1.0000
  C   C8        1.0  0.40277531201734723  0.8935673833713622  0.1536360677644026  1.0000
  C   C9        1.0  0.2916922041329856  0.593248287264764  0.5397860615136878  1.0000
  C   C10       1.0  0.7083018379647472  0.4067483352299562  0.46021449121101904  1.0000
  C   C11       1.0  0.25262205710789937  0.7524533311900895  0.6002457513245503  1.0000
  C   C12       1.0  0.7473795514261639  0.24754882361755648  0.39975554239855887  1.0000
  C   C13       1.0  0.28991528068152667  0.8129703902342627  0.7600047499326621  1.0000
  C   C14       1.0  0.7100898340460591  0.18702895735948033  0.239996239647013  1.0000
  N   N1        1.0  0.1263742033892754  0.31749558815921114  0.1749415696024812  1.0000
  N   N2        1.0  0.8736243092699926  0.6825052005831792  0.8250591988892708  1.0000
  N   N3        1.0  0.1129280749792514  0.47175395771321144  0.1702499828799162  1.0000
  N   N4        1.0  0.8870710104425968  0.5282454673178377  0.8297495534827989  1.0000
  N   N5        1.0  0.22027873359570552  0.5129322849559657  0.388086167762296  1.0000
  N   N6        1.0  0.7797198109722672  0.4870685342966182  0.6119136139620522  1.0000
  N   N7        1.0  0.7727687328352673  0.9983677515030182  0.9121832242566656  1.0000
  N   N8        1.0  0.22723328601752973  0.001630230025469399  0.08781724009164552  1.0000
  N   N9        1.0  0.770810641600896  0.15527229537121906  0.8992005580235869  1.0000
  N   N10       1.0  0.22919517642441892  0.8447284675688208  0.10079978344022322  1.0000
  N   N11       1.0  0.4879286531625198  0.9207036446930487  0.8239916181687263  1.0000
  N   N12       1.0  0.5120766240089125  0.07929851246852587  0.17600896865671697  1.0000
  O   O1        1.0  0.13648109552718074  0.09485860155415078  0.8604343152780204  1.0000
  O   O2        1.0  0.8635261319938862  0.9051476490953545  0.1395692610368401  1.0000
  O   O3        1.0  0.1953886863097551  0.48060033984999956  0.9049570338785671  1.0000
  O   O4        1.0  0.8046136574307284  0.519403260814144  0.09504262496128754  1.0000
  O   O5        1.0  0.4245658884269189  0.3573953919589101  0.7552987821238233  1.0000
  O   O6        1.0  0.5754331086635601  0.6426111684701111  0.2446962470224676  1.0000
  O   O7        1.0  0.044589943350011686  0.21481451056111917  0.6289291294973793  1.0000
  O   O8        1.0  0.9554052471732037  0.7851820415277899  0.37107349005203366  1.0000
