data_image0
_chemical_formula_structural       Cd3H24Au6C42N18
_chemical_formula_sum              "Cd3 H24 Au6 C42 N18"
_cell_length_a       8.941556397051114
_cell_length_b       8.941689221724662
_cell_length_c       19.87100149197781
_cell_angle_alpha    90.00196149816614
_cell_angle_beta     89.99880261948942
_cell_angle_gamma    120.00064949893752

_space_group_name_H-M_alt    "P 1"
_space_group_IT_number       1

loop_
  _space_group_symop_operation_xyz
  'x, y, z'

loop_
  _atom_site_type_symbol
  _atom_site_label
  _atom_site_symmetry_multiplicity
  _atom_site_fract_x
  _atom_site_fract_y
  _atom_site_fract_z
  _atom_site_occupancy
  Cd  Cd1       1.0  0.6366302988172664  0.27325067583856083  0.1666887491908682  1.0000
  Cd  Cd2       1.0  0.7266994462098921  0.3633506662967035  0.5000013584641964  1.0000
  Cd  Cd3       1.0  0.6366319519949784  0.3633795593683825  0.8333146239209627  1.0000
  H   H1        1.0  0.3819245414970851  0.3814997539698978  0.09407037808724542  1.0000
  H   H2        1.0  0.618457181045784  0.00046068352908415196  0.4273620766267712  1.0000
  H   H3        1.0  0.9994768294034272  0.6179471322482752  0.7606406339110379  1.0000
  H   H4        1.0  0.6184552260513244  0.6179960486978116  0.5726413273615805  1.0000
  H   H5        1.0  0.3819275918870488  0.0004241678413094551  0.9059334275687406  1.0000
  H   H6        1.0  0.9994697941992711  0.38152638953310675  0.2393616197652904  1.0000
  H   H7        1.0  0.3672806200779277  0.6438991190334632  0.05939680583536949  1.0000
  H   H8        1.0  0.356051886384222  0.7233819733789771  0.3927037695055304  1.0000
  H   H9        1.0  0.27661999026714307  0.6326831445232342  0.7260374248967167  1.0000
  H   H10       1.0  0.35604607668124544  0.6326638899161167  0.6072986988801432  1.0000
  H   H11       1.0  0.36728426399065495  0.7233811386417627  0.940605643480211  1.0000
  H   H12       1.0  0.27661295218995724  0.6439363782313874  0.2739616557115809  1.0000
  H   H13       1.0  0.6308809974219259  0.9367626147552668  0.0785689710296325  1.0000
  H   H14       1.0  0.06317395719167979  0.694085924906368  0.41189418688639984  1.0000
  H   H15       1.0  0.3059657522069871  0.36915656547574827  0.7452829100636436  1.0000
  H   H16       1.0  0.06317109046529619  0.3690830796243815  0.5881072691369981  1.0000
  H   H17       1.0  0.6308816151531572  0.6941164600011687  0.9214300111524665  1.0000
  H   H18       1.0  0.3059607815632503  0.9368083767525943  0.25471813367938273  1.0000
  H   H19       1.0  0.8852068916432855  0.9547217865298874  0.135182073791924  1.0000
  H   H20       1.0  0.04522060367205686  0.9304515838901893  0.4685127590053924  1.0000
  H   H21       1.0  0.06959139344559166  0.11484978897446753  0.8018977325917476  1.0000
  H   H22       1.0  0.0452167009729436  0.11476389893961429  0.5314877210191186  1.0000
  H   H23       1.0  0.885208684531534  0.9304822429077783  0.8648169797134813  1.0000
  H   H24       1.0  0.06958927405506221  0.9547443658613731  0.1981016996053384  1.0000
  Au  Au1       1.0  0.09797098605807265  0.2767833059860648  0.9863928151408673  1.0000
  Au  Au2       1.0  0.7234483055718925  0.8212855692822454  0.3197235884012173  1.0000
  Au  Au3       1.0  0.17875672232395343  0.9020127000392929  0.6530672830778315  1.0000
  Au  Au4       1.0  0.7234376560014583  0.9021576326540738  0.6802777528360053  1.0000
  Au  Au5       1.0  0.09797809876366864  0.82118930727826  0.0136105947756775  1.0000
  Au  Au6       1.0  0.1787633699645994  0.27675564951388043  0.3469349832312005  1.0000
  C   C1        1.0  0.9123462553081438  0.2660036846507833  0.042898471692247114  1.0000
  C   C2        1.0  0.73411555203365  0.6463869779877881  0.37622412892444146  1.0000
  C   C3        1.0  0.35363981224423924  0.08766070915029182  0.7095505699221222  1.0000
  C   C4        1.0  0.7341085863646626  0.0877270111916173  0.6237790786615989  1.0000
  C   C5        1.0  0.9123493474653303  0.6463438611368486  0.9571039299417237  1.0000
  C   C6        1.0  0.35364937712429867  0.265994664540784  0.2904527806162919  1.0000
  C   C7        1.0  0.2868152216039306  0.994110761790189  0.0695392700513935  1.0000
  C   C8        1.0  0.005797224785077057  0.29263129458735193  0.40285307746035665  1.0000
  C   C9        1.0  0.7075328775594584  0.7133232753397817  0.736203100871876  1.0000
  C   C10       1.0  0.00579525760252855  0.7131668515891433  0.5971499857818614  1.0000
  C   C11       1.0  0.2868109980230571  0.2926987511371521  0.9304633159106713  1.0000
  C   C12       1.0  0.707543546494911  0.9942125887638011  0.2637977641100591  1.0000
  C   C13       1.0  0.48970965764626595  0.5115641179081365  0.1031564728044785  1.0000
  C   C14       1.0  0.48839282789789734  0.9781552541362899  0.43646585867882953  1.0000
  C   C15       1.0  0.021799027889059536  0.5102147557883042  0.7697647153410898  1.0000
  C   C16       1.0  0.4883867043185147  0.5102367949816297  0.5635378947377916  1.0000
  C   C17       1.0  0.4897120673021079  0.9781425731925069  0.8968467750731295  1.0000
  C   C18       1.0  0.021798745935875278  0.511585753566969  0.2302373142306138  1.0000
  C   C19       1.0  0.4833318224408812  0.6575370499097769  0.0831722189977597  1.0000
  C   C20       1.0  0.34240001974892914  0.8257759754214146  0.4164870142779479  1.0000
  C   C21       1.0  0.17419900500242846  0.5166324850564478  0.7498178990104165  1.0000
  C   C22       1.0  0.34239390312019696  0.5166210253931209  0.5835154773165527  1.0000
  C   C23       1.0  0.4833343458515388  0.8257896862460326  0.9168295299565373  1.0000
  C   C24       1.0  0.17420016681496261  0.6575722660247081  0.2501838717734445  1.0000
  C   C25       1.0  0.6284680900440874  0.818858317038561  0.094191849331061  1.0000
  C   C26       1.0  0.18109693084014128  0.809590933274997  0.4275203060026342  1.0000
  C   C27       1.0  0.19043094534126226  0.3715394906608721  0.7608815765809567  1.0000
  C   C28       1.0  0.181094815725217  0.37150906856500393  0.5724824595534201  1.0000
  C   C29       1.0  0.6284641599615598  0.8096040066926447  0.905809149924174  1.0000
  C   C30       1.0  0.19043054993005626  0.8188883311174492  0.23912066982205724  1.0000
  C   C31       1.0  0.7718774804169186  0.8289288650809677  0.1262756966434608  1.0000
  C   C32       1.0  0.17101104950373955  0.9429139861905039  0.4596073288342666  1.0000
  C   C33       1.0  0.057095066702629434  0.22813875518485088  0.7929660462154757  1.0000
  C   C34       1.0  0.17101092634744927  0.22809685000247973  0.5403939440779268  1.0000
  C   C35       1.0  0.771877322484279  0.9429456514293473  0.8737245558241895  1.0000
  C   C36       1.0  0.05709282349233308  0.8289555475793621  0.2070354201606506  1.0000
  C   C37       1.0  0.7664028197775253  0.6768450270415655  0.1476715638423158  1.0000
  C   C38       1.0  0.3231047275662249  0.08954018842602095  0.4810021058978577  1.0000
  C   C39       1.0  0.9104458221477928  0.2335888972381991  0.8143273923989156  1.0000
  C   C40       1.0  0.32310522901724437  0.2335631653821436  0.5189992834257495  1.0000
  C   C41       1.0  0.7664047045861366  0.08955980257297813  0.8523290726682049  1.0000
  C   C42       1.0  0.9104392680769777  0.676854230322014  0.18567299949349805  1.0000
  N   N1        1.0  0.8024624227519582  0.25785360528768536  0.0773164144783891  1.0000
  N   N2        1.0  0.7421811626788327  0.5445973867468508  0.4106327479695153  1.0000
  N   N3        1.0  0.4553844820685242  0.1975852949981273  0.7439508135282509  1.0000
  N   N4        1.0  0.7421786470942351  0.19758494869967053  0.5893704459192151  1.0000
  N   N5        1.0  0.8024654023094088  0.5446119895879276  0.9226876835188591  1.0000
  N   N6        1.0  0.4553913992601224  0.2578054215516657  0.25605337065452016  1.0000
  N   N7        1.0  0.39843471812388037  0.09431825689331662  0.1037258879767293  1.0000
  N   N8        1.0  0.9055858589341668  0.30403375560862117  0.4370339376729505  1.0000
  N   N9        1.0  0.6960407487049167  0.6016600845411657  0.7703757134702515  1.0000
  N   N10       1.0  0.9055862758730767  0.601552050115998  0.5629684754441016  1.0000
  N   N11       1.0  0.39843167254832684  0.30411335113736004  0.89627788965025  1.0000
  N   N12       1.0  0.6960434019364571  0.09438027542689294  0.2296255457567895  1.0000
  N   N13       1.0  0.626972839042736  0.5216095575172516  0.1343465840200508  1.0000
  N   N14       1.0  0.4783354966996924  0.10535555019431786  0.46766598656859065  1.0000
  N   N15       1.0  0.8945944121187284  0.3729644922469714  0.8009638353943203  1.0000
  N   N16       1.0  0.47833565509186127  0.3729785288919984  0.5323366488727785  1.0000
  N   N17       1.0  0.626974971514315  0.10536455722849762  0.8656547925170415  1.0000
  N   N18       1.0  0.8945874918988395  0.5216259931693014  0.1990380931477631  1.0000
