data_image0
_chemical_formula_structural       Cd2H20C40Br8N8O8
_chemical_formula_sum              "Cd2 H20 C40 Br8 N8 O8"
_cell_length_a       7.957373816751488
_cell_length_b       7.957434022640468
_cell_length_c       18.712512945166544
_cell_angle_alpha    86.87958809692189
_cell_angle_beta     86.87937819854817
_cell_angle_gamma    74.63345196016897

_space_group_name_H-M_alt    "P 1"
_space_group_IT_number       1

loop_
  _space_group_symop_operation_xyz
  'x, y, z'

loop_
  _atom_site_type_symbol
  _atom_site_label
  _atom_site_symmetry_multiplicity
  _atom_site_fract_x
  _atom_site_fract_y
  _atom_site_fract_z
  _atom_site_occupancy
  Cd  Cd1       1.0  0.6680676514797456  0.33194021561816095  0.7499998817818889  1.0000
  Cd  Cd2       1.0  0.33192720235301476  0.6680691479978973  0.2499988820688016  1.0000
  H   H1        1.0  0.6616632789787855  0.5678617557804982  0.6037897004630748  1.0000
  H   H2        1.0  0.4321424944235304  0.3383171590005603  0.8962073070946057  1.0000
  H   H3        1.0  0.33833528755826603  0.4321475838966577  0.39620522472515757  1.0000
  H   H4        1.0  0.5678544067224537  0.661666092416631  0.10379316276434027  1.0000
  H   H5        1.0  0.7601441547356985  0.7504075987570998  0.516686157131545  1.0000
  H   H6        1.0  0.2496042428261305  0.2398441376649814  0.9833110324426425  1.0000
  H   H7        1.0  0.2398566754990838  0.24961227914668876  0.48331270452703706  1.0000
  H   H8        1.0  0.7504012591023397  0.760135270036045  0.016689845887782398  1.0000
  H   H9        1.0  0.29880006585179336  0.1108965225784715  0.6039784726220319  1.0000
  H   H10       1.0  0.88911329011502  0.7011881759194978  0.8960234620211907  1.0000
  H   H11       1.0  0.7011987607250135  0.8891168028709231  0.3960206155738603  1.0000
  H   H12       1.0  0.11089585524374003  0.29879652139331364  0.10397931750209467  1.0000
  H   H13       1.0  0.4894299003903342  0.04640769089994021  0.7085609139864814  1.0000
  H   H14       1.0  0.9535916053993956  0.510573940162125  0.7914391112160074  1.0000
  H   H15       1.0  0.5105676123947803  0.9535964577876611  0.29143738310797557  1.0000
  H   H16       1.0  0.04640538831944952  0.48942762084305974  0.20856140584570673  1.0000
  H   H17       1.0  0.5804711210235567  0.7749159560284226  0.809687440793432  1.0000
  H   H18       1.0  0.2250802988912994  0.4195315730355561  0.6903104519324754  1.0000
  H   H19       1.0  0.41952506235048753  0.225079000272622  0.19030899717130004  1.0000
  H   H20       1.0  0.7749152760465208  0.5804751975225811  0.30968943033602864  1.0000
  C   C1        1.0  0.9219219638673692  0.0969962756130869  0.5597290757133633  1.0000
  C   C2        1.0  0.9030023724516382  0.07808672396894419  0.9402721847166614  1.0000
  C   C3        1.0  0.07809375058004524  0.9030107058071761  0.4402734743014347  1.0000
  C   C4        1.0  0.09698473012211657  0.9219095274277364  0.05972873481455569  1.0000
  C   C5        1.0  0.6301153078742202  0.6588912503002646  0.6466541306053981  1.0000
  C   C6        1.0  0.3411076232174963  0.36986917665645797  0.8533424601948378  1.0000
  C   C7        1.0  0.36988251079556983  0.34111154717174946  0.3533409875989831  1.0000
  C   C8        1.0  0.658888754385643  0.6301205910918881  0.14665678214083036  1.0000
  C   C9        1.0  0.6441984493541566  0.8577411295937127  0.5089913638136636  1.0000
  C   C10       1.0  0.14226439215724437  0.35579160486590666  0.9910082343405758  1.0000
  C   C11       1.0  0.35580503983297956  0.14227353338160498  0.4910070310886851  1.0000
  C   C12       1.0  0.8577364627802807  0.6441864809339323  0.008994405311682399  1.0000
  C   C13       1.0  0.02549711407674954  0.9254221962925939  0.5691691632203586  1.0000
  C   C14       1.0  0.07457471686519326  0.9745091277981855  0.9308339025211081  1.0000
  C   C15       1.0  0.9745210963327081  0.07458479000140268  0.4308322517238421  1.0000
  C   C16       1.0  0.9254140834818543  0.0254950272684553  0.06916996936287487  1.0000
  C   C17       1.0  0.5330707128104492  0.9208452224009349  0.5676332229134005  1.0000
  C   C18       1.0  0.07916044418185211  0.46691667025328326  0.9323649560393857  1.0000
  C   C19       1.0  0.46692934612799775  0.0791680898605804  0.4323642297189139  1.0000
  C   C20       1.0  0.9208412825647726  0.5330626988876331  0.06763548884037357  1.0000
  C   C21       1.0  0.38864669134471796  0.06388397424566249  0.5588726679010348  1.0000
  C   C22       1.0  0.936123210505265  0.611344465890774  0.9411259605091115  1.0000
  C   C23       1.0  0.6113546390038279  0.9361293638898405  0.44112581923840105  1.0000
  C   C24       1.0  0.06388227580381312  0.388634926185496  0.058873849793030786  1.0000
  C   C25       1.0  0.8961075398323857  0.16992062688960627  0.4901396987507097  1.0000
  C   C26       1.0  0.8300741847786385  0.1039138245612392  0.009862073564960386  1.0000
  C   C27       1.0  0.10391728332096763  0.8300759788585736  0.5098634192305622  1.0000
  C   C28       1.0  0.16991347590985142  0.8960850535797248  0.9901392960697063  1.0000
  C   C29       1.0  0.8450157860621629  0.19806699978854425  0.6252167540545981  1.0000
  C   C30       1.0  0.8019330941996757  0.1549898705254336  0.874784133633305  1.0000
  C   C31       1.0  0.15500024207961632  0.8019386382285062  0.3747831510842586  1.0000
  C   C32       1.0  0.19804895844902154  0.8449972046112179  0.12521823141651817  1.0000
  C   C33       1.0  0.534280918403084  0.907193743261736  0.7025988724344001  1.0000
  C   C34       1.0  0.0928070409958863  0.46571520396442173  0.7973997288336887  1.0000
  C   C35       1.0  0.4657181872961971  0.09280909570902202  0.29739834830538564  1.0000
  C   C36       1.0  0.9071924141131048  0.5342772188390652  0.20260043057724889  1.0000
  C   C37       1.0  0.5819848932043997  0.7709097414829243  0.751858871266492  1.0000
  C   C38       1.0  0.22908935000678807  0.41801279698766075  0.7481390751270565  1.0000
  C   C39       1.0  0.41801365438014665  0.2290904707435502  0.24813789936984412  1.0000
  C   C40       1.0  0.7709067406641809  0.5819874494269469  0.2518615006505839  1.0000
  Br  Br1       1.0  0.0551866889107942  0.8248980927986337  0.6634134855532848  1.0000
  Br  Br2       1.0  0.1751053654583502  0.9448459136248387  0.836590224651779  1.0000
  Br  Br3       1.0  0.9448318976705751  0.1751076125911482  0.3365895566280982  1.0000
  Br  Br4       1.0  0.8248862477480187  0.055189614439839815  0.16341113882494798  1.0000
  Br  Br5       1.0  0.7492292473052016  0.39938628394677517  0.4764244969305904  1.0000
  Br  Br6       1.0  0.6006104240602426  0.25079341354983603  0.023579581701191888  1.0000
  Br  Br7       1.0  0.2507813167043765  0.6006168035146474  0.5235831024015738  1.0000
  Br  Br8       1.0  0.3993808566294631  0.7492107307657961  0.9764220870839107  1.0000
  N   N1        1.0  0.6408572797359184  0.6169092413398262  0.7162236248527376  1.0000
  N   N2        1.0  0.3830935692376229  0.35913125215375163  0.7837721846537987  1.0000
  N   N3        1.0  0.35913855422840874  0.38309613112848956  0.2837698744408427  1.0000
  N   N4        1.0  0.6169060678141987  0.6408650782982265  0.21622679762339905  1.0000
  N   N5        1.0  0.5659293797871571  0.8344773377506274  0.6358555461707595  1.0000
  N   N6        1.0  0.1655258012998857  0.4340574160436077  0.8641437039119066  1.0000
  N   N7        1.0  0.43406796219795746  0.16553202292679  0.36414154859519227  1.0000
  N   N8        1.0  0.8344729137515471  0.565928472367105  0.13585718252932105  1.0000
  O   O1        1.0  0.9424419360578539  0.2629263049879924  0.6593212436041822  1.0000
  O   O2        1.0  0.7370832732485654  0.05756427217061599  0.8406777531733024  1.0000
  O   O3        1.0  0.057567292920623604  0.7370949099399481  0.3406746881408082  1.0000
  O   O4        1.0  0.2628868655143534  0.9424254131540196  0.15933127134712066  1.0000
  O   O5        1.0  0.6851165198482717  0.20592639631441045  0.6423716330768412  1.0000
  O   O6        1.0  0.794068861077399  0.31488943241599526  0.8576305565371736  1.0000
  O   O7        1.0  0.3149020087321261  0.7940701425628162  0.3576305844819457  1.0000
  O   O8        1.0  0.2059254738192991  0.6850937438160899  0.14236624226509778  1.0000
