data_image0
_chemical_formula_structural       Zn4H20C56N4O24F8
_chemical_formula_sum              "Zn4 H20 C56 N4 O24 F8"
_cell_length_a       7.565008203644337
_cell_length_b       10.849981966621444
_cell_length_c       34.98952176617805
_cell_angle_alpha    89.846928226023
_cell_angle_beta     91.33757588936243
_cell_angle_gamma    89.6507869844612

_space_group_name_H-M_alt    "P 1"
_space_group_IT_number       1

loop_
  _space_group_symop_operation_xyz
  'x, y, z'

loop_
  _atom_site_type_symbol
  _atom_site_label
  _atom_site_symmetry_multiplicity
  _atom_site_fract_x
  _atom_site_fract_y
  _atom_site_fract_z
  _atom_site_occupancy
  Zn  Zn1       1.0  0.7109968930069784  0.9950412590401778  0.5012248392865147  1.0000
  Zn  Zn2       1.0  0.348106650593671  0.9966353082511358  0.4993708461684037  1.0000
  Zn  Zn3       1.0  0.19879357743003107  0.9922426033237882  0.9987228977757069  1.0000
  Zn  Zn4       1.0  0.5615100700038056  0.990748542447967  0.0005377901855680999  1.0000
  H   H1        1.0  0.7228081814832378  0.958336285091029  0.8775108302088839  1.0000
  H   H2        1.0  0.69815493498092  0.9535191434936506  0.8069634328872155  1.0000
  H   H3        1.0  0.14243505063971182  0.043943247565437084  0.81339121838203  1.0000
  H   H4        1.0  0.7652747760276597  0.044897978530286785  0.6866586844903679  1.0000
  H   H5        1.0  0.2110606496707916  0.9540354960411007  0.692787684450991  1.0000
  H   H6        1.0  0.18712046556406392  0.9602140760458793  0.6222310651080178  1.0000
  H   H7        1.0  0.2519164543810248  0.0008962218570048001  0.7534383625394199  1.0000
  H   H8        1.0  0.6559684389203327  0.0007291613796453996  0.7465015112579965  1.0000
  H   H9        1.0  0.7172637226076475  0.0210546415259856  0.1237864854078126  1.0000
  H   H10       1.0  0.6984588093291819  0.0298800831353176  0.1943229808908455  1.0000
  H   H11       1.0  0.1351652799113978  0.9703545342017678  0.18451058084533403  1.0000
  H   H12       1.0  0.774149992306434  0.9732340698409984  0.3156149848729939  1.0000
  H   H13       1.0  0.2095584359386393  0.03122214528706019  0.3054834839075795  1.0000
  H   H14       1.0  0.19086496199457775  0.024299684661379196  0.37608389469814807  1.0000
  H   H15       1.0  0.252181685492296  0.00020751330038139997  0.24488804430848177  1.0000
  H   H16       1.0  0.656540811794258  0.0018777356721812986  0.25507603911845683  1.0000
  H   H17       1.0  0.3959249910230866  0.7280779731819961  0.5601026555279845  1.0000
  H   H18       1.0  0.39979075403047665  0.26841816300452587  0.5627063394312728  1.0000
  H   H19       1.0  0.5140562856737035  0.7233878646098757  0.9397390606089076  1.0000
  H   H20       1.0  0.5084916996796524  0.2638259149453787  0.9370383423194114  1.0000
  C   C1        1.0  0.5991947816096328  0.7640610448768184  0.5018548857365915  1.0000
  C   C2        1.0  0.45088823766873537  0.9977632499364333  0.5718670749712657  1.0000
  C   C3        1.0  0.6001586990110964  0.2268065970629252  0.5038912874406662  1.0000
  C   C4        1.0  0.4598839678016233  0.9976031056938695  0.4283096005857274  1.0000
  C   C5        1.0  0.31141784281931006  0.7602582861686356  0.9981317547066767  1.0000
  C   C6        1.0  0.458705790775184  0.994300858286543  0.9280309512560477  1.0000
  C   C7        1.0  0.3094731143515475  0.22311834160963426  0.9960557482549389  1.0000
  C   C8        1.0  0.44878827355169193  0.9928446222815097  0.0716621861097479  1.0000
  C   C9        1.0  0.4497705947790108  0.0033563315921157004  0.8855833944029996  1.0000
  C   C10       1.0  0.5967061894466211  0.9779366131883617  0.8630645223458444  1.0000
  C   C11       1.0  0.5817528380889597  0.9761582264605334  0.8234076163074846  1.0000
  C   C12       1.0  0.41806755542756247  0.9990119142571458  0.8044636871352824  1.0000
  C   C13       1.0  0.2709634006251349  0.025128822526994592  0.826943223589069  1.0000
  C   C14       1.0  0.2886543256994544  0.02847261230769499  0.8663529430189811  1.0000
  C   C15       1.0  0.39032440151945735  0.9976092958394954  0.7631666288354708  1.0000
  C   C16       1.0  0.517628051059738  0.9977497983641327  0.7367477181283419  1.0000
  C   C17       1.0  0.6371730003152367  0.02633510686928279  0.673048723605916  1.0000
  C   C18       1.0  0.4902549149343329  0.9998284042285235  0.6954433560392487  1.0000
  C   C19       1.0  0.3271633191360764  0.9772702569863224  0.6764218645490274  1.0000
  C   C20       1.0  0.3126438734913819  0.9798125895192341  0.6367560535829639  1.0000
  C   C21       1.0  0.45932665397719324  0.005858099870870599  0.614319065206324  1.0000
  C   C22       1.0  0.6198407579470597  0.030490115085157796  0.633630570658582  1.0000
  C   C23       1.0  0.4398223436182604  0.9904918808875106  0.1141318591830682  1.0000
  C   C24       1.0  0.5906839010079282  0.008779140957706499  0.1376048167522299  1.0000
  C   C25       1.0  0.5789136513132649  0.013313180331358893  0.1771484396415559  1.0000
  C   C26       1.0  0.4149250209864803  0.9997322346152159  0.19512104156444113  1.0000
  C   C27       1.0  0.2640695932356252  0.9814996380491929  0.17169292024607333  1.0000
  C   C28       1.0  0.27788822721232265  0.976411501202371  0.13234842928626023  1.0000
  C   C29       1.0  0.390102309392347  0.0025660782869679  0.23624014841330881  1.0000
  C   C30       1.0  0.5185464957637436  0.0034871224266908  0.26371322701681527  1.0000
  C   C31       1.0  0.6449885905589314  0.9845248218687455  0.32835971378816  1.0000
  C   C32       1.0  0.49375204433643194  0.0017573890474195989  0.30484509374059604  1.0000
  C   C33       1.0  0.32942650820825753  0.015419297815007798  0.32275452882306865  1.0000
  C   C34       1.0  0.31770597094632796  0.011906138208928496  0.3623127905158015  1.0000
  C   C35       1.0  0.46899352920076615  0.9945112198287301  0.3858594120516798  1.0000
  C   C36       1.0  0.6312880997143039  0.9803536125689262  0.3677182656994589  1.0000
  C   C37       1.0  0.6019491082879399  0.6265124383299251  0.5047063018769933  1.0000
  C   C38       1.0  0.5006750437212801  0.5630634031193862  0.5325741339846389  1.0000
  C   C39       1.0  0.7001076448716149  0.5592559964847438  0.47931196040460833  1.0000
  C   C40       1.0  0.40210971364289366  0.6279413372751532  0.5601864425212213  1.0000
  C   C41       1.0  0.3101287878001813  0.5645658688321191  0.5871299838321562  1.0000
  C   C42       1.0  0.6030696566611412  0.3644329801010286  0.5059459960102544  1.0000
  C   C43       1.0  0.7004460536792861  0.42929144417300324  0.4799178887209621  1.0000
  C   C44       1.0  0.5014177616810898  0.43049140387805807  0.5332598675659952  1.0000
  C   C45       1.0  0.4037979452236229  0.36846513017110977  0.5615604293193002  1.0000
  C   C46       1.0  0.3109744175023863  0.4345042436836977  0.5878358089488316  1.0000
  C   C47       1.0  0.30860831459369814  0.6227593916628962  0.9953104115756802  1.0000
  C   C48       1.0  0.4093422152807521  0.5589136470740924  0.9673598968839485  1.0000
  C   C49       1.0  0.21063272521120524  0.5559902510164247  0.0207635225056038  1.0000
  C   C50       1.0  0.5076553374259375  0.6233093723455452  0.9396763468665557  1.0000
  C   C51       1.0  0.5989091463036117  0.5594826543891002  0.9126463539498957  1.0000
  C   C52       1.0  0.30672934682223746  0.36078618214693137  0.9940148375880044  1.0000
  C   C53       1.0  0.210090561469066  0.4260368296724764  0.020153271570563902  1.0000
  C   C54       1.0  0.40811329107808814  0.42637750115851225  0.9666447093558191  1.0000
  C   C55       1.0  0.5048670847356574  0.3638904206435213  0.9382374915595051  1.0000
  C   C56       1.0  0.5974753086384937  0.4294668345957504  0.9118974631585602  1.0000
  N   N1        1.0  0.1269060173245009  0.06322852313029159  0.8867597610893938  1.0000
  N   N2        1.0  0.7811394091352212  0.0654961813009933  0.6132695385501492  1.0000
  N   N3        1.0  0.10932901646933152  0.9529178030943442  0.111349072247549  1.0000
  N   N4        1.0  0.800447108224489  0.9578528495687806  0.3888120155153487  1.0000
  O   O1        1.0  0.7495914254937689  0.818674920293958  0.502279085768052  1.0000
  O   O2        1.0  0.44891686823778804  0.8162565687782004  0.4994780588255879  1.0000
  O   O3        1.0  0.2990120510382042  0.9982257997374115  0.5543995877067545  1.0000
  O   O4        1.0  0.597987321175424  0.9887717152402117  0.555410398417088  1.0000
  O   O5        1.0  0.44971036632055933  0.17603078349538487  0.5019525958787981  1.0000
  O   O6        1.0  0.7503228734892389  0.17071507513189485  0.504129468463141  1.0000
  O   O7        1.0  0.6069488693113101  0.0018509104475867998  0.4464591512711777  1.0000
  O   O8        1.0  0.3076326971620773  0.9973921111108479  0.4438786642466326  1.0000
  O   O9        1.0  0.16096414905287304  0.8160704183702161  0.9976900042282111  1.0000
  O   O10       1.0  0.4616596757318874  0.8112149529183126  0.0004899163457565999  1.0000
  O   O11       1.0  0.6106821666757228  0.9931256618571991  0.9454558409802587  1.0000
  O   O12       1.0  0.3117797261378996  0.9861397262586062  0.9445573813383631  1.0000
  O   O13       1.0  0.45994869580292885  0.17103143526421144  0.9979840644119947  1.0000
  O   O14       1.0  0.1592674928253288  0.1683730727213089  0.9957525425989999  1.0000
  O   O15       1.0  0.30159565625827167  0.9978131698010057  0.0535380090446083  1.0000
  O   O16       1.0  0.6009776146622982  0.9912833990222292  0.0560820151359138  1.0000
  O   O17       1.0  0.11973965751347748  0.16799770572656308  0.9002416193698508  1.0000
  O   O18       1.0  0.00699405902517471  0.9860857477911081  0.8866733061794392  1.0000
  O   O19       1.0  0.7864142468623354  0.17032956293103038  0.5996462342538609  1.0000
  O   O20       1.0  0.9024517630343565  0.9883802001125375  0.6134907908572416  1.0000
  O   O21       1.0  0.08120618777748229  0.8466268057700289  0.10055112005327521  1.0000
  O   O22       1.0  0.004676081336576501  0.04097563118781269  0.10872102243232722  1.0000
  O   O23       1.0  0.8316954717540456  0.8516877559262708  0.3997672715634765  1.0000
  O   O24       1.0  0.9025226757021229  0.04647506658574228  0.3913250846300755  1.0000
  F   F1        1.0  0.793517572480603  0.370850537740381  0.45285140050241784  1.0000
  F   F2        1.0  0.7933999100036219  0.6150499422799527  0.4519025538610464  1.0000
  F   F3        1.0  0.21620187037697036  0.6259528648179753  0.6136972109152481  1.0000
  F   F4        1.0  0.21841356786406155  0.3760911838417726  0.6151293590986882  1.0000
  F   F5        1.0  0.1176097916127006  0.36798312628825863  0.0473193092261894  1.0000
  F   F6        1.0  0.11792904334062372  0.612183929516803  0.0482515486494819  1.0000
  F   F7        1.0  0.6926663509390779  0.6204298832402911  0.8860300559710766  1.0000
  F   F8        1.0  0.689334317284228  0.37063441738755637  0.8845230087816631  1.0000
