data_image0
_chemical_formula_structural       Zn2H32C52S2N2O16
_chemical_formula_sum              "Zn2 H32 C52 S2 N2 O16"
_cell_length_a       14.984479472051913
_cell_length_b       15.483594908252936
_cell_length_c       15.9502721792406
_cell_angle_alpha    89.96837508639581
_cell_angle_beta     104.88893957186264
_cell_angle_gamma    98.78583706424182

_space_group_name_H-M_alt    "P 1"
_space_group_IT_number       1

loop_
  _space_group_symop_operation_xyz
  'x, y, z'

loop_
  _atom_site_type_symbol
  _atom_site_label
  _atom_site_symmetry_multiplicity
  _atom_site_fract_x
  _atom_site_fract_y
  _atom_site_fract_z
  _atom_site_occupancy
  Zn  Zn1       1.0  0.6029145777970157  0.4882793392106776  0.5160197341039774  1.0000
  Zn  Zn2       1.0  0.41570019598675867  0.5256720948786934  0.49096725247122897  1.0000
  H   H1        1.0  0.5743061471850553  0.6291573417815215  0.9347028434870379  1.0000
  H   H2        1.0  0.4634216310448735  0.7880660697321815  0.4695219110565672  1.0000
  H   H3        1.0  0.5363287845448426  0.6412634256769961  0.0669165650439041  1.0000
  H   H4        1.0  0.6255300516944472  0.16209108747111864  0.4593517234363204  1.0000
  H   H5        1.0  0.368183488994184  0.8563338426034761  0.412835831186939  1.0000
  H   H6        1.0  0.19899712635506006  0.0952947514236016  0.3815186396310394  1.0000
  H   H7        1.0  0.9690762198191366  0.5727563377862737  0.2768357317590429  1.0000
  H   H8        1.0  0.7646951150284306  0.5096609238557972  0.43846927701432026  1.0000
  H   H9        1.0  0.6879210528222116  0.3522898839927393  0.625033881575561  1.0000
  H   H10       1.0  0.012372994325055203  0.3221893376223689  0.6586843009291667  1.0000
  H   H11       1.0  0.13461466710985803  0.5973635995173651  0.2708934534585055  1.0000
  H   H12       1.0  0.6290565529707307  0.5840974510562444  0.11292953877217116  1.0000
  H   H13       1.0  0.30266430988132953  0.5862808907005289  0.34381597741739256  1.0000
  H   H14       1.0  0.3438655250230411  0.4545058250684164  0.018639368233195303  1.0000
  H   H15       1.0  0.8499136784460646  0.5230711664237191  0.35477757427397444  1.0000
  H   H16       1.0  0.13469733862098823  0.3997556599137511  0.5978644120672099  1.0000
  H   H17       1.0  0.8454820077069698  0.3039434880700753  0.6715813431326721  1.0000
  H   H18       1.0  0.3719414060821293  0.5700749504266795  0.021892518401614307  1.0000
  H   H19       1.0  0.3611270674816112  0.4527490723280037  0.8771084106116404  1.0000
  H   H20       1.0  0.46343312266218095  0.3621134502448624  0.07118460657308387  1.0000
  H   H21       1.0  0.5995066702719499  0.39607303082132017  0.9665550615178871  1.0000
  H   H22       1.0  0.7915889187324651  0.23009541048403284  0.5215108615538424  1.0000
  H   H23       1.0  0.6520468676695472  0.5552956686337325  0.9760587142698964  1.0000
  H   H24       1.0  0.19109595873725743  0.644487824456604  0.663038732422869  1.0000
  H   H25       1.0  0.4045512018848498  0.59258845417844  0.8043520554634254  1.0000
  H   H26       1.0  0.6722620426310683  0.4456939989989337  0.12007691089731752  1.0000
  H   H27       1.0  0.4799276671506263  0.35095444500421286  0.9308687573158422  1.0000
  H   H28       1.0  0.5321586418897509  0.2350290919856235  0.468006707532396  1.0000
  H   H29       1.0  0.24236624880280996  0.25697684370305746  0.4103234584034467  1.0000
  H   H30       1.0  0.24647413838514604  0.9491242541644097  0.380056491916207  1.0000
  H   H31       1.0  0.797465197400932  0.9219491419860403  0.5354670123288583  1.0000
  H   H32       1.0  0.7523826507277035  0.7631752609436474  0.5497920177983031  1.0000
  C   C1        1.0  0.5733483158841253  0.6715830512961106  0.5182457299154563  1.0000
  C   C2        1.0  0.3908690975511248  0.2535809034086398  0.44140387121581154  1.0000
  C   C3        1.0  0.7237919549805342  0.8935641429221164  0.5202518942413901  1.0000
  C   C4        1.0  0.5035219566469988  0.5176930746070381  0.3368694814819903  1.0000
  C   C5        1.0  0.6991361364231921  0.804856908270864  0.5283134430753477  1.0000
  C   C6        1.0  0.5357804673697685  0.8195766157926838  0.48180449499407246  1.0000
  C   C7        1.0  0.5580533580052743  0.9100290056862049  0.47193667643022497  1.0000
  C   C8        1.0  0.6548928851562508  0.9483040921519146  0.492686628927238  1.0000
  C   C9        1.0  0.4852718911837073  0.9637196163594554  0.4458350211961671  1.0000
  C   C10       1.0  0.5102307948746656  0.055578454464729476  0.44776135000564915  1.0000
  C   C11       1.0  0.6064497673276179  0.09215182946415719  0.46475443196359817  1.0000
  C   C12       1.0  0.5811068136683984  0.5691590028592514  0.9710065778100724  1.0000
  C   C13       1.0  0.6757266266560009  0.04129366771564948  0.4852628204127426  1.0000
  C   C14       1.0  0.3884084194663444  0.9270937797228385  0.41917120643264366  1.0000
  C   C15       1.0  0.3199446256524681  0.9788766562853155  0.4007198290956565  1.0000
  C   C16       1.0  0.42027534206020783  0.34929429275028656  0.4636514301280882  1.0000
  C   C17       1.0  0.3422931503044707  0.07173163059016471  0.41049091080709826  1.0000
  C   C18       1.0  0.438528327016499  0.11074480342499979  0.4340103575588045  1.0000
  C   C19       1.0  0.2722716835163439  0.1258241297975715  0.4002514711872535  1.0000
  C   C20       1.0  0.29570460363439105  0.2151535071899602  0.4160340610521799  1.0000
  C   C21       1.0  0.4601330006764782  0.20199115239655188  0.4483329548483467  1.0000
  C   C22       1.0  0.1546864138237254  0.5750443141683731  0.3369083093703508  1.0000
  C   C23       1.0  0.5104715307313512  0.4920764241798776  0.918914057716449  1.0000
  C   C24       1.0  0.24730192770546472  0.5729344977503176  0.37716666682311467  1.0000
  C   C25       1.0  0.21160466339824774  0.533218160083187  0.5067370315493561  1.0000
  C   C26       1.0  0.11384782570375758  0.5153925153505341  0.46682565818186095  1.0000
  C   C27       1.0  0.0858061784321507  0.5465361198536555  0.3808529451273656  1.0000
  C   C28       1.0  0.5328414571252864  0.4839313848290274  0.6681241878489458  1.0000
  C   C29       1.0  0.04247142858081082  0.4708810515037811  0.5047725702245669  1.0000
  C   C30       1.0  0.9478701246506488  0.479346583450841  0.466759205194357  1.0000
  C   C31       1.0  0.9231531612023289  0.519709071450599  0.3852932719546942  1.0000
  C   C32       1.0  0.9891043891719349  0.5479770650995731  0.34187033131038896  1.0000
  C   C33       1.0  0.06329830991846559  0.41237879237950636  0.5738079412479067  1.0000
  C   C34       1.0  0.5286267869563801  0.4069864294112192  0.9667726650088535  1.0000
  C   C35       1.0  0.995126924347005  0.3689699593743184  0.6082371837658583  1.0000
  C   C36       1.0  0.9016540490451561  0.3858626816570592  0.5800346332108715  1.0000
  C   C37       1.0  0.8779534039070214  0.44248896864684173  0.5098582108517177  1.0000
  C   C38       1.0  0.8304715008917966  0.34939231096829804  0.6193228042703607  1.0000
  C   C39       1.0  0.7437500497600665  0.375272030134532  0.5942731961554768  1.0000
  C   C40       1.0  0.563907452636755  0.5803535405737535  0.06135513575851797  1.0000
  C   C41       1.0  0.7869237193734763  0.4641914427921137  0.4890241301478893  1.0000
  C   C42       1.0  0.3966257814467441  0.5089659750914847  0.010169822863524353  1.0000
  C   C43       1.0  0.4092285367162986  0.5073188385503042  0.9172826439207566  1.0000
  C   C44       1.0  0.5319868584051264  0.48091674828244635  0.7586786137522663  1.0000
  C   C45       1.0  0.5186952862777047  0.4131967757964929  0.06098058239722799  1.0000
  C   C46       1.0  0.4906175203641396  0.503934455728114  0.0770951676526792  1.0000
  C   C47       1.0  0.38527382469084165  0.5879195069387535  0.8673533109317045  1.0000
  C   C48       1.0  0.6087186334876904  0.39873394197166323  0.12445407661259372  1.0000
  C   C49       1.0  0.5224573335566518  0.4850977322936814  0.8318851347448656  1.0000
  C   C50       1.0  0.4855308280515942  0.5110198916530421  0.16646869979494028  1.0000
  C   C51       1.0  0.49220421960090716  0.5159393609337072  0.2439480507419701  1.0000
  C   C52       1.0  0.603989071978873  0.7672301277287943  0.5097477059109821  1.0000
  S   S1        1.0  0.7946428104506468  0.09295803666697819  0.5081105151357973  1.0000
  S   S2        1.0  0.261384416888596  0.547841229981131  0.624635217916612  1.0000
  N   N1        1.0  0.275375646970808  0.5562552848701401  0.46272995891819574  1.0000
  N   N2        1.0  0.723560073805572  0.43417218517433287  0.5314469704087725  1.0000
  O   O1        1.0  0.6352158133283297  0.6214783982305433  0.5308014620515066  1.0000
  O   O2        1.0  0.8415500862361966  0.05266083725479829  0.4544355742043747  1.0000
  O   O3        1.0  0.7857541169844992  0.18978881612962076  0.4720186795567185  1.0000
  O   O4        1.0  0.272271473688761  0.4657955598217002  0.6644003061021306  1.0000
  O   O5        1.0  0.33592610072071943  0.6207406439774413  0.6379036208401627  1.0000
  O   O6        1.0  0.175998930674254  0.5807474648321858  0.6541069430984121  1.0000
  O   O7        1.0  0.34651934482122465  0.6435783675626892  0.8912862027039093  1.0000
  O   O8        1.0  0.6159656769224142  0.3400564646171772  0.17539869747556472  1.0000
  O   O9        1.0  0.4862444212081414  0.648087680660886  0.5109670952012519  1.0000
  O   O10       1.0  0.5827138653200593  0.5041672400089894  0.3830451897704705  1.0000
  O   O11       1.0  0.4336984071222787  0.531848657583943  0.36357756954895126  1.0000
  O   O12       1.0  0.5081727008887711  0.37584187233646554  0.48755193374874023  1.0000
  O   O13       1.0  0.3570627084258717  0.3971987275982087  0.458048799674131  1.0000
  O   O14       1.0  0.6079978828477692  0.4761897824654042  0.6477025659688916  1.0000
  O   O15       1.0  0.45560492338534436  0.4954061755232857  0.6169844098568473  1.0000
  O   O16       1.0  0.8333700916383293  0.1026516403376263  0.6011284660510156  1.0000
