data_image0
_chemical_formula_structural       Al2H20C30N4O12
_chemical_formula_sum              "Al2 H20 C30 N4 O12"
_cell_length_a       6.705596042454806
_cell_length_b       16.879879290891594
_cell_length_c       17.682962854786442
_cell_angle_alpha    86.69460472099834
_cell_angle_beta     80.33352941111264
_cell_angle_gamma    83.56928535457695

_space_group_name_H-M_alt    "P 1"
_space_group_IT_number       1

loop_
  _space_group_symop_operation_xyz
  'x, y, z'

loop_
  _atom_site_type_symbol
  _atom_site_label
  _atom_site_symmetry_multiplicity
  _atom_site_fract_x
  _atom_site_fract_y
  _atom_site_fract_z
  _atom_site_occupancy
  Al  Al1       1.0  0.5012733922153885  0.49946143247245783  0.497537928649038  1.0000
  Al  Al2       1.0  0.003222262042463364  0.49815801829788586  0.49530765388021075  1.0000
  H   H1        1.0  0.7652675218262601  0.5726196052750012  0.42025564928813713  1.0000
  H   H2        1.0  0.22118306694645906  0.4524662467181172  0.5873490426433676  1.0000
  H   H3        1.0  0.1345740882207309  0.2652575688381873  0.4537448847505842  1.0000
  H   H4        1.0  0.20295527461053808  0.11556918438251527  0.45524073062674114  1.0000
  H   H5        1.0  0.5640642149920937  0.09873272269732068  0.5293070985052849  1.0000
  H   H6        1.0  0.3909728197265707  0.8993003831845171  0.5380887165519538  1.0000
  H   H7        1.0  0.8244346704231946  0.8840139667144339  0.4590110711565103  1.0000
  H   H8        1.0  0.8973744939670778  0.7347343142510281  0.4605724990070925  1.0000
  H   H9        1.0  0.6864688274090085  0.48813029678309755  0.2744438807170866  1.0000
  H   H10       1.0  0.7785236789497673  0.4913916333478738  0.1316833492415128  1.0000
  H   H11       1.0  0.054484615525353844  0.4871325758337051  0.25647506081058674  1.0000
  H   H12       1.0  0.9591357220279729  0.509698442247945  0.7365265797315318  1.0000
  H   H13       1.0  0.3235471572490028  0.5144642267505191  0.7216342108154095  1.0000
  H   H14       1.0  0.23593061322846856  0.5126060615815504  0.8640715482570441  1.0000
  H   H15       1.0  0.41865363285913304  0.3132025356066919  0.5236974904732534  1.0000
  H   H16       1.0  0.3371876991970239  0.2183040802208041  0.544170733854571  1.0000
  H   H17       1.0  0.5383873404084127  0.6850422889062528  0.542109071961633  1.0000
  H   H18       1.0  0.6038134601294232  0.7795773760300477  0.5587628205076953  1.0000
  H   H19       1.0  0.17762202431703855  0.49281176154747897  0.051385309842118004  1.0000
  H   H20       1.0  0.8412812567803127  0.5068028928925229  0.9415528895643348  1.0000
  C   C1        1.0  0.3144591362181117  0.4914630730079068  0.35852849111642365  1.0000
  C   C2        1.0  0.2110977986847615  0.6442709937707605  0.499244869631049  1.0000
  C   C3        1.0  0.6930511420709281  0.5064330919139406  0.6356402428583009  1.0000
  C   C4        1.0  0.7905050850906363  0.3544535072118008  0.4935117011723094  1.0000
  C   C5        1.0  0.8144727411848365  0.26668468885568336  0.4925127868125969  1.0000
  C   C6        1.0  0.011886364138049992  0.2276431266461003  0.4717665812145739  1.0000
  C   C7        1.0  0.05108760043576409  0.1455780268971623  0.47261568732700704  1.0000
  C   C8        1.0  0.8853030199333602  0.09980722065157717  0.4952027853503083  1.0000
  C   C9        1.0  0.6878191990141715  0.1364600652430781  0.5136203548121614  1.0000
  C   C10       1.0  0.6460200542761501  0.2205247568733739  0.5131162892528421  1.0000
  C   C11       1.0  0.28293762929596517  0.8619451481787763  0.5222197432531672  1.0000
  C   C12       1.0  0.10400131667653062  0.8989935195241331  0.5005949317502284  1.0000
  C   C13       1.0  0.9602380312834031  0.8536405025702931  0.47816533547656087  1.0000
  C   C14       1.0  0.0021052875464846036  0.7716939419874578  0.4789864865179396  1.0000
  C   C15       1.0  0.18063851436288297  0.7319712329765196  0.5017599200359298  1.0000
  C   C16       1.0  0.32588436801390214  0.7779213198701315  0.5244144066984261  1.0000
  C   C17       1.0  0.3658413931646293  0.48873291969376714  0.2732726732531319  1.0000
  C   C18       1.0  0.5699919103345722  0.48899091759176366  0.23821708196794586  1.0000
  C   C19       1.0  0.6205558058748791  0.4907845571437051  0.15894818967743157  1.0000
  C   C20       1.0  0.4672518699831088  0.4926355979131785  0.11311401821295418  1.0000
  C   C21       1.0  0.26183107231123154  0.4903208870729685  0.14908512115655273  1.0000
  C   C22       1.0  0.21199014358957413  0.4882904747031772  0.22877076582117437  1.0000
  C   C23       1.0  0.5056491660236091  0.4979618218257259  0.032177698516171915  1.0000
  C   C24       1.0  0.5124065802055783  0.5040223202254592  0.9622760064639307  1.0000
  C   C25       1.0  0.5490180212196735  0.5088715591679714  0.8813369712659167  1.0000
  C   C26       1.0  0.7540513735794433  0.5093902453450169  0.8444170724520886  1.0000
  C   C27       1.0  0.8016210741264516  0.5102550606546786  0.7646581918372988  1.0000
  C   C28       1.0  0.6457471329518896  0.5106664318978815  0.7209317281904432  1.0000
  C   C29       1.0  0.44201531494659463  0.5127098335289729  0.7570512464141643  1.0000
  C   C30       1.0  0.3937210074169215  0.5118594286986634  0.8363248571389545  1.0000
  N   N1        1.0  0.9038721332643219  0.0154122423583019  0.4988239048944294  1.0000
  N   N2        1.0  0.08311724549513141  0.9833261797218993  0.5006654194481115  1.0000
  N   N3        1.0  0.45158082564519464  0.25376635590171753  0.5343746556307777  1.0000
  N   N4        1.0  0.4990052616538423  0.7443802946416012  0.5489565513267891  1.0000
  O   O1        1.0  0.4610212829580578  0.4996884989474636  0.3939319759290498  1.0000
  O   O2        1.0  0.06084319619959193  0.6077413585044481  0.489391702667973  1.0000
  O   O3        1.0  0.8772987322737505  0.5077735997979077  0.6028474158124624  1.0000
  O   O4        1.0  0.6119385878754003  0.39055940683024903  0.49226247728720557  1.0000
  O   O5        1.0  0.5420366888952374  0.5003711230228018  0.6018112347086698  1.0000
  O   O6        1.0  0.9475914673479765  0.3896169429228564  0.4970441534034792  1.0000
  O   O7        1.0  0.13041447687581356  0.48694626716169825  0.3898510190553636  1.0000
  O   O8        1.0  0.3882702766401707  0.6091740752098147  0.5059714345548443  1.0000
  O   O9        1.0  0.7564831727771875  0.5346537075071184  0.46352301039588184  1.0000
  O   O10       1.0  0.24573727464790804  0.463695953733982  0.5323451847722396  1.0000
  O   O11       1.0  0.1120282624422302  0.4908879128020446  0.10538422366723671  1.0000
  O   O12       1.0  0.9056065813250171  0.5080489690080013  0.8873705296393551  1.0000
