data_image0
_chemical_formula_structural       Sm2H30C52N4O20
_chemical_formula_sum              "Sm2 H30 C52 N4 O20"
_cell_length_a       7.677994674016134
_cell_length_b       10.73112998677831
_cell_length_c       14.428
_cell_angle_alpha    75.35428408208247
_cell_angle_beta     84.56675705352356
_cell_angle_gamma    75.88955423393757

_space_group_name_H-M_alt    "P 1"
_space_group_IT_number       1

loop_
  _space_group_symop_operation_xyz
  'x, y, z'

loop_
  _atom_site_type_symbol
  _atom_site_label
  _atom_site_symmetry_multiplicity
  _atom_site_fract_x
  _atom_site_fract_y
  _atom_site_fract_z
  _atom_site_occupancy
  Sm  Sm1       1.0  0.6990370135634053  0.087704664799432  0.3347570489696707  1.0000
  Sm  Sm2       1.0  0.30096426045487584  0.9122957023225665  0.6652433722729612  1.0000
  H   H1        1.0  0.9967984301702871  0.2252087218648313  0.1085283175252272  1.0000
  H   H2        1.0  0.003204458880119911  0.774790655976652  0.8914701290891787  1.0000
  H   H3        1.0  0.11867765414841366  0.7840740644079602  0.19606000899341322  1.0000
  H   H4        1.0  0.8813226182992935  0.215925313433516  0.803939955659871  1.0000
  H   H5        1.0  0.4616691824137719  0.804275172695192  0.9401600022736504  1.0000
  H   H6        1.0  0.538333011796837  0.1957222265852394  0.05983954452965891  1.0000
  H   H7        1.0  0.3568042214922825  0.0465535628687803  0.9018333430027925  1.0000
  H   H8        1.0  0.6431979727183191  0.9534438364116511  0.09816551070375111  1.0000
  H   H9        1.0  0.09045262661787493  0.6127959702746892  0.12715468172324756  1.0000
  H   H10       1.0  0.9095486474004063  0.3872043968473164  0.8728457395193844  1.0000
  H   H11       1.0  0.1832617188061647  0.3688928143597181  0.19366175595801854  1.0000
  H   H12       1.0  0.8167356303080666  0.6311075527622805  0.8063409423429279  1.0000
  H   H13       1.0  0.7380246959617409  0.39986026258279844  0.13486602910910514  1.0000
  H   H14       1.0  0.26197195831268527  0.6001381259781624  0.8651336108002  1.0000
  H   H15       1.0  0.6267971867806709  0.6417680396821268  0.07477177451513477  1.0000
  H   H16       1.0  0.3732043939683862  0.3582313381593565  0.9252267380219552  1.0000
  H   H17       1.0  0.417614349993663  0.3864614471742627  0.4371166763351156  1.0000
  H   H18       1.0  0.5823836939603666  0.6135408985087878  0.5628835355834242  1.0000
  H   H19       1.0  0.944125355056606  0.6854418069473738  0.3326920794164963  1.0000
  H   H20       1.0  0.05587299562819941  0.3145595494551543  0.66730691689326  1.0000
  H   H21       1.0  0.7874287514735485  0.5050672784017038  0.3389392124894712  1.0000
  H   H22       1.0  0.21256990594203276  0.4949330887202947  0.6610606475017634  1.0000
  H   H23       1.0  0.507198181512493  0.5361791615811953  0.30835992223293124  1.0000
  H   H24       1.0  0.4927991676017385  0.4638212055408104  0.691641389874505  1.0000
  H   H25       1.0  0.6670841993631456  0.7221411465228584  0.2561369783782013  1.0000
  H   H26       1.0  0.3329163798153374  0.2778572420380954  0.7438645430533201  1.0000
  H   H27       1.0  0.22430879557818167  0.9626589844868506  0.3891766260575054  1.0000
  H   H28       1.0  0.7756914768695253  0.0373403933546257  0.6108233385957789  1.0000
  H   H29       1.0  0.07571782504117412  0.7751299791961657  0.42696654237990134  1.0000
  H   H30       1.0  0.9242792173422814  0.2248713772063624  0.5730332129492908  1.0000
  C   C1        1.0  0.9830949795488308  0.025513544697730598  0.1864566591753345  1.0000
  C   C2        1.0  0.016907296040031477  0.9744878117047905  0.8135428324631279  1.0000
  C   C3        1.0  0.11761798107875168  0.9786516934276648  0.11215288107558048  1.0000
  C   C4        1.0  0.8823825980997313  0.0213466951332961  0.8878458679689203  1.0000
  C   C5        1.0  0.17524490814098942  0.8405778107808074  0.13189211140164048  1.0000
  C   C6        1.0  0.8247553643067177  0.1594215670606758  0.868107853251644  1.0000
  C   C7        1.0  0.29894290620853775  0.7771382186586067  0.07235307610060464  1.0000
  C   C8        1.0  0.7010583678097503  0.2228621484633919  0.9276459589485172  1.0000
  C   C9        1.0  0.36776057113514327  0.8511591552587775  0.9894206261768942  1.0000
  C   C10       1.0  0.6322373914406327  0.1488392333021764  0.010576175422699004  1.0000
  C   C11       1.0  0.30877315443602527  0.9879835766046199  0.9679839467315645  1.0000
  C   C12       1.0  0.6912261164411077  0.012014811956341  0.03201417513886182  1.0000
  C   C13       1.0  0.18567981461586672  0.0552582421939221  0.027490323974454597  1.0000
  C   C14       1.0  0.8143210712933848  0.9447391570865095  0.9725085956547731  1.0000
  C   C15       1.0  0.1391331313324784  0.203952051259165  0.9891809463445681  1.0000
  C   C16       1.0  0.8608703711794805  0.7960453480212735  0.010818534536056655  1.0000
  C   C17       1.0  0.2311619681726853  0.560210764054915  0.1321396181613537  1.0000
  C   C18       1.0  0.7688379975442458  0.4397896030670836  0.8678622551974657  1.0000
  C   C19       1.0  0.28392755489731064  0.42668460397399594  0.1678550730026203  1.0000
  C   C20       1.0  0.7160734123902017  0.5733167524285321  0.8321458707520365  1.0000
  C   C21       1.0  0.470406515023967  0.3610102271495066  0.17406263801856173  1.0000
  C   C22       1.0  0.52959244912239  0.6389891506919767  0.8259380856541656  1.0000
  C   C23       1.0  0.5943409703972335  0.4429365044119322  0.13415492113469443  1.0000
  C   C24       1.0  0.40565729890931834  0.5570608948685063  0.8658462096301706  1.0000
  C   C25       1.0  0.5348896507177728  0.5761134484680994  0.09869854816528092  1.0000
  C   C26       1.0  0.4651103149991584  0.4238869186538992  0.9013012459032766  1.0000
  C   C27       1.0  0.2899766103773588  0.1750343922805087  0.4677225754455492  1.0000
  C   C28       1.0  0.7100211268458951  0.8249689426830643  0.5322781589850152  1.0000
  C   C29       1.0  0.1870517521945487  0.3133170131177963  0.42267527341335415  1.0000
  C   C30       1.0  0.8129449834581309  0.6866853325652471  0.5773243113311112  1.0000
  C   C31       1.0  0.2778384553660019  0.4138368178169785  0.41641872197118357  1.0000
  C   C32       1.0  0.7221582802866777  0.586165527866072  0.5835815558700332  1.0000
  C   C33       1.0  0.1910722759926743  0.5464023865097047  0.383979168882945  1.0000
  C   C34       1.0  0.8089244596599983  0.4535999591733457  0.6160204158615201  1.0000
  C   C35       1.0  0.011581743347839827  0.5817058512667188  0.3584289391363882  1.0000
  C   C36       1.0  0.9884179156383156  0.4182955051358094  0.6415706843474426  1.0000
  C   C37       1.0  0.9244596239122131  0.4814353452594275  0.3620441985972889  1.0000
  C   C38       1.0  0.07553903350336816  0.5185650218625781  0.6379542752004426  1.0000
  C   C39       1.0  0.008575472120966814  0.347252302910988  0.392209939284065  1.0000
  C   C40       1.0  0.9914241868651885  0.6527490534915401  0.6077896841997656  1.0000
  C   C41       1.0  0.9028895273110892  0.2501939907630799  0.38290035135363354  1.0000
  C   C42       1.0  0.09711043840584217  0.7498063763589187  0.6171001358116828  1.0000
  C   C43       1.0  0.4541238420342213  0.6325687200952999  0.3243145698392667  1.0000
  C   C44       1.0  0.5458735070800033  0.3674316470267058  0.6756860491714107  1.0000
  C   C45       1.0  0.5404224081824012  0.7340105342422589  0.2974308491690182  1.0000
  C   C46       1.0  0.4595778642653059  0.2659888435992173  0.7025705016777836  1.0000
  C   C47       1.0  0.4615958266290009  0.8600794977380134  0.3185146533190135  1.0000
  C   C48       1.0  0.5384044458187063  0.1399198801034629  0.6814873906245397  1.0000
  C   C49       1.0  0.2926344927972623  0.870014842034223  0.3707046478028674  1.0000
  C   C50       1.0  0.7073654729196761  0.1299855250877755  0.6292965324592005  1.0000
  C   C51       1.0  0.20945225009688068  0.7668051835919982  0.39284558257406843  1.0000
  C   C52       1.0  0.7905461005879247  0.23319617281052274  0.6071547999291982  1.0000
  N   N1        1.0  0.35535110929022556  0.6355474437511717  0.09896632238368143  1.0000
  N   N2        1.0  0.6446491631574816  0.3644519340903116  0.9010343353663616  1.0000
  N   N3        1.0  0.28855341341112256  0.6481716525099017  0.3706885883881911  1.0000
  N   N4        1.0  0.7114436289723329  0.3518297038926192  0.6293111669410081  1.0000
  O   O1        1.0  0.21886314117480046  0.11117336665535761  0.541715631331698  1.0000
  O   O2        1.0  0.7811352908882584  0.8888319468692599  0.45828608220023875  1.0000
  O   O3        1.0  0.44566273103021103  0.137574295982553  0.4327299227549731  1.0000
  O   O4        1.0  0.5543333097826632  0.8624260711394456  0.5672707621783887  1.0000
  O   O5        1.0  0.976792157815801  0.1284274082634695  0.391125956967258  1.0000
  O   O6        1.0  0.023207501170354337  0.8715739481390585  0.6088736665165726  1.0000
  O   O7        1.0  0.7360579763166655  0.2960511001434085  0.3627169095261422  1.0000
  O   O8        1.0  0.2639406810989087  0.7039492669785901  0.637283643561851  1.0000
  O   O9        1.0  0.5365353880300247  0.9576403643917929  0.2899514238923047  1.0000
  O   O10       1.0  0.463467807751158  0.0423580241691681  0.7100513518873657  1.0000
  O   O11       1.0  0.9277736276482714  0.1492903452208338  0.18578561242780012  1.0000
  O   O12       1.0  0.07222895467136681  0.8507100219011648  0.8142126636018787  1.0000
  O   O13       1.0  0.9234132466861027  0.9404031405525758  0.25049064497546425  1.0000
  O   O14       1.0  0.0765896423643113  0.0595962372889005  0.7495098809292102  1.0000
  O   O15       1.0  0.0461609809098604  0.2812475063916864  0.0429788960731301  1.0000
  O   O16       1.0  0.9538448314740221  0.7187508821692674  0.9570202823773997  1.0000
  O   O17       1.0  0.1907168388568508  0.2528106377473947  0.9067996055767511  1.0000
  O   O18       1.0  0.8092905885591577  0.7471867615330368  0.09319967753582156  1.0000
  O   O19       1.0  0.520434266836709  0.2373185047514141  0.21231391739793543  1.0000
  O   O20       1.0  0.4795643905788652  0.7626818623705915  0.7876866356900651  1.0000
