data_image0
_chemical_formula_structural       Cu6H36C18S6Br6N12
_chemical_formula_sum              "Cu6 H36 C18 S6 Br6 N12"
_cell_length_a       7.532345305378356
_cell_length_b       11.893117402878303
_cell_length_c       12.126899511464913
_cell_angle_alpha    66.70251318043904
_cell_angle_beta     75.10761070521733
_cell_angle_gamma    87.5789049418361

_space_group_name_H-M_alt    "P 1"
_space_group_IT_number       1

loop_
  _space_group_symop_operation_xyz
  'x, y, z'

loop_
  _atom_site_type_symbol
  _atom_site_label
  _atom_site_symmetry_multiplicity
  _atom_site_fract_x
  _atom_site_fract_y
  _atom_site_fract_z
  _atom_site_occupancy
  Cu  Cu1       1.0  0.5419077508941826  0.007700436751918  0.0953804125456159  1.0000
  Cu  Cu2       1.0  0.45810153586716507  0.9923062974089164  0.9046091216071374  1.0000
  Cu  Cu3       1.0  0.357821620514244  0.7947983450008846  0.26349074895571795  1.0000
  Cu  Cu4       1.0  0.6421555864653925  0.2052027159064664  0.7365160244524346  1.0000
  Cu  Cu5       1.0  0.5492722494410742  0.3802126803314253  0.9522818242368133  1.0000
  Cu  Cu6       1.0  0.4507094961767208  0.6197930561577749  0.04771668263951774  1.0000
  H   H1        1.0  0.8640170768307984  0.8546691993166178  0.061466949573585276  1.0000
  H   H2        1.0  0.13598851992666283  0.1453410429479973  0.9385325873667726  1.0000
  H   H3        1.0  0.9548203332268843  0.035604563167694905  0.6873386135484338  1.0000
  H   H4        1.0  0.04519164720867512  0.9644011699663011  0.31265663185838105  1.0000
  H   H5        1.0  0.024088378488563926  0.6573706979252735  0.41182045298344855  1.0000
  H   H6        1.0  0.9758968583654595  0.3426286071334914  0.5881807272238929  1.0000
  H   H7        1.0  0.07633327514459862  0.502075880639282  0.16115518935320947  1.0000
  H   H8        1.0  0.9236482783832048  0.4979280453960869  0.83884237940223  1.0000
  H   H9        1.0  0.4424040135097941  0.3729911113837333  0.20811335718415339  1.0000
  H   H10       1.0  0.5575891084407233  0.6270045174424297  0.791888747566169  1.0000
  H   H11       1.0  0.359016835685253  0.002091677135212  0.35432018254231684  1.0000
  H   H12       1.0  0.6410091464175167  0.997903106096956  0.6456736024102412  1.0000
  H   H13       1.0  0.9460292924776541  0.704186723931393  0.9504909881837451  1.0000
  H   H14       1.0  0.05397780569822432  0.29582435123123935  0.04951376483313653  1.0000
  H   H15       1.0  0.15422586774202776  0.7644245702563592  0.9586166634426689  1.0000
  H   H16       1.0  0.8457847966874541  0.23558102756062033  0.04138791824802715  1.0000
  H   H17       1.0  0.22720694781167344  0.901540159804462  0.7453954220229093  1.0000
  H   H18       1.0  0.7727921654625407  0.09845996234446372  0.2546106190763666  1.0000
  H   H19       1.0  0.0607048838824156  0.8104985634228042  0.7284095754974728  1.0000
  H   H20       1.0  0.9393040225350762  0.18950341252862302  0.271593353511811  1.0000
  H   H21       1.0  0.7648191315413656  0.4725724145208758  0.4862689609205334  1.0000
  H   H22       1.0  0.23516665529813716  0.5274323829717035  0.5137308915024406  1.0000
  H   H23       1.0  0.6955672539218938  0.620954787074382  0.4000617248789595  1.0000
  H   H24       1.0  0.30441109800142396  0.37904454983829783  0.599938087842048  1.0000
  H   H25       1.0  0.7573855133319755  0.5858313368500347  0.21365724305966452  1.0000
  H   H26       1.0  0.2425923899077632  0.41416340064127877  0.7863451949355634  1.0000
  H   H27       1.0  0.7464127282909063  0.4272117289515336  0.3142209095706292  1.0000
  H   H28       1.0  0.2535807725827014  0.5727875329967561  0.685782242992083  1.0000
  H   H29       1.0  0.25801625493149777  0.3044543238508624  0.4435263905486764  1.0000
  H   H30       1.0  0.7419856930346429  0.6955329936358368  0.5564815257467045  1.0000
  H   H31       1.0  0.4963245751227704  0.27280684471466543  0.42672057215490605  1.0000
  H   H32       1.0  0.5036794519525359  0.7271878621188251  0.5732809319107588  1.0000
  H   H33       1.0  0.37529143391990527  0.0632196840550563  0.5383776950782603  1.0000
  H   H34       1.0  0.62473556937627  0.9367714059405542  0.46161896064857905  1.0000
  H   H35       1.0  0.16425737445742786  0.09767774308258481  0.492854515264085  1.0000
  H   H36       1.0  0.8357687367284896  0.9023041358558359  0.5071482194406087  1.0000
  C   C1        1.0  0.8824293032705557  0.9682850428027766  0.8786998478669829  1.0000
  C   C2        1.0  0.11757819251662482  0.0317170176920101  0.12129750569682331  1.0000
  C   C3        1.0  0.03196101305936589  0.7883246633196704  0.9228432888375622  1.0000
  C   C4        1.0  0.968047101053017  0.21168273082088254  0.07716350652420094  1.0000
  C   C5        1.0  0.0833299144599877  0.863571667573403  0.7804133967843541  1.0000
  C   C6        1.0  0.9166697225152024  0.13643400808165748  0.2195871743835127  1.0000
  C   C7        1.0  0.1033805678683422  0.5777581895397786  0.2837577291376476  1.0000
  C   C8        1.0  0.8966059520295744  0.4222401990355068  0.7162435868782779  1.0000
  C   C9        1.0  0.7979375402745392  0.553232562598602  0.39712246631971476  1.0000
  C   C10       1.0  0.20204952435196333  0.44677133062496216  0.6028766934824433  1.0000
  C   C11       1.0  0.8139181706918209  0.5176346738291286  0.28616701035218034  1.0000
  C   C12       1.0  0.1860699098711933  0.482365538372342  0.7138341917948524  1.0000
  C   C13       1.0  0.41468775221331106  0.18857415993858243  0.24715442114342068  1.0000
  C   C14       1.0  0.5853234006155716  0.8114233406519203  0.7528424017252391  1.0000
  C   C15       1.0  0.36740492027220756  0.2542835418278244  0.40790946797110184  1.0000
  C   C16       1.0  0.6326002990589007  0.7457093310808106  0.5920925312721081  1.0000
  C   C17       1.0  0.31499759448890063  0.1156916665123831  0.46148978630391474  1.0000
  C   C18       1.0  0.685023641114995  0.8842966673275043  0.5385088417713317  1.0000
  S   S1        1.0  0.7497769671858523  0.08281691215589859  0.9013557444498302  1.0000
  S   S2        1.0  0.25022825064851884  0.91718969698659  0.09864274467814473  1.0000
  S   S3        1.0  0.33774037653952865  0.610164912012884  0.24222472650026108  1.0000
  S   S4        1.0  0.6622481474501641  0.389839911824417  0.7577730219431442  1.0000
  S   S5        1.0  0.46526614603637034  0.191171944211284  0.10128295073797489  1.0000
  S   S6        1.0  0.5347402219985895  0.808832928722069  0.8987094061322765  1.0000
  Br  Br1       1.0  0.6776674541314311  0.852879126619101  0.25035383133643296  1.0000
  Br  Br2       1.0  0.3223257165519655  0.14711751736415832  0.7496412866096591  1.0000
  Br  Br3       1.0  0.17388768024837029  0.7966458976083007  0.46576429209329  1.0000
  Br  Br4       1.0  0.8261248134503348  0.20335055213960374  0.5342417793074503  1.0000
  Br  Br5       1.0  0.7305417486735097  0.49211232546076633  0.02988805961680902  1.0000
  Br  Br6       1.0  0.26944716099291816  0.5078823830503225  0.9701150751836138  1.0000
  N   N1        1.0  0.9263540900565632  0.8737382616582324  0.9697014779395943  1.0000
  N   N2        1.0  0.07365655334531601  0.1262673850166038  0.030299790033467403  1.0000
  N   N3        1.0  0.958646326403134  0.9636354071871408  0.7682673575908155  1.0000
  N   N4        1.0  0.04136136147403851  0.036368463761476705  0.231730934093882  1.0000
  N   N5        1.0  0.9840719112433336  0.6065204793456048  0.3700410364344648  1.0000
  N   N6        1.0  0.015912566267758204  0.3934852957027815  0.6299545380328908  1.0000
  N   N7        1.0  0.014056500675529502  0.5168099940221325  0.23964434377369054  1.0000
  N   N8        1.0  0.9859289124977838  0.48319115813385594  0.7603552892663145  1.0000
  N   N9        1.0  0.3922148663147669  0.2880575036118956  0.2745398386332667  1.0000
  N   N10       1.0  0.6077837509637405  0.7119381290458477  0.7254613718755393  1.0000
  N   N11       1.0  0.38982288151542127  0.08589130034927453  0.3526083636840198  1.0000
  N   N12       1.0  0.6101908163736526  0.9141044161321332  0.6473854170841663  1.0000
