data_image0
_chemical_formula_structural       Zn4H48C74N20O2
_chemical_formula_sum              "Zn4 H48 C74 N20 O2"
_cell_length_a       19.80830323233948
_cell_length_b       19.887413852488834
_cell_length_c       20.61492002964781
_cell_angle_alpha    108.61220932017345
_cell_angle_beta     105.57683352675934
_cell_angle_gamma    112.33120312358196

_space_group_name_H-M_alt    "P 1"
_space_group_IT_number       1

loop_
  _space_group_symop_operation_xyz
  'x, y, z'

loop_
  _atom_site_type_symbol
  _atom_site_label
  _atom_site_symmetry_multiplicity
  _atom_site_fract_x
  _atom_site_fract_y
  _atom_site_fract_z
  _atom_site_occupancy
  Zn  Zn1       1.0  0.6050697741971761  0.6021629129150912  0.5023514882677064  1.0000
  Zn  Zn2       1.0  0.38781646369616146  0.3923402975682038  0.49368888935227073  1.0000
  Zn  Zn3       1.0  0.5007397436509962  0.5948287646474812  0.6032273920189937  1.0000
  Zn  Zn4       1.0  0.49374155767847594  0.40163213990082636  0.39692341103833684  1.0000
  H   H1        1.0  0.7627516380547732  0.7937579670820369  0.6186219346639419  1.0000
  H   H2        1.0  0.37040210136141405  0.6317176763170668  0.5132245093913569  1.0000
  H   H3        1.0  0.3705179624659252  0.3913656628459137  0.24799487965074007  1.0000
  H   H4        1.0  0.23042681542433027  0.37994983771390883  0.3779813282027363  1.0000
  H   H5        1.0  0.5048212285061099  0.6348925772161497  0.37813539791560674  1.0000
  H   H6        1.0  0.5324300367671101  0.3842611689995295  0.24716548990964785  1.0000
  H   H7        1.0  0.3694896201825415  0.6240576195043489  0.6734525022133796  1.0000
  H   H8        1.0  0.02828933127073441  0.6019403145835655  0.7367771310772967  1.0000
  H   H9        1.0  0.07160528179295514  0.4815845946624578  0.7370067039396347  1.0000
  H   H10       1.0  0.08293268698481883  0.6131411340505936  0.6244342594811485  1.0000
  H   H11       1.0  0.3315552098642414  0.20075418032796932  0.4713552433422024  1.0000
  H   H12       1.0  0.9234570017074475  0.48733463615273825  0.5080694862061891  1.0000
  H   H13       1.0  0.966984736661779  0.3668085792490815  0.5083412525740485  1.0000
  H   H14       1.0  0.9126465019728871  0.3557908928496404  0.6208617942278849  1.0000
  H   H15       1.0  0.43229920668588306  0.9931148336160333  0.5281108546859627  1.0000
  H   H16       1.0  0.292322276574815  0.8326741089341709  0.4418608745634883  1.0000
  H   H17       1.0  0.48627200857495023  0.955637437146642  0.3494411704306444  1.0000
  H   H18       1.0  0.3459013508044393  0.7955953666954018  0.264447375299909  1.0000
  H   H19       1.0  0.25455115447812915  0.8624679782993142  0.31451841263676533  1.0000
  H   H20       1.0  0.7069318128228874  0.5890303037436058  0.8369431448261441  1.0000
  H   H21       1.0  0.6324764177225788  0.605460798542886  0.7415450019633527  1.0000
  H   H22       1.0  0.7368423508438084  0.5881554508209066  0.961441424672188  1.0000
  H   H23       1.0  0.7314168419177633  0.6521585808884255  0.16288384167560127  1.0000
  H   H24       1.0  0.7049284367028436  0.6538800022098885  0.2746900713999311  1.0000
  H   H25       1.0  0.5202185516565409  0.33177179509861804  0.7211371720356612  1.0000
  H   H26       1.0  0.6133069072251941  0.3879775379087889  0.054969459861126814  1.0000
  H   H27       1.0  0.5543377478311413  0.3310977114151683  0.846158520252672  1.0000
  H   H28       1.0  0.5888432247861245  0.3883952762839869  0.16678069615212376  1.0000
  H   H29       1.0  0.25618652262622293  0.34849303532084985  0.14101532508402678  1.0000
  H   H30       1.0  0.12935951463209963  0.2568256670783668  0.019462734547936105  1.0000
  H   H31       1.0  0.9854105763190902  0.053954691599372516  0.8295300742472237  1.0000
  H   H32       1.0  0.6139798080203391  0.3513151758310258  0.4852894956426681  1.0000
  H   H33       1.0  0.874047032092122  0.9150008820662735  0.7240051326690493  1.0000
  H   H34       1.0  0.11380698078553311  0.3242496937003168  0.2671148277163908  1.0000
  H   H35       1.0  0.8309286405822077  0.0634820045790221  0.9395195603995319  1.0000
  H   H36       1.0  0.9872293010979194  0.23435113809748034  0.14441049328532776  1.0000
  H   H37       1.0  0.7181745474527689  0.9258788501556199  0.8336923787148083  1.0000
  H   H38       1.0  0.48540002632545753  0.3393306133893646  0.6028773372165972  1.0000
  H   H39       1.0  0.47555805460499556  0.21446594494087634  0.3457903197628625  1.0000
  H   H40       1.0  0.6292730261462083  0.7832758666406435  0.7540077224565351  1.0000
  H   H41       1.0  0.6873834099695985  0.6491852997934586  0.38620869618304005  1.0000
  H   H42       1.0  0.11413821689826881  0.3604058475811058  0.46213877976113343  1.0000
  H   H43       1.0  0.11738370797937143  0.320032174968958  0.5284196598715527  1.0000
  H   H44       1.0  0.09679888880238255  0.257431418071235  0.4324709121327929  1.0000
  H   H45       1.0  0.5891423622543357  0.046552876369929705  0.5661564166980497  1.0000
  H   H46       1.0  0.6141259366011128  0.0316126373948435  0.48712234981491787  1.0000
  H   H47       1.0  0.6566025647356569  0.007736387646417601  0.5592064052164005  1.0000
  H   H48       1.0  0.7590760597685461  0.6171462720029054  0.6266206194352009  1.0000
  C   C1        1.0  0.7202899093590318  0.7780968942047295  0.6428403372361303  1.0000
  C   C2        1.0  0.40168853999318804  0.1745924484210377  0.40658354363336713  1.0000
  C   C3        1.0  0.5767640397063616  0.4682929087866797  0.7010777046551624  1.0000
  C   C4        1.0  0.7169577191817423  0.4813174096516377  0.5710725831441295  1.0000
  C   C5        1.0  0.6455149273323714  0.5834315773316732  0.36129944262332  1.0000
  C   C6        1.0  0.2702672560346926  0.4277049279059427  0.5495639719319741  1.0000
  C   C7        1.0  0.4092481502929888  0.6262250543512382  0.48589699708759343  1.0000
  C   C8        1.0  0.3469330814878618  0.3922614157519321  0.28992177600849095  1.0000
  C   C9        1.0  0.2754322220965761  0.3865869519095356  0.3561666755602246  1.0000
  C   C10       1.0  0.4780180380635743  0.6278603649955844  0.41679123763147186  1.0000
  C   C11       1.0  0.5671586778351809  0.4484101186448442  0.29085671218731335  1.0000
  C   C12       1.0  0.3679336873882377  0.21709460483238985  0.4418294791634452  1.0000
  C   C13       1.0  0.3456058732653631  0.560753262038027  0.6322329622952767  1.0000
  C   C14       1.0  0.6212461858724154  0.5186763643472078  0.290236088867708  1.0000
  C   C15       1.0  0.26550016147945144  0.49307574005450067  0.5981203466045386  1.0000
  C   C16       1.0  0.42220154855007075  0.6506969777230439  0.4311170637936146  1.0000
  C   C17       1.0  0.2687954783910627  0.3755763456017505  0.2831947236434758  1.0000
  C   C18       1.0  0.038116671618851745  0.4827702816794571  0.6860751755638789  1.0000
  C   C19       1.0  0.01515074082386995  0.5497958831793497  0.6859168870551501  1.0000
  C   C20       1.0  0.7876824920305128  0.4769620953935887  0.59824744187717  1.0000
  C   C21       1.0  0.19893375238557104  0.49271153426943215  0.6104376447707411  1.0000
  C   C22       1.0  0.9507905015504721  0.412968713210482  0.6215010678631786  1.0000
  C   C23       1.0  0.5907227760699387  0.5417322072283927  0.6976383573753965  1.0000
  C   C24       1.0  0.926078375914713  0.4799300534751298  0.6211031721609004  1.0000
  C   C25       1.0  0.9798018016313462  0.4189784746410723  0.5590276585580867  1.0000
  C   C26       1.0  0.06898326800435949  0.48895041597450034  0.6235124824666585  1.0000
  C   C27       1.0  0.9574524358869069  0.48617275506958185  0.5587877743383984  1.0000
  C   C28       1.0  0.044264757389839746  0.5560050278623336  0.623558053545402  1.0000
  C   C29       1.0  0.8516383107152806  0.4767928642145165  0.6146139547048719  1.0000
  C   C30       1.0  0.14060501461434427  0.49225868019544095  0.6201730555310193  1.0000
  C   C31       1.0  0.33549603271628575  0.8607442554718291  0.4216109879309899  1.0000
  C   C32       1.0  0.41339977616814866  0.948721199555742  0.4697190578202425  1.0000
  C   C33       1.0  0.39816290515942404  0.10134536257975674  0.4028850769573253  1.0000
  C   C34       1.0  0.6382766961862958  0.41738991729307884  0.5135320103891062  1.0000
  C   C35       1.0  0.39770946246435557  0.7001670883003683  0.40746164554133196  1.0000
  C   C36       1.0  0.3144245504145716  0.8757033231700935  0.3507416323739252  1.0000
  C   C37       1.0  0.39292634722412617  0.9653532390497123  0.39863029371367303  1.0000
  C   C38       1.0  0.3652977275238457  0.839923324407117  0.32296464193594693  1.0000
  C   C39       1.0  0.3858605500227341  0.8226141587489266  0.39359487744256677  1.0000
  C   C40       1.0  0.4434710157605225  0.9278258571895251  0.37019090017343376  1.0000
  C   C41       1.0  0.46423238341405704  0.9122369751523822  0.44136529525298596  1.0000
  C   C42       1.0  0.3963936315245605  0.038712667117451395  0.40113639351679353  1.0000
  C   C43       1.0  0.3866682561669634  0.7524284132543643  0.3957334301586074  1.0000
  C   C44       1.0  0.6432809480654171  0.5210211502609142  0.22864153956845715  1.0000
  C   C45       1.0  0.5148980183239474  0.4059830675085011  0.6273776326693934  1.0000
  C   C46       1.0  0.6197026306867955  0.44663649051270243  0.1662308312719746  1.0000
  C   C47       1.0  0.6337242955672694  0.44567348195576534  0.1038544464525799  1.0000
  C   C48       1.0  0.6731396204187378  0.5201776268793383  0.1018206204661071  1.0000
  C   C49       1.0  0.7006966898621984  0.5949640388722345  0.16516865952247883  1.0000
  C   C50       1.0  0.6856215901323353  0.5953211881273361  0.2273693802952225  1.0000
  C   C51       1.0  0.6901578137481652  0.5323702885104995  0.9082843489263227  1.0000
  C   C52       1.0  0.6724273750368185  0.5323799772343423  0.8386135502583159  1.0000
  C   C53       1.0  0.644775650416065  0.46008856001269294  0.9114287743486004  1.0000
  C   C54       1.0  0.608090576733538  0.46164531579083967  0.7699543830053841  1.0000
  C   C55       1.0  0.5689709875524969  0.38785089315830856  0.7731969616298713  1.0000
  C   C56       1.0  0.7124809776901698  0.5534291036988107  0.585889330515961  1.0000
  C   C57       1.0  0.5874682946976435  0.3869463697600254  0.842744749949695  1.0000
  C   C58       1.0  0.7879427273232907  0.9092706019112456  0.7713773820139737  1.0000
  C   C59       1.0  0.7768416396230364  0.953428279344813  0.8325316964693245  1.0000
  C   C60       1.0  0.8390562656361951  0.0305472351740406  0.8914939164965929  1.0000
  C   C61       1.0  0.9153525928899029  0.0668641364335727  0.8910729262581825  1.0000
  C   C62       1.0  0.9259918777488423  0.025052608440425707  0.8289284569934168  1.0000
  C   C63       1.0  0.86348515003224  0.94754106006598  0.7703162287643723  1.0000
  C   C64       1.0  0.12695565680393633  0.2727445488622493  0.07417748799444011  1.0000
  C   C65       1.0  0.1974372780559221  0.3234016725386298  0.14241780745427954  1.0000
  C   C66       1.0  0.05060433778889721  0.23712812085209833  0.07471766074760922  1.0000
  C   C67       1.0  0.4414289586369833  0.22409990136168287  0.377580158105232  1.0000
  C   C68       1.0  0.19509576841850426  0.3396200999615929  0.21358869534470418  1.0000
  C   C69       1.0  0.11801294957278688  0.31074563399119626  0.2132356181586985  1.0000
  C   C70       1.0  0.04693449400710393  0.2606464568526264  0.14502558535015453  1.0000
  C   C71       1.0  0.6519255956860521  0.7730297981189624  0.711444291728462  1.0000
  C   C72       1.0  0.7240333608795453  0.8259343364220584  0.7122986592143548  1.0000
  C   C73       1.0  0.1307249369923015  0.3201684020875534  0.4800947038463478  1.0000
  C   C74       1.0  0.6024978852599077  0.007163215158982401  0.5265210535052347  1.0000
  N   N1        1.0  0.6518548958599198  0.7036725636752482  0.604197313209042  1.0000
  N   N2        1.0  0.3459548265363068  0.454513245369789  0.5557974885478175  1.0000
  N   N3        1.0  0.4554012246004858  0.5936188379451296  0.5034666996151457  1.0000
  N   N4        1.0  0.3944890782362478  0.4099143995860716  0.36038299811175284  1.0000
  N   N5        1.0  0.3505462561331641  0.40647135381843225  0.4010773614204838  1.0000
  N   N6        1.0  0.49758561791247036  0.5946180487333805  0.4610991130400492  1.0000
  N   N7        1.0  0.5603874579345813  0.4695627911896737  0.3564533518350856  1.0000
  N   N8        1.0  0.3930333253002659  0.5376439153120389  0.6072795369796823  1.0000
  N   N9        1.0  0.681881121279659  0.5253613749920664  0.037717818922367106  1.0000
  N   N10       1.0  0.6460113065537598  0.45576371643213065  0.9783390732699644  1.0000
  N   N11       1.0  0.9857626076386268  0.1396582952556713  0.9516229657276581  1.0000
  N   N12       1.0  0.38636490346954844  0.2857704034164073  0.4344095799014768  1.0000
  N   N13       1.0  0.9772658154936451  0.17245237537597552  0.010665527511989091  1.0000
  N   N14       1.0  0.5401060246649155  0.5238735633069853  0.6284343485575195  1.0000
  N   N15       1.0  0.5923278515999898  0.4499626916145232  0.4951426676045045  1.0000
  N   N16       1.0  0.49354194833460957  0.4404505773485142  0.5850674780342048  1.0000
  N   N17       1.0  0.6378428187795537  0.5332331445582953  0.5394373814400667  1.0000
  N   N18       1.0  0.4320686048858207  0.2901274377609512  0.39443293848038513  1.0000
  N   N19       1.0  0.6092357341008069  0.700402779567881  0.6470287678718522  1.0000
  N   N20       1.0  0.6092629310694591  0.553741244924055  0.4005432312247379  1.0000
  O   O1        1.0  0.21531408274452704  0.34692966640481887  0.5002775084576784  1.0000
  O   O2        1.0  0.5373620566584949  0.92311268119056  0.48556111593365614  1.0000
