data_image0
_chemical_formula_structural       Cd2H36C48S2N6O8
_chemical_formula_sum              "Cd2 H36 C48 S2 N6 O8"
_cell_length_a       9.480608860798647
_cell_length_b       11.063922609657
_cell_length_c       11.449209277921216
_cell_angle_alpha    96.19310943170166
_cell_angle_beta     103.80479229346983
_cell_angle_gamma    106.09140840145369

_space_group_name_H-M_alt    "P 1"
_space_group_IT_number       1

loop_
  _space_group_symop_operation_xyz
  'x, y, z'

loop_
  _atom_site_type_symbol
  _atom_site_label
  _atom_site_symmetry_multiplicity
  _atom_site_fract_x
  _atom_site_fract_y
  _atom_site_fract_z
  _atom_site_occupancy
  Cd  Cd1       1.0  0.451503668981978  0.956740455450138  0.8348563374108265  1.0000
  Cd  Cd2       1.0  0.5484964968427661  0.0432603581659095  0.165146917918868  1.0000
  H   H1        1.0  0.10580418620278212  0.8329921964427881  0.5859323438874212  1.0000
  H   H2        1.0  0.8941945446380615  0.16700766675171508  0.41406790443429736  1.0000
  H   H3        1.0  0.9219185846244359  0.8070414644205997  0.38165007192906597  1.0000
  H   H4        1.0  0.07808087438026935  0.1929603137384318  0.6183505214510417  1.0000
  H   H5        1.0  0.9834251505595689  0.953127842898233  0.23814366766288222  1.0000
  H   H6        1.0  0.016575027592466495  0.046875848562649494  0.7618590156525753  1.0000
  H   H7        1.0  0.23463090147195226  0.12134365373610478  0.28655836782071725  1.0000
  H   H8        1.0  0.7653685473187154  0.878660998111073  0.7134460157375174  1.0000
  H   H9        1.0  0.7877138271823938  0.35446661173828187  0.6657035562502003  1.0000
  H   H10       1.0  0.2122870692012384  0.6455303661406404  0.3342959535355305  1.0000
  H   H11       1.0  0.8411988616533606  0.16491322799734578  0.9998349878511306  1.0000
  H   H12       1.0  0.15880023326941745  0.8350875926794217  0.00016543299978625912  1.0000
  H   H13       1.0  0.5007964102517093  0.2089951417387255  0.36273803910937363  1.0000
  H   H14       1.0  0.49920086876967673  0.7910008923580634  0.6372606466570829  1.0000
  H   H15       1.0  0.6610841706195174  0.2564620807191673  0.49013528745921764  1.0000
  H   H16       1.0  0.33891384107399597  0.7435358691734776  0.509862870927158  1.0000
  H   H17       1.0  0.5280831435939319  0.38550453428316434  0.6746599162570347  1.0000
  H   H18       1.0  0.4719137926893423  0.6144934218388655  0.3253362800890328  1.0000
  H   H19       1.0  0.4966186668554968  0.3975997334280307  0.29435091090708443  1.0000
  H   H20       1.0  0.5033793583628209  0.6023982189586262  0.7056446301638671  1.0000
  H   H21       1.0  0.1482345688854849  0.5384657101018178  0.8151120080419428  1.0000
  H   H22       1.0  0.8517677985481811  0.4615322248493428  0.18488352924397586  1.0000
  H   H23       1.0  0.996017834514248  0.6079406334671374  0.7966961896026418  1.0000
  H   H24       1.0  0.003987420920289278  0.3920592056524582  0.2033018719453281  1.0000
  H   H25       1.0  0.21222220602255246  0.44853632249235176  0.636998385860089  1.0000
  H   H26       1.0  0.7877787083941428  0.5514606587119173  0.3629976341717409  1.0000
  H   H27       1.0  0.8598961017114632  0.629382498385155  0.5869267568589577  1.0000
  H   H28       1.0  0.1401051812954321  0.3706154411327134  0.41306856326359315  1.0000
  H   H29       1.0  0.7151555331219582  0.8048623899327509  0.16569242069207488  1.0000
  H   H30       1.0  0.2848416996192498  0.195136511201504  0.8343170347603035  1.0000
  H   H31       1.0  0.8290567330956122  0.7625146428125972  0.07418445479741109  1.0000
  H   H32       1.0  0.1709455700248128  0.23748615585067506  0.9258253419283234  1.0000
  H   H33       1.0  0.7420793374112405  0.5531296786313789  0.9404410296083653  1.0000
  H   H34       1.0  0.2579190540022579  0.4468749827705236  0.059557902155667385  1.0000
  H   H35       1.0  0.4397036632353775  0.667486791447466  0.12277341311035173  1.0000
  H   H36       1.0  0.5602929291122791  0.3325159620506354  0.8772223391165141  1.0000
  C   C1        1.0  0.27406366685555367  0.9924666856489136  0.5509107724763282  1.0000
  C   C2        1.0  0.7259357798218601  0.007532214665275201  0.4490903929180233  1.0000
  C   C3        1.0  0.13392090079693014  0.8945248597635284  0.5213375378986811  1.0000
  C   C4        1.0  0.8660803584711231  0.10547595094848107  0.4786641897174205  1.0000
  C   C5        1.0  0.03240329436756178  0.8817790101881259  0.407372227735138  1.0000
  C   C6        1.0  0.9675968849819867  0.11822180592193378  0.5926284102791328  1.0000
  C   C7        1.0  0.06756109631155738  0.9640786917281331  0.325230828363118  1.0000
  C   C8        1.0  0.9324372737581116  0.03592309016626421  0.6747704202921128  1.0000
  C   C9        1.0  0.2071830681943041  0.06080178240118529  0.3523048152654481  1.0000
  C   C10       1.0  0.7928178257943088  0.9392009461793905  0.6476987851226426  1.0000
  C   C11       1.0  0.3093257448560252  0.0722953761744378  0.46629256912368783  1.0000
  C   C12       1.0  0.6906744299852575  0.9277054391042867  0.5337089413290599  1.0000
  C   C13       1.0  0.5056970185987453  0.1251139727335868  0.634178191678238  1.0000
  C   C14       1.0  0.4943024325869345  0.8748849284119444  0.3658221012776437  1.0000
  C   C15       1.0  0.6518587770024098  0.1851748703483622  0.7264128849453683  1.0000
  C   C16       1.0  0.34814140234713864  0.814825945761697  0.2735877530689023  1.0000
  C   C17       1.0  0.7726810625072601  0.29167863349152867  0.7313247231911787  1.0000
  C   C18       1.0  0.22731839769495815  0.7083202693166797  0.2686738248877489  1.0000
  C   C19       1.0  0.8044913285756934  0.190062758356312  0.9102320203641623  1.0000
  C   C20       1.0  0.19550848218365488  0.8099370994401481  0.08976931755938723  1.0000
  C   C21       1.0  0.5392086869678465  0.2482942431022721  0.4609570174901804  1.0000
  C   C22       1.0  0.4607907732343719  0.7517046597059361  0.5390415305887543  1.0000
  C   C23       1.0  0.5149997948821009  0.377095295462837  0.4820919565454602  1.0000
  C   C24       1.0  0.4850003856649536  0.6229026452963992  0.5179066361676306  1.0000
  C   C25       1.0  0.5161270988733334  0.43511707167233726  0.597346712094584  1.0000
  C   C26       1.0  0.4838712904269186  0.5648818381965838  0.4026490015055656  1.0000
  C   C27       1.0  0.4977722678772237  0.44262605582844805  0.3843360338192736  1.0000
  C   C28       1.0  0.5022261214230211  0.5573728540404728  0.6156596797808759  1.0000
  C   C29       1.0  0.21131194670498835  0.7311153303906435  0.786034222867137  1.0000
  C   C30       1.0  0.7886893239746158  0.2688797312823893  0.21396166926966492  1.0000
  C   C31       1.0  0.09235477710318202  0.598672944324221  0.7629888371424086  1.0000
  C   C32       1.0  0.907647221740284  0.4013240323133403  0.23700740005278223  1.0000
  C   C33       1.0  0.040369927410523615  0.5430854892414915  0.6278981742014267  1.0000
  C   C34       1.0  0.9596281023160529  0.4569124639765008  0.3720964944310551  1.0000
  C   C35       1.0  0.11806890350256793  0.47025746993335826  0.577032249201153  1.0000
  C   C36       1.0  0.8819298330440546  0.5297395187416569  0.4229650813809087  1.0000
  C   C37       1.0  0.9214237884438674  0.5722431298614692  0.5491116714182169  1.0000
  C   C38       1.0  0.07857531669294814  0.42775481712714497  0.4508849592545658  1.0000
  C   C39       1.0  0.6582273960356702  0.8390702191014936  0.9806001251449955  1.0000
  C   C40       1.0  0.3417771005928786  0.16093632611803335  0.019408961878966104  1.0000
  C   C41       1.0  0.7129945716677993  0.7611929969968969  0.07417260454076313  1.0000
  C   C42       1.0  0.2870045085326679  0.23881069653668155  0.9258324789267505  1.0000
  C   C43       1.0  0.6052075868478609  0.625592398104608  0.03839527286726957  1.0000
  C   C44       1.0  0.394786823121457  0.3744103620328971  0.9616026623482979  1.0000
  C   C45       1.0  0.6362042693297028  0.5300235715746807  0.967507187610394  1.0000
  C   C46       1.0  0.3637930556900884  0.4699810977192769  0.032488037236390745  1.0000
  C   C47       1.0  0.46709576181358864  0.5936400588200357  0.06973744752122002  1.0000
  C   C48       1.0  0.5328986694995592  0.40636558082497476  0.9302581708031565  1.0000
  S   S1        1.0  0.9119097060973331  0.3206053894615691  0.8663514879511992  1.0000
  S   S2        1.0  0.08809082951512438  0.6793935071172541  0.13364902216804353  1.0000
  N   N1        1.0  0.39768904257032023  0.0286960574016604  0.6544132113399  1.0000
  N   N2        1.0  0.6023122133869733  0.9713018771281908  0.3455873434134986  1.0000
  N   N3        1.0  0.4573518774836032  0.15406977877383807  0.521122440833274  1.0000
  N   N4        1.0  0.5426472129309088  0.845931041071587  0.47887885245611256  1.0000
  N   N5        1.0  0.6730572224323906  0.12976666593171868  0.8293755821348298  1.0000
  N   N6        1.0  0.32694258832695755  0.8702331918647415  0.17062575578871989  1.0000
  O   O1        1.0  0.1808207887427215  0.8302415902803232  0.825051117022113  1.0000
  O   O2        1.0  0.819184467889329  0.16975537348844225  0.17494489922468398  1.0000
  O   O3        1.0  0.3368681069802548  0.7351747918001266  0.7621229303335467  1.0000
  O   O4        1.0  0.6631367753558237  0.2648240881745352  0.23787670356217208  1.0000
  O   O5        1.0  0.5686015186262593  0.9008110606106569  0.008732275588719958  1.0000
  O   O6        1.0  0.43139791783711695  0.09919071339168538  0.9912726799837586  1.0000
  O   O7        1.0  0.6909271679378008  0.8351710438419744  0.8815723515688774  1.0000
  O   O8        1.0  0.30908709966146114  0.16484121347282607  0.11844016321224868  1.0000
