data_image0
_chemical_formula_structural       Ho2Ag2H16C24N8O20
_chemical_formula_sum              "Ho2 Ag2 H16 C24 N8 O20"
_cell_length_a       6.723962632512047
_cell_length_b       9.270354294831114
_cell_length_c       14.994295307901579
_cell_angle_alpha    95.44695709940638
_cell_angle_beta     107.80836291255068
_cell_angle_gamma    103.44700980862474

_space_group_name_H-M_alt    "P 1"
_space_group_IT_number       1

loop_
  _space_group_symop_operation_xyz
  'x, y, z'

loop_
  _atom_site_type_symbol
  _atom_site_label
  _atom_site_symmetry_multiplicity
  _atom_site_fract_x
  _atom_site_fract_y
  _atom_site_fract_z
  _atom_site_occupancy
  Ho  Ho1       1.0  0.08777673662641654  0.5114737137405356  0.2729740377786954  1.0000
  Ho  Ho2       1.0  0.9122199298598515  0.48852192459443006  0.7270277241308349  1.0000
  Ag  Ag1       1.0  0.4048768232396469  0.1772344260120065  0.19849047242912127  1.0000
  Ag  Ag2       1.0  0.5951288474670733  0.8227631568839586  0.8015151571467742  1.0000
  H   H1        1.0  0.6741031741280209  0.7330840546831184  0.16143934217612355  1.0000
  H   H2        1.0  0.32589003615807854  0.26690977981970593  0.8385531861677222  1.0000
  H   H3        1.0  0.5926644679881504  0.6601944538050475  0.9838546150243915  1.0000
  H   H4        1.0  0.40733192875690344  0.33980266004802934  0.01613989115953981  1.0000
  H   H5        1.0  0.5679962830362939  0.04740436153294071  0.38326921365245437  1.0000
  H   H6        1.0  0.43202315408172615  0.9526024546885526  0.616728749624109  1.0000
  H   H7        1.0  0.7302279266069502  0.13758667822153825  0.5618053874367206  1.0000
  H   H8        1.0  0.26977114560531135  0.8624112400742805  0.438195506095525  1.0000
  H   H9        1.0  0.048989828625714445  0.6136015620128249  0.08242973882179432  1.0000
  H   H10       1.0  0.9510064449458252  0.38639765033997975  0.9175689390545332  1.0000
  H   H11       1.0  0.9009786882414729  0.4462376422882316  0.06872021484394966  1.0000
  H   H12       1.0  0.09902244463522444  0.5537545672529235  0.9312797648457051  1.0000
  H   H13       1.0  0.40796287916037227  0.760624451048706  0.2929917213621138  1.0000
  H   H14       1.0  0.5920487169996419  0.23937649743289313  0.7070128663727857  1.0000
  H   H15       1.0  0.2289309747169669  0.8200710858461381  0.22186237239342435  1.0000
  H   H16       1.0  0.7710790186284482  0.17994011305544433  0.7781435648311047  1.0000
  C   C1        1.0  0.6992109206823826  0.8185414100565752  0.1175583822242103  1.0000
  C   C2        1.0  0.3007819681285895  0.1814648006127015  0.8824384941925487  1.0000
  C   C3        1.0  0.6554613543836608  0.7774767518672905  0.01976768553448949  1.0000
  C   C4        1.0  0.34452037733236546  0.2225217237461267  0.98022792870065  1.0000
  C   C5        1.0  0.7651331606801218  0.027830718130765302  0.00889420160241627  1.0000
  C   C6        1.0  0.23487697641703426  0.9721634359713819  0.9911096457536105  1.0000
  C   C7        1.0  0.8095712661065376  0.06699674941032192  0.10710997867514752  1.0000
  C   C8        1.0  0.1904347172903087  0.9330135860598789  0.8928914177730506  1.0000
  C   C9        1.0  0.9041127681690566  0.22735447992542396  0.15973179265897391  1.0000
  C   C10       1.0  0.09589317756761072  0.7726511234279558  0.8402732089193636  1.0000
  C   C11       1.0  0.8000709325413523  0.14257313799048182  0.9459329320200214  1.0000
  C   C12       1.0  0.1999259918929184  0.8574108423853846  0.05407388884599131  1.0000
  C   C13       1.0  0.616599416862101  0.16667302038317194  0.41415647057589683  1.0000
  C   C14       1.0  0.3834016577761972  0.8333294033408765  0.5858450324200106  1.0000
  C   C15       1.0  0.7044475203104241  0.21581078349034757  0.5124100824920533  1.0000
  C   C16       1.0  0.2955542908961776  0.7841872210408528  0.4875877913590971  1.0000
  C   C17       1.0  0.7338334757845075  0.4609843328441201  0.48985227492655536  1.0000
  C   C18       1.0  0.2661397692072782  0.5390153595812565  0.5101451426262572  1.0000
  C   C19       1.0  0.6506456243894475  0.4119505020285248  0.39096920723661555  1.0000
  C   C20       1.0  0.34935012658937137  0.588053696376406  0.6090204778066521  1.0000
  C   C21       1.0  0.63228378068132  0.5215499667630328  0.3218268669912377  1.0000
  C   C22       1.0  0.3677206943915153  0.4784563031705532  0.6781639918669455  1.0000
  C   C23       1.0  0.7991982236126204  0.6265855406006439  0.5346045775762462  1.0000
  C   C24       1.0  0.20078589834766802  0.3734220138482485  0.4653914083067364  1.0000
  N   N1        1.0  0.7726288854432468  0.962731439617194  0.1610233713019653  1.0000
  N   N2        1.0  0.22737918589297829  0.0372765706647016  0.838978068047638  1.0000
  N   N3        1.0  0.6858843435167329  0.8819004455761148  0.9661474367427874  1.0000
  N   N4        1.0  0.3141117095747461  0.11809751345197132  0.033853782619090104  1.0000
  N   N5        1.0  0.5876595575729341  0.2637038438886067  0.3534429266918694  1.0000
  N   N6        1.0  0.41235043436449825  0.7362985211224571  0.6465562518894076  1.0000
  N   N7        1.0  0.7589690000865729  0.3623190537448552  0.5498292385638238  1.0000
  N   N8        1.0  0.24102551881394163  0.6376802900707831  0.4501672451073021  1.0000
  O   O1        1.0  0.10692043968209217  0.2892856412994576  0.1815961532534729  1.0000
  O   O2        1.0  0.8930855229442898  0.7107219970698254  0.818414366942996  1.0000
  O   O3        1.0  0.7827145227801465  0.2976522122744427  0.18417360992089732  1.0000
  O   O4        1.0  0.21730106784671216  0.7023563985131673  0.8158367586154613  1.0000
  O   O5        1.0  0.8353176346603842  0.2807529952569682  0.9792836143674182  1.0000
  O   O6        1.0  0.1646913182116307  0.7192247415225382  0.020730070184356512  1.0000
  O   O7        1.0  0.7936317538613267  0.09211299987909882  0.8631237052781913  1.0000
  O   O8        1.0  0.20635181435055477  0.9078954949705464  0.13687697339413776  1.0000
  O   O9        1.0  0.45198423998061077  0.5510383456071892  0.2893077721618482  1.0000
  O   O10       1.0  0.5480073556976778  0.4489555568746368  0.7106839089025174  1.0000
  O   O11       1.0  0.7947975513347245  0.5694696548106252  0.2962785626514163  1.0000
  O   O12       1.0  0.20520767209962545  0.43054237837108655  0.703710863831134  1.0000
  O   O13       1.0  0.7671973367490066  0.7199431347103556  0.48143109078586843  1.0000
  O   O14       1.0  0.23281132740377333  0.28007750117811986  0.5185688092874872  1.0000
  O   O15       1.0  0.8833881994237341  0.6528254430208663  0.6261557309114139  1.0000
  O   O16       1.0  0.1166013679615574  0.34716940435689747  0.373841142588546  1.0000
  O   O17       1.0  0.9629730295673083  0.5434979040709963  0.11327371250363433  1.0000
  O   O18       1.0  0.03704669787015291  0.4564924903326713  0.8867335883224214  1.0000
  O   O19       1.0  0.2603368718426396  0.7704574206870165  0.2804119072101586  1.0000
  O   O20       1.0  0.7396649703274177  0.22952698609493194  0.7195834865907571  1.0000
