data_image0
_chemical_formula_structural       K4H20C12N8O20
_chemical_formula_sum              "K4 H20 C12 N8 O20"
_cell_length_a       6.868664476002401
_cell_length_b       7.719279177001672
_cell_length_c       12.738749474003694
_cell_angle_alpha    89.99994746610206
_cell_angle_beta     89.99992983286536
_cell_angle_gamma    89.99994053198608

_space_group_name_H-M_alt    "P 1"
_space_group_IT_number       1

loop_
  _space_group_symop_operation_xyz
  'x, y, z'

loop_
  _atom_site_type_symbol
  _atom_site_label
  _atom_site_symmetry_multiplicity
  _atom_site_fract_x
  _atom_site_fract_y
  _atom_site_fract_z
  _atom_site_occupancy
  K   K1        1.0  0.245471658337884  0.999994417555996  0.5000039831939418  1.0000
  K   K2        1.0  0.25453392731357377  0.5000038134895702  1.3482149512e-06  1.0000
  K   K3        1.0  0.7545318582104558  4.4222289262e-06  0.49999780450028913  1.0000
  K   K4        1.0  0.7454652215746831  0.4999976172148237  0.9999980844608134  1.0000
  H   H1        1.0  6.602241455999999e-07  0.6190548921247226  0.4136087189728812  1.0000
  H   H2        1.0  0.9999984886653407  0.3809426522058245  0.5863914987103485  1.0000
  H   H3        1.0  0.5000010912604579  0.8809414056382393  0.9136081076876152  1.0000
  H   H4        1.0  0.5000009694011283  0.11906002506410829  0.08639210999358231  1.0000
  H   H5        1.0  1.0636700622999997e-06  0.13480252123470385  0.28642839232713163  1.0000
  H   H6        1.0  1.9276199479999948e-07  0.8651968143251807  0.7135705914818333  1.0000
  H   H7        1.0  0.5000015117143448  0.3651977524070986  0.7864332846673393  1.0000
  H   H8        1.0  0.5000005489498633  0.6348036782970612  0.2135645779946245  1.0000
  H   H9        1.0  0.9999989495911379  0.32157341572992953  0.20179489415894383  1.0000
  H   H10       1.0  1.6551831691999988e-06  0.6784267195147891  0.7982061085294988  1.0000
  H   H11       1.0  0.5000017069987166  0.1784264926582395  0.7017962993872405  1.0000
  H   H12       1.0  0.49999889777839696  0.8215749380466446  0.2982015632752137  1.0000
  H   H13       1.0  0.5000001637222269  0.6800706088307179  0.5371073128048423  1.0000
  H   H14       1.0  0.5000004410522577  0.31993082187235433  0.4628929048768455  1.0000
  H   H15       1.0  9.715145665999996e-07  0.8199314513685392  0.037110169642524206  1.0000
  H   H16       1.0  0.9999996332581701  0.18006997933331803  0.9628916180519838  1.0000
  H   H17       1.0  0.4999988748091296  0.6127923965992892  0.4199616094908976  1.0000
  H   H18       1.0  0.5000017299646514  0.38721032956152607  0.5800386081904279  1.0000
  H   H19       1.0  0.9999992990757531  0.8872072819695302  0.9199617797983635  1.0000
  H   H20       1.0  0.9999991981570345  0.1127923575048086  0.08003888675118283  1.0000
  C   C1        1.0  7.246421631999998e-07  0.8330477952327229  0.2521524671667308  1.0000
  C   C2        1.0  0.9999984242448718  0.16695104455435938  0.7478493205289709  1.0000
  C   C3        1.0  0.5000013869160397  0.6669526378924217  0.7521449074383  1.0000
  C   C4        1.0  0.49999921786019996  0.33304879281185146  0.24785374023056053  1.0000
  C   C5        1.0  0.9999987283859892  0.6314313257766316  0.2500389487059422  1.0000
  C   C6        1.0  0.9999983129603933  0.3685670182406895  0.7499617178444495  1.0000
  C   C7        1.0  0.5000012803396245  0.8685725012090157  0.7500331852573296  1.0000
  C   C8        1.0  0.4999993244355636  0.13142763403629937  0.24996703242470636  1.0000
  C   C9        1.0  8.563159710000002e-07  0.3669471971272102  0.3599049291047081  1.0000
  C   C10       1.0  4.0011503439999987e-07  0.6330508429737165  0.640095624717425  1.0000
  C   C11       1.0  0.5000015552230933  0.13305425867530832  0.859894247823874  1.0000
  C   C12       1.0  0.49999904955384267  0.8669458765712219  0.1401043998453417  1.0000
  N   N1        1.0  7.756711681999998e-07  0.5484758166932834  0.3442722619820914  1.0000
  N   N2        1.0  0.999998373217622  0.45152302309501385  0.6557279557007905  1.0000
  N   N3        1.0  0.5000011304350592  0.9515231789055322  0.8442771072788134  1.0000
  N   N4        1.0  0.4999994743411803  0.04847825179874119  0.1557215403900543  1.0000
  N   N5        1.0  1.0056066698999995e-06  0.2665220829479082  0.27467838048304577  1.0000
  N   N6        1.0  2.5082433549999955e-07  0.7334759571530183  0.7253221733390873  1.0000
  N   N7        1.0  0.5000015959781762  0.23347820881124898  0.7746864846296049  1.0000
  N   N8        1.0  0.4999990087978857  0.7665219264346775  0.2253129480460174  1.0000
  O   O1        1.0  3.4978319475999993e-06  0.9064729763937437  0.34085974156879933  1.0000
  O   O2        1.0  0.9999971069435885  0.09352327247712819  0.6591420461271157  1.0000
  O   O3        1.0  0.5000013276645631  0.5935247290118539  0.8408600719193304  1.0000
  O   O4        1.0  0.499999277110618  0.40647540623346856  0.15914014576270574  1.0000
  O   O5        1.0  7.842258966999999e-07  0.9057878160231639  0.1634726281616139  1.0000
  O   O6        1.0  0.9999998205468399  0.09421361467869357  0.8365291595328943  1.0000
  O   O7        1.0  0.5000000691998635  0.594216640222875  0.6634745281492584  1.0000
  O   O8        1.0  0.5000005355761984  0.4057834950230512  0.336524904526371  1.0000
  O   O9        1.0  0.9999988652806875  0.5561549336357245  0.16374399950704802  1.0000
  O   O10       1.0  2.8360739889999984e-07  0.4438452016103226  0.8362562181754783  1.0000
  O   O11       1.0  0.5000013358801922  0.9438464355006317  0.6637515401461372  1.0000
  O   O12       1.0  0.49999926889656615  0.05615240428754479  0.33624789252984044  1.0000
  O   O13       1.0  0.9999986790147445  0.3073465063520686  0.45134372592387006  1.0000
  O   O14       1.0  4.698747417999998e-07  0.6926510379784859  0.5486564917593597  1.0000
  O   O15       1.0  0.5000028769296135  0.1926530171983458  0.9513514034500973  1.0000
  O   O16       1.0  0.4999991837344169  0.8073471180474597  0.0486472442186354  1.0000
  O   O17       1.0  0.5000002258978853  0.7186804888978952  0.4626400241631004  1.0000
  O   O18       1.0  0.5000003788765993  0.2813209418051699  0.5373601935185804  1.0000
  O   O19       1.0  0.9999993086941713  0.7813204193124078  0.9626410371809585  1.0000
  O   O20       1.0  0.9999991885370391  0.2186805156190701  0.0373604143746462  1.0000
