data_image0
_chemical_formula_structural       Cd2H36C46N20O8
_chemical_formula_sum              "Cd2 H36 C46 N20 O8"
_cell_length_a       8.582893245662724
_cell_length_b       10.481256731000373
_cell_length_c       13.79540643520192
_cell_angle_alpha    80.95303578378483
_cell_angle_beta     78.14384958208798
_cell_angle_gamma    80.15125950136665

_space_group_name_H-M_alt    "P 1"
_space_group_IT_number       1

loop_
  _space_group_symop_operation_xyz
  'x, y, z'

loop_
  _atom_site_type_symbol
  _atom_site_label
  _atom_site_symmetry_multiplicity
  _atom_site_fract_x
  _atom_site_fract_y
  _atom_site_fract_z
  _atom_site_occupancy
  Cd  Cd1       1.0  0.647055543072568  0.6144152477928984  0.5334545664823267  1.0000
  Cd  Cd2       1.0  0.3529443099797902  0.38558516733224474  0.4665460284310683  1.0000
  H   H1        1.0  0.9754766288833995  0.2501424679336425  0.6450595081780574  1.0000
  H   H2        1.0  0.02452322381894586  0.7498579504484865  0.3549403615160571  1.0000
  H   H3        1.0  0.12839383863276052  0.02673904778065859  0.6753879304586617  1.0000
  H   H4        1.0  0.8716072049015864  0.9732613687459163  0.32461178737189295  1.0000
  H   H5        1.0  0.01755953715904471  0.8341020217085884  0.640822510158948  1.0000
  H   H6        1.0  0.982440315193287  0.1658983999305406  0.3591766343158653  1.0000
  H   H7        1.0  0.6138458362946936  0.0905079266874935  0.5470533778769706  1.0000
  H   H8        1.0  0.3861540160576382  0.9094924949516352  0.45294576659784264  1.0000
  H   H9        1.0  0.6709419240196226  0.7783683705459339  0.32046035236893283  1.0000
  H   H10       1.0  0.32905792868272243  0.2216320478362022  0.6795395173251748  1.0000
  H   H11       1.0  0.07126326785008531  0.6071058233541038  0.1120810017414655  1.0000
  H   H12       1.0  0.9287377760342748  0.3928945899154783  0.8879194413083694  1.0000
  H   H13       1.0  0.1172187014273476  0.42350464137631877  0.25000546493850345  1.0000
  H   H14       1.0  0.8827813216987511  0.5764948007996722  0.7499944971781998  1.0000
  H   H15       1.0  0.9389740223479137  0.4295905268677699  0.4150442921091582  1.0000
  H   H16       1.0  0.061026000778184715  0.5704089153082137  0.5849556700075453  1.0000
  H   H17       1.0  0.936690771863063  0.9433299480153963  0.8506126254251639  1.0000
  H   H18       1.0  0.06330942168678891  0.05666851795444218  0.14938742911414235  1.0000
  H   H19       1.0  0.8166421464028416  0.0920278839197763  0.8832919432876449  1.0000
  H   H20       1.0  0.18335906720523804  0.9079715596576464  0.11670714174621108  1.0000
  H   H21       1.0  0.6849591593328412  0.9990401828011031  0.779416274948673  1.0000
  H   H22       1.0  0.31503967296126223  0.0009592612304488005  0.22058383903159035  1.0000
  H   H23       1.0  0.5666405684542326  0.9957420710933745  0.8999124993545919  1.0000
  H   H24       1.0  0.4333582641898844  0.0042573696811772  0.10008833984496587  1.0000
  H   H25       1.0  0.5893640815388393  0.796775041017696  0.8079232743939213  1.0000
  H   H26       1.0  0.4106359415872589  0.20322440115828744  0.19207668772278194  1.0000
  H   H27       1.0  0.7926806571474073  0.7553362511522507  0.8234629840228465  1.0000
  H   H28       1.0  0.20731936632870437  0.244663187766747  0.1765377033131514  1.0000
  H   H29       1.0  0.4381506652938826  0.5612527297375465  0.2632213041809307  1.0000
  H   H30       1.0  0.5618505493642445  0.4387467040688905  0.7367799565107942  1.0000
  H   H31       1.0  0.8045880237971944  0.35828189043293424  0.05366673471164057  1.0000
  H   H32       1.0  0.1954118292551641  0.6417185246922018  0.9463338602017543  1.0000
  H   H33       1.0  0.820307120648252  0.16906023950796367  0.1883552971745458  1.0000
  H   H34       1.0  0.17969154087208491  0.8309401839867259  0.8116439991638345  1.0000
  H   H35       1.0  0.6460318305645385  0.1879544806500348  0.3570441817564429  1.0000
  H   H36       1.0  0.3539681925615596  0.8120449615259487  0.6429557803602677  1.0000
  C   C1        1.0  0.7024538215017202  0.32105887431987407  0.5758792990147014  1.0000
  C   C2        1.0  0.2975473928063862  0.6789405627435556  0.4241212364577365  1.0000
  C   C3        1.0  0.7863019371113539  0.18408360960864195  0.5957872322068454  1.0000
  C   C4        1.0  0.21369808566473134  0.8159158358243345  0.4042120046905708  1.0000
  C   C5        1.0  0.9307072629348881  0.1646790615519365  0.6320487428125573  1.0000
  C   C6        1.0  0.06929173978296889  0.835319406273463  0.36795146359030884  1.0000
  C   C7        1.0  0.014834821300666996  0.039743852267307006  0.6488102806011113  1.0000
  C   C8        1.0  0.9851663926574332  0.9602555880531224  0.35118952965203937  1.0000
  C   C9        1.0  0.9541400146789272  0.9330721040349419  0.6294871006623594  1.0000
  C   C10       1.0  0.0458610285053993  0.06692831574862622  0.37051189194890094  1.0000
  C   C11       1.0  0.8100259479920882  0.9511364519860592  0.5928616604141225  1.0000
  C   C12       1.0  0.18997373393649042  0.048864945859214984  0.40713739163809487  1.0000
  C   C13       1.0  0.7497339300888795  0.8344423257780988  0.5712395084145356  1.0000
  C   C14       1.0  0.250265752189712  0.16555906881018254  0.4287602688569692  1.0000
  C   C15       1.0  0.7255913577566702  0.07694241427930139  0.5759760092745195  1.0000
  C   C16       1.0  0.2744096857776769  0.9230580022472735  0.42402370855602806  1.0000
  C   C17       1.0  0.771109556054796  0.7019806451029922  0.3009499781752609  1.0000
  C   C18       1.0  0.22889148747954374  0.2980197714235828  0.6990497396552867  1.0000
  C   C19       1.0  0.8680816059903262  0.7082095986314697  0.20586227273655314  1.0000
  C   C20       1.0  0.13191926712026  0.29179179410125033  0.7941373526713988  1.0000
  C   C21       1.0  0.9933076651067266  0.6054291792374613  0.18522475410310343  1.0000
  C   C22       1.0  0.0066932080038598196  0.39457221349525873  0.8147748713048415  1.0000
  C   C23       1.0  0.018747820923160016  0.5033973289938699  0.2601826006204746  1.0000
  C   C24       1.0  0.9812532229612002  0.4966030842757121  0.7398178424293602  1.0000
  C   C25       1.0  0.9191390452381966  0.5058642660565624  0.35360366354138506  1.0000
  C   C26       1.0  0.08086080746414841  0.4941361523255736  0.6463962061527224  1.0000
  C   C27       1.0  0.8386523200785588  0.8209764202018593  0.13194758614131527  1.0000
  C   C28       1.0  0.16134855163196704  0.17902498555883986  0.8680491383894733  1.0000
  C   C29       1.0  0.8219966771635967  0.9856867468365847  0.8927014056064166  1.0000
  C   C30       1.0  0.17800351603624154  0.0143117223902465  0.10729792371359538  1.0000
  C   C31       1.0  0.6790092715033325  0.9514601845364438  0.8566641437778912  1.0000
  C   C32       1.0  0.32099075162276586  0.048539257639539805  0.14333581833881937  1.0000
  C   C33       1.0  0.6751210897956952  0.8068006382852104  0.8545249847347733  1.0000
  C   C34       1.0  0.3248789329803827  0.1931988071477733  0.14547425216264998  1.0000
  C   C35       1.0  0.6006394177333476  0.594217908927277  0.07692230558403422  1.0000
  C   C36       1.0  0.399359244487016  0.40578250805342714  0.9230784411929205  1.0000
  C   C37       1.0  0.5257449448212554  0.4765584508546609  0.24398678531326815  1.0000
  C   C38       1.0  0.4742560987130915  0.5234419656719139  0.7560129325172866  1.0000
  C   C39       1.0  0.6195558475589423  0.4760353181528529  0.14783094853274287  1.0000
  C   C40       1.0  0.3804440054934161  0.5239650969722831  0.8521696463806521  1.0000
  C   C41       1.0  0.7287712187590216  0.3637108552939878  0.12707224887185478  1.0000
  C   C42       1.0  0.27122846386959043  0.6362905360373005  0.8729282536189442  1.0000
  C   C43       1.0  0.7395784957686331  0.2587665452432192  0.20231458729244164  1.0000
  C   C44       1.0  0.26042135693371193  0.7412338731389169  0.7976852824016661  1.0000
  C   C45       1.0  0.6429067181241024  0.2679333750098749  0.2960393404989219  1.0000
  C   C46       1.0  0.35709449583399794  0.7320660653105476  0.7039604697542287  1.0000
  N   N1        1.0  0.5378956190947476  0.3757347939680001  0.315885523279924  1.0000
  N   N2        1.0  0.46210559486334557  0.6242646463524223  0.6841142869732195  1.0000
  N   N3        1.0  0.797238635192926  0.6028887353254362  0.37286890310410564  1.0000
  N   N4        1.0  0.20276121785943244  0.3971116797997071  0.6271316918092962  1.0000
  N   N5        1.0  0.5034010955628005  0.7052235976734876  0.10394449675958839  1.0000
  N   N6        1.0  0.4965965458993011  0.2947758482136251  0.896055769084235  1.0000
  N   N7        1.0  0.5203769225590877  0.7941507235906826  0.025439310564017572  1.0000
  N   N8        1.0  0.4796217393112627  0.20584969664701455  0.97456071099365  1.0000
  N   N9        1.0  0.6248657509514572  0.7366967352763113  0.9539508492655884  1.0000
  N   N10       1.0  0.3751342721746411  0.26330270689967256  0.046049112851122176  1.0000
  N   N11       1.0  0.6783954361012762  0.6120128485332116  0.9817274543681974  1.0000
  N   N12       1.0  0.3216033965428409  0.3879865922413401  0.018273384831360272  1.0000
  N   N13       1.0  0.824355378863764  0.9416283892306296  0.9982986723694367  1.0000
  N   N14       1.0  0.17564345343033944  0.058371054800922216  0.0017014416108339064  1.0000
  N   N15       1.0  0.7586824073058906  0.0168852248833744  0.0699722486703678  1.0000
  N   N16       1.0  0.24131761582020766  0.9831142172926163  0.9300277134463427  1.0000
  N   N17       1.0  0.8774223290027763  0.8192579791082507  0.032675447241935315  1.0000
  N   N18       1.0  0.12257769412332209  0.18074146306773997  0.9673245148747752  1.0000
  N   N19       1.0  0.7671673398921612  0.9417171630038086  0.15537500616392202  1.0000
  N   N20       1.0  0.23283251281018374  0.058283255378327715  0.8446248635301856  1.0000
  O   O1        1.0  0.7776382277667933  0.41357503768797693  0.5834885456913028  1.0000
  O   O2        1.0  0.22236179535930486  0.5864244044880137  0.41651141642540773  1.0000
  O   O3        1.0  0.5637454505794111  0.3389903106099935  0.5536899579707466  1.0000
  O   O4        1.0  0.43625423204919406  0.6610110807212948  0.4463105445200454  1.0000
  O   O5        1.0  0.6416145402768619  0.8505114785935671  0.5178485600508296  1.0000
  O   O6        1.0  0.3583854831992497  0.14948796032542333  0.4821521272851683  1.0000
  O   O7        1.0  0.8111021095247821  0.7216714184204276  0.6080964938220959  1.0000
  O   O8        1.0  0.18889791360131622  0.2783280237555629  0.3919034682946148  1.0000
