data_image0
_chemical_formula_structural       Zn2H16C22N4Cl4O2
_chemical_formula_sum              "Zn2 H16 C22 N4 Cl4 O2"
_cell_length_a       7.966482418191321
_cell_length_b       9.09077570368728
_cell_length_c       9.090561730523037
_cell_angle_alpha    116.87179705983202
_cell_angle_beta     91.71553913800498
_cell_angle_gamma    91.71620252724094

_space_group_name_H-M_alt    "P 1"
_space_group_IT_number       1

loop_
  _space_group_symop_operation_xyz
  'x, y, z'

loop_
  _atom_site_type_symbol
  _atom_site_label
  _atom_site_symmetry_multiplicity
  _atom_site_fract_x
  _atom_site_fract_y
  _atom_site_fract_z
  _atom_site_occupancy
  Zn  Zn1       1.0  0.2499998304319888  0.2055520036439588  0.7944363214361659  1.0000
  Zn  Zn2       1.0  0.7500018716881485  0.7944502673925979  0.20556808857045897  1.0000
  H   H1        1.0  0.3727300120964898  0.03311377022838969  0.18933832868019357  1.0000
  H   H2        1.0  0.1272823523822311  0.8106344301342076  0.966880306934556  1.0000
  H   H3        1.0  0.6272615758145149  0.9668873382293413  0.8106663834422678  1.0000
  H   H4        1.0  0.8727129487896405  0.18936530237480298  0.03311730886136392  1.0000
  H   H5        1.0  0.2268837544261473  0.0239889141172966  0.42661265318407265  1.0000
  H   H6        1.0  0.2731231102055318  0.5733626338383644  0.9760004081500641  1.0000
  H   H7        1.0  0.773114241799945  0.9760146717823441  0.5733955260665908  1.0000
  H   H8        1.0  0.7268698567334653  0.4266410389057284  0.024010965546693797  1.0000
  H   H9        1.0  0.6200308049153591  0.2337275014755277  0.2527510102654915  1.0000
  H   H10       1.0  0.8799749605521255  0.7472279375603106  0.7662731300283171  1.0000
  H   H11       1.0  0.3799653418030858  0.7662648382056502  0.7472444978840331  1.0000
  H   H12       1.0  0.12002516616789187  0.25276800472924066  0.2337196664050012  1.0000
  H   H13       1.0  0.5719491658437903  0.3675445310186801  0.7691964179311129  1.0000
  H   H14       1.0  0.9280422899688999  0.23079619128822765  0.6324551717517083  1.0000
  H   H15       1.0  0.42805778158042784  0.6324612547390271  0.23080087740839872  1.0000
  H   H16       1.0  0.07196060217393806  0.769204818488411  0.36754762074768627  1.0000
  C   C1        1.0  0.42024494086786757  0.10925078039618799  0.3159438305690188  1.0000
  C   C2        1.0  0.07976583555749528  0.6840363652448714  0.8907452022512958  1.0000
  C   C3        1.0  0.5797542502921402  0.89075150351978  0.6840605131193983  1.0000
  C   C4        1.0  0.9202333024231705  0.3159645620414792  0.1092519456332681  1.0000
  C   C5        1.0  0.3408240424420442  0.10150881833597937  0.44682980658799215  1.0000
  C   C6        1.0  0.1591824278945282  0.553151809472851  0.8984808397615824  1.0000
  C   C7        1.0  0.659176668483127  0.8984984580592579  0.5531800638973864  1.0000
  C   C8        1.0  0.8408116783434352  0.4468492250198322  0.10152061159658389  1.0000
  C   C9        1.0  0.5581634950166858  0.21870219719389172  0.3505496487572729  1.0000
  C   C10       1.0  0.941844797008649  0.649432338470909  0.7812950563107037  1.0000
  C   C11       1.0  0.44183794281834565  0.7812950749236903  0.6494492676115088  1.0000
  C   C12       1.0  0.05815916897577718  0.3505647782341085  0.2186961631837576  1.0000
  C   C13       1.0  0.6169619244034408  0.3130890531259354  0.515057887513322  1.0000
  C   C14       1.0  0.883039564735533  0.4849289261545023  0.686910304665986  1.0000
  C   C15       1.0  0.3830406355413131  0.6869057232733977  0.4849388697093887  1.0000
  C   C16       1.0  0.116967886214745  0.5150633148455908  0.31308328386046475  1.0000
  C   C17       1.0  0.5341493789954865  0.294203635474453  0.6388690970140942  1.0000
  C   C18       1.0  0.9658472958041813  0.3611187561285049  0.7057958795723566  1.0000
  C   C19       1.0  0.4658550427349439  0.7058022853339381  0.3611347861722367  1.0000
  C   C20       1.0  0.034157772645094994  0.6388760277532979  0.294202052996063  1.0000
  C   C21       1.0  0.7499976463511544  0.4458366512384087  0.5541658643681872  1.0000
  C   C22       1.0  0.2500011496089983  0.554158124118153  0.44582968434970394  1.0000
  N   N1        1.0  0.3967310127585151  0.19209512857351288  0.6049299027192562  1.0000
  N   N2        1.0  0.1032684262021064  0.395054327373053  0.8079015061877188  1.0000
  N   N3        1.0  0.6032722844066001  0.8079133083150152  0.39507724864065363  1.0000
  N   N4        1.0  0.8967306291319305  0.6049454876262387  0.19210175422303177  1.0000
  Cl  Cl1       1.0  0.4238119854044128  0.2871410975103784  0.016494740207100685  1.0000
  Cl  Cl2       1.0  0.07618637996940689  0.9835038271251333  0.7128573647706845  1.0000
  Cl  Cl3       1.0  0.5761844108654941  0.7128563632610535  0.9835129157452941  1.0000
  Cl  Cl4       1.0  0.9238152591489665  0.016497168729330294  0.28714428554210514  1.0000
  O   O1        1.0  0.7499957856039786  0.5254246637427399  0.4745878348642166  1.0000
  O   O2        1.0  0.2499996006701295  0.47457616069144126  0.5254025593780085  1.0000
