data_image0
_chemical_formula_structural       Zn2H22C44N2Cl4O8F2
_chemical_formula_sum              "Zn2 H22 C44 N2 Cl4 O8 F2"
_cell_length_a       16.568692937390903
_cell_length_b       17.947092683409647
_cell_length_c       17.96333690092326
_cell_angle_alpha    90.45484464602521
_cell_angle_beta     95.26438805522461
_cell_angle_gamma    92.22752714301288

_space_group_name_H-M_alt    "P 1"
_space_group_IT_number       1

loop_
  _space_group_symop_operation_xyz
  'x, y, z'

loop_
  _atom_site_type_symbol
  _atom_site_label
  _atom_site_symmetry_multiplicity
  _atom_site_fract_x
  _atom_site_fract_y
  _atom_site_fract_z
  _atom_site_occupancy
  Zn  Zn1       1.0  0.5848744334066182  0.5032287431177738  0.5035200954535314  1.0000
  Zn  Zn2       1.0  0.4151205868089746  0.4967815681718266  0.4964556084491252  1.0000
  H   H1        1.0  0.29019095287989677  0.5743980684516856  0.5738539413066875  1.0000
  H   H2        1.0  0.1431325094246816  0.5744810167280578  0.5737042847634657  1.0000
  H   H3        1.0  0.12946677691545008  0.40155617328333926  0.4027868082758347  1.0000
  H   H4        1.0  0.27830185396759083  0.40972729961222865  0.41076689226402163  1.0000
  H   H5        1.0  0.8705210156362069  0.5984702576990275  0.5971761209207573  1.0000
  H   H6        1.0  0.8568592569845491  0.42553874914521844  0.4262650690859077  1.0000
  H   H7        1.0  0.7098012389487706  0.42561724402735024  0.42611765277736424  1.0000
  H   H8        1.0  0.721686993406159  0.5902802225745989  0.5892121749266865  1.0000
  H   H9        1.0  0.38389225615228634  0.4958039130441425  0.7335894451593179  1.0000
  H   H10       1.0  0.38781001821332245  0.4954815231223863  0.8687088405279086  1.0000
  H   H11       1.0  0.6496764562286329  0.5053898890016556  0.8826068330250508  1.0000
  H   H12       1.0  0.6432673204045186  0.5055686331464387  0.7464208276353902  1.0000
  H   H13       1.0  0.35029766570276183  0.4945389961064494  0.11737561048281014  1.0000
  H   H14       1.0  0.6121643338247864  0.5044383900290442  0.13125631989102263  1.0000
  H   H15       1.0  0.6160970502952808  0.5041260526298432  0.26637201416301803  1.0000
  H   H16       1.0  0.35672651016542295  0.494397641564973  0.2535601221471851  1.0000
  H   H17       1.0  0.6299623399253278  0.2665232865302586  0.5052113767941719  1.0000
  H   H18       1.0  0.6301577042332055  0.12671497435520254  0.5052524044170356  1.0000
  H   H19       1.0  0.3694902687377991  0.25683357598293105  0.4956081468559788  1.0000
  H   H20       1.0  0.6305401644024754  0.7431815909996333  0.5044802303948687  1.0000
  H   H21       1.0  0.37008354080351313  0.7334823027314742  0.4950235492140181  1.0000
  H   H22       1.0  0.3698732773251834  0.8732953632815214  0.4950892895899131  1.0000
  C   C1        1.0  0.5092319737796773  0.5015734987462113  0.6465371896903849  1.0000
  C   C2        1.0  0.5000965077109213  0.6463657816112943  0.5006313050692344  1.0000
  C   C3        1.0  0.49076381856676216  0.49841117098618803  0.3534406773399256  1.0000
  C   C4        1.0  0.49991639168763397  0.3536509192587334  0.4994205324822263  1.0000
  C   C5        1.0  0.2518568093488797  0.5367417667556539  0.5365899423002602  1.0000
  C   C6        1.0  0.1679193440470499  0.5362470308720406  0.5359879202152129  1.0000
  C   C7        1.0  0.1182957092140029  0.48741570628411807  0.4876743543988484  1.0000
  C   C8        1.0  0.16116885898664887  0.4412685827979816  0.44208317252639523  1.0000
  C   C9        1.0  0.24523204331296003  0.4451828920513849  0.4459684647703314  1.0000
  C   C10       1.0  0.027841753835318204  0.4812259396444605  0.48144663584091074  1.0000
  C   C11       1.0  0.9721463777848527  0.5188088445850313  0.5185124669551301  1.0000
  C   C12       1.0  0.8388199658882342  0.5587533993025746  0.5578831613940312  1.0000
  C   C13       1.0  0.8816934752659336  0.5126151768756558  0.512284817446151  1.0000
  C   C14       1.0  0.8320718826741071  0.46377439851528396  0.46397861309434063  1.0000
  C   C15       1.0  0.7481354265427882  0.46327465446233895  0.46337943428682143  1.0000
  C   C16       1.0  0.7547588025191273  0.5548290851859294  0.5540074528263403  1.0000
  C   C17       1.0  0.5130499542994117  0.5012392603009135  0.7301424342056821  1.0000
  C   C18       1.0  0.4423055480020962  0.49820615842387667  0.7669255353809848  1.0000
  C   C19       1.0  0.4450374006009383  0.497952557917195  0.84448761577535  1.0000
  C   C20       1.0  0.5194793927057616  0.5007132560419052  0.8904159089996713  1.0000
  C   C21       1.0  0.590329759201026  0.5034167937192965  0.8514756550046914  1.0000
  C   C22       1.0  0.5873252189326194  0.5036556430664164  0.7739929799861757  1.0000
  C   C23       1.0  0.5280991061466125  0.5009551665296641  0.9738097176623558  1.0000
  C   C24       1.0  0.47186998495630667  0.4989842667244562  0.026160108096185308  1.0000
  C   C25       1.0  0.4096471917711498  0.4965221094006155  0.14849872649779883  1.0000
  C   C26       1.0  0.4804950387878506  0.49922339515693914  0.10955268222416242  1.0000
  C   C27       1.0  0.5549398771999562  0.5019796284288917  0.15547785247102303  1.0000
  C   C28       1.0  0.557678339552389  0.5017394303730003  0.23304278320439661  1.0000
  C   C29       1.0  0.4869385328899157  0.4987297833510099  0.2698352962588118  1.0000
  C   C30       1.0  0.4126625250527809  0.4963100518234074  0.22598411443250654  1.0000
  C   C31       1.0  0.5001426971154502  0.2700622321726556  0.49990762835956576  1.0000
  C   C32       1.0  0.5734615576985005  0.23315724764498935  0.5028964661757698  1.0000
  C   C33       1.0  0.5735354403300834  0.15585751744169588  0.5030493383318132  1.0000
  C   C34       1.0  0.5001469484378303  0.11254151677246683  0.5002929670069705  1.0000
  C   C35       1.0  0.4277173853177487  0.15152342408225658  0.49767275574081543  1.0000
  C   C36       1.0  0.4265562307399263  0.22851322049506004  0.49745242169266407  1.0000
  C   C37       1.0  0.49946931313530735  0.03398405923988431  0.5002137210279685  1.0000
  C   C38       1.0  0.5005709172498456  0.9660297296771747  0.5001582734313459  1.0000
  C   C39       1.0  0.4998847389888041  0.8874710903956075  0.5000616017115436  1.0000
  C   C40       1.0  0.5723123607370014  0.8484872670956991  0.5026003629423387  1.0000
  C   C41       1.0  0.5734746345853948  0.771496607305274  0.5027161287872134  1.0000
  C   C42       1.0  0.49989015844592904  0.7299520146125646  0.500245524431108  1.0000
  C   C43       1.0  0.4265772851666655  0.7668539393592301  0.49735014276316764  1.0000
  C   C44       1.0  0.4264936271585711  0.8441505662290044  0.49728550295924395  1.0000
  N   N1        1.0  0.2905738525580688  0.49224455430265124  0.49257279731826764  1.0000
  N   N2        1.0  0.709415802619155  0.507767973197325  0.5074013527463992  1.0000
  Cl  Cl1       1.0  0.9901840211192121  0.4142108915284981  0.41527042095314937  1.0000
  Cl  Cl2       1.0  0.009803300081316007  0.5858188759124305  0.5846897018477436  1.0000
  Cl  Cl3       1.0  0.6301758279528114  0.5045111788110436  0.009408658187311384  1.0000
  Cl  Cl4       1.0  0.3697910666883857  0.495433827629171  0.9905615673460845  1.0000
  O   O1        1.0  0.5764675900275903  0.5042637072381455  0.6171983936992762  1.0000
  O   O2        1.0  0.4388832905648314  0.49903888560932347  0.6110930348729015  1.0000
  O   O3        1.0  0.4313636756804372  0.6116046807708388  0.4979907283287376  1.0000
  O   O4        1.0  0.5689638259793669  0.6167799374057882  0.5035388106757921  1.0000
  O   O5        1.0  0.42353185801801624  0.495899417260141  0.38278568646660477  1.0000
  O   O6        1.0  0.5611136130931627  0.5007801639012187  0.3888790846418574  1.0000
  O   O7        1.0  0.5686492080231459  0.38842467892870763  0.502194220772367  1.0000
  O   O8        1.0  0.4310331426687596  0.383220508635688  0.49630451506025264  1.0000
  F   F1        1.0  0.35600442813314  0.11140095835372683  0.4952916565099131  1.0000
  F   F2        1.0  0.6440145410912093  0.888627603305054  0.5049973454986515  1.0000
