data_image0
_chemical_formula_structural       Hg4H36C32S4Cl8
_chemical_formula_sum              "Hg4 H36 C32 S4 Cl8"
_cell_length_a       5.85782518000961
_cell_length_b       11.757428101811186
_cell_length_c       15.038036473447761
_cell_angle_alpha    92.31334615886517
_cell_angle_beta     89.99995622475403
_cell_angle_gamma    89.99980030270974

_space_group_name_H-M_alt    "P 1"
_space_group_IT_number       1

loop_
  _space_group_symop_operation_xyz
  'x, y, z'

loop_
  _atom_site_type_symbol
  _atom_site_label
  _atom_site_symmetry_multiplicity
  _atom_site_fract_x
  _atom_site_fract_y
  _atom_site_fract_z
  _atom_site_occupancy
  Hg  Hg1       1.0  0.9383945649656056  0.12487146753554873  0.7592843418926876  1.0000
  Hg  Hg2       1.0  0.43840442600227897  0.875123952671821  0.7407158033152683  1.0000
  Hg  Hg3       1.0  0.0615963356041718  0.8751227657037649  0.2407140158605401  1.0000
  Hg  Hg4       1.0  0.5615864745276014  0.12488050370889432  0.2592861859834841  1.0000
  H   H1        1.0  0.23968584610533128  0.3314541783933437  0.6860998532429221  1.0000
  H   H2        1.0  0.7397062697045129  0.6685399058700483  0.8139042766153891  1.0000
  H   H3        1.0  0.7602982259920452  0.6685375165397504  0.31390441321189394  1.0000
  H   H4        1.0  0.26028292368511785  0.3314738951604995  0.1860906781709772  1.0000
  H   H5        1.0  0.30161936656227784  0.5404479000940514  0.6974037249785993  1.0000
  H   H6        1.0  0.8016395390082349  0.45954437409923105  0.802601669695079  1.0000
  H   H7        1.0  0.6983715340091265  0.459542100920011  0.3026038155764184  1.0000
  H   H8        1.0  0.19837526114442744  0.540473674475763  0.19739008758264018  1.0000
  H   H9        1.0  0.006145854518123898  0.6721172802550016  0.6423007153414487  1.0000
  H   H10       1.0  0.5061650637700338  0.32787551177398205  0.8577000917854178  1.0000
  H   H11       1.0  0.9938569958726902  0.3278761188022728  0.3577042672076232  1.0000
  H   H12       1.0  0.49387363606699364  0.6721331784938158  0.14229337973896608  1.0000
  H   H13       1.0  0.6459382616553099  0.5951852006937488  0.5765279351538766  1.0000
  H   H14       1.0  0.14595252624908278  0.4048081697569118  0.923464220055763  1.0000
  H   H15       1.0  0.3540697100883533  0.4048132766883016  0.4234658950258847  1.0000
  H   H16       1.0  0.8540810522689881  0.5951877675851591  0.07653485378897779  1.0000
  H   H17       1.0  0.588108666717929  0.38456670404602283  0.55961009655541  1.0000
  H   H18       1.0  0.08811974152281721  0.6154242232569942  0.9403846554377964  1.0000
  H   H19       1.0  0.4118924765586486  0.6154309170099314  0.4403817129946858  1.0000
  H   H20       1.0  0.9118950586924938  0.38457002700773324  0.059620352641658804  1.0000
  H   H21       1.0  0.0841766660334144  0.19595675891338968  0.4772372826023599  1.0000
  H   H22       1.0  0.5841730775519237  0.8040413678134256  0.022764755976702095  1.0000
  H   H23       1.0  0.9158176487883837  0.8040332165273514  0.5227602824588118  1.0000
  H   H24       1.0  0.41581953008748934  0.19596479611614376  0.9772392794840526  1.0000
  H   H25       1.0  0.2588352583671422  0.1814574967369253  0.5739741615803665  1.0000
  H   H26       1.0  0.75883898315152  0.8185399614896272  0.9260313960861594  1.0000
  H   H27       1.0  0.7411607635767369  0.8185316257794354  0.4260227129159588  1.0000
  H   H28       1.0  0.24115533159248767  0.18146961072044118  0.073974071567207  1.0000
  H   H29       1.0  0.12198137808123018  0.9821361448260865  0.5889216696742634  1.0000
  H   H30       1.0  0.6219820662229836  0.0178606990330294  0.91108056864514  1.0000
  H   H31       1.0  0.8780095225002995  0.0178546835405697  0.4110765859519461  1.0000
  H   H32       1.0  0.3780105414097648  0.9821463229334387  0.0889261524789617  1.0000
  H   H33       1.0  0.2618712437659809  0.002805393481828801  0.4875423568849442  1.0000
  H   H34       1.0  0.7618697817443945  0.9971915668377566  0.012460945523876905  1.0000
  H   H35       1.0  0.7381179497013478  0.9971837358593947  0.5124571777437552  1.0000
  H   H36       1.0  0.23811599741940628  0.0028146022119842  0.9875450850363521  1.0000
  C   C1        1.0  0.9109128139599464  0.3462810620290498  0.6211754798910647  1.0000
  C   C2        1.0  0.4109203850962898  0.6537101462487486  0.8788225488548633  1.0000
  C   C3        1.0  0.089081500846234  0.6537131712072012  0.3788228778617721  1.0000
  C   C4        1.0  0.5890722225575258  0.3462934537982252  0.12117741981324309  1.0000
  C   C5        1.0  0.11172864015983211  0.38916400026128883  0.6604734844092164  1.0000
  C   C6        1.0  0.6117442643411194  0.6108328653763948  0.8395300863228456  1.0000
  C   C7        1.0  0.888265674643698  0.6108293919849005  0.3395288380092509  1.0000
  C   C8        1.0  0.3882602931024621  0.38918433710367134  0.16046364052298398  1.0000
  C   C9        1.0  0.1451672617900712  0.5065853582900034  0.667354284158222  1.0000
  C   C10       1.0  0.6451854125692548  0.4934165512914392  0.8326481020385685  1.0000
  C   C11       1.0  0.8548236387518314  0.4934140010098247  0.33265154214738857  1.0000
  C   C12       1.0  0.3548293876050365  0.5065946909476013  0.1673447810509145  1.0000
  C   C13       1.0  0.978276586151658  0.5804195871905337  0.6364853145514358  1.0000
  C   C14       1.0  0.4782960384986552  0.4195740437234932  0.8635087851601639  1.0000
  C   C15       1.0  0.02171772864772239  0.4195763501867306  0.3635137592978026  1.0000
  C   C16       1.0  0.5217238830449276  0.5804329424201317  0.13648397026996406  1.0000
  C   C17       1.0  0.7770758354168805  0.5369481811246432  0.5987045249052373  1.0000
  C   C18       1.0  0.2770897648660622  0.4630407168646117  0.9012947879681904  1.0000
  C   C19       1.0  0.22292360074592216  0.46304520259354126  0.4012944723481482  1.0000
  C   C20       1.0  0.722930156683816  0.5369620285303399  0.09870382509924978  1.0000
  C   C21       1.0  0.7428365774535594  0.41951959192581284  0.5903306242671036  1.0000
  C   C22       1.0  0.24283602624548448  0.5804727638147542  0.9096654734136109  1.0000
  C   C23       1.0  0.2571713942950424  0.5804771847245933  0.4096638198820486  1.0000
  C   C24       1.0  0.7571736525991779  0.4195282825624105  0.09033441865728517  1.0000
  C   C25       1.0  0.10315476216200639  0.15186577562242584  0.5398375018573915  1.0000
  C   C26       1.0  0.6031581901445547  0.8481336590531753  0.9601661474353166  1.0000
  C   C27       1.0  0.8968395526665984  0.8481224956773024  0.4601593471073784  1.0000
  C   C28       1.0  0.39683612459945283  0.15187591315689286  0.03983932021805  1.0000
  C   C29       1.0  0.10450384410312098  0.023392084237464403  0.5249546266000422  1.0000
  C   C30       1.0  0.6045029407339867  0.9766064933956574  0.9750476667865869  1.0000
  C   C31       1.0  0.895488763598607  0.9765978946141731  0.4750442685271139  1.0000
  C   C32       1.0  0.39548795978628704  0.023399672240131505  0.024957033707259796  1.0000
  S   S1        1.0  0.8580712027550349  0.19764568787196174  0.6074347794892035  1.0000
  S   S2        1.0  0.3580828438870113  0.8023456185536376  0.8925645914263497  1.0000
  S   S3        1.0  0.1419214049338819  0.8023485436611397  0.39256291323093256  1.0000
  S   S4        1.0  0.641908056636062  0.19766054196809785  0.10743811396881138  1.0000
  Cl  Cl1       1.0  0.9127390660543994  0.9003501870817773  0.7527458426576175  1.0000
  Cl  Cl2       1.0  0.4127337089960078  0.09964527743343873  0.7472536433960144  1.0000
  Cl  Cl3       1.0  0.08726378433627961  0.09964405807961192  0.24725717032451658  1.0000
  Cl  Cl4       1.0  0.5872640200105578  0.9003583260183137  0.252747655337302  1.0000
  Cl  Cl5       1.0  0.9293856030725463  0.2106058931661537  0.9078513096385876  1.0000
  Cl  Cl6       1.0  0.42938109830955534  0.7893886936931769  0.5921494771358127  1.0000
  Cl  Cl7       1.0  0.07062066154637849  0.7893925961502078  0.09214717577165028  1.0000
  Cl  Cl8       1.0  0.570618337842852  0.21060555488063679  0.4078548659125047  1.0000
