data_image0
_chemical_formula_structural       Ag4H12C18S2Br2N2O12
_chemical_formula_sum              "Ag4 H12 C18 S2 Br2 N2 O12"
_cell_length_a       6.975024405345975
_cell_length_b       8.180684283645839
_cell_length_c       12.283713052609038
_cell_angle_alpha    85.13016988470184
_cell_angle_beta     73.81476030583254
_cell_angle_gamma    68.41761290854352

_space_group_name_H-M_alt    "P 1"
_space_group_IT_number       1

loop_
  _space_group_symop_operation_xyz
  'x, y, z'

loop_
  _atom_site_type_symbol
  _atom_site_label
  _atom_site_symmetry_multiplicity
  _atom_site_fract_x
  _atom_site_fract_y
  _atom_site_fract_z
  _atom_site_occupancy
  Ag  Ag1       1.0  0.9434841372448157  0.8321199857510706  0.7649144521416603  1.0000
  Ag  Ag2       1.0  0.05651591535212219  0.16788501885416449  0.23508272474869327  1.0000
  Ag  Ag3       1.0  0.7311157708724136  0.9927656311913324  0.49690701034766965  1.0000
  Ag  Ag4       1.0  0.2688872126993189  0.0072328440214022  0.5030933621572373  1.0000
  H   H1        1.0  0.3066845150792473  0.3676570233920699  0.5638078983917723  1.0000
  H   H2        1.0  0.693320545779585  0.6323401501553076  0.43619222578191597  1.0000
  H   H3        1.0  0.12949767297310188  0.8309341697624146  0.3546622763270619  1.0000
  H   H4        1.0  0.8705059138692732  0.16906961238446877  0.6453393015313508  1.0000
  H   H5        1.0  0.4695108206051231  0.3952912545878533  0.11512604218146548  1.0000
  H   H6        1.0  0.5304811582014394  0.6047084551030649  0.8848768093113932  1.0000
  H   H7        1.0  0.8092955378533375  0.5291569629182645  0.15580979928036953  1.0000
  H   H8        1.0  0.19071192200662063  0.4708415183167815  0.8441874223250707  1.0000
  H   H9        1.0  0.6296185486259698  0.7511710521949554  0.19244582326554385  1.0000
  H   H10       1.0  0.3703880093486162  0.24882611233134355  0.8075524363798721  1.0000
  H   H11       1.0  0.9055561452013309  0.6894308389667216  0.18578950051234236  1.0000
  H   H12       1.0  0.09444628831712265  0.3105688627192364  0.8142043704248607  1.0000
  C   C1        1.0  0.434642131951115  0.3299200410582585  0.29045326621526607  1.0000
  C   C2        1.0  0.5653563903914217  0.6700783950466374  0.709547814503786  1.0000
  C   C3        1.0  0.3544765275624114  0.3921370017430164  0.4040039029077533  1.0000
  C   C4        1.0  0.6455270462200174  0.6078601587684105  0.5959964573373141  1.0000
  C   C5        1.0  0.24049695131481724  0.5749286974807291  0.42644705415406753  1.0000
  C   C6        1.0  0.7595078259883151  0.42507243320651605  0.5735528707277666  1.0000
  C   C7        1.0  0.21385334312096654  0.6906714692895973  0.3364881015731314  1.0000
  C   C8        1.0  0.7861481483546837  0.3093270039156977  0.6635133212316049  1.0000
  C   C9        1.0  0.29682368365413225  0.6267623487295138  0.22544265567970712  1.0000
  C   C10       1.0  0.7031659443489813  0.3732425977096127  0.7745586163956375  1.0000
  C   C11       1.0  0.4055684608648987  0.44686881250805033  0.2019555174857572  1.0000
  C   C12       1.0  0.5944253116730636  0.5531335526573783  0.7980468863840285  1.0000
  C   C13       1.0  0.1531076133629624  0.6400832344444608  0.5460662372938216  1.0000
  C   C14       1.0  0.8468983293025332  0.3599152999256958  0.4539361057536624  1.0000
  C   C15       1.0  0.7921765452844763  0.6679435931079141  0.14743462675965446  1.0000
  C   C16       1.0  0.2078243860985437  0.3320561286276273  0.8525619229342637  1.0000
  C   C17       1.0  0.8360722541322045  0.7141206331233575  0.029763364424084674  1.0000
  C   C18       1.0  0.163921812000808  0.2858777528451811  0.9702376102806626  1.0000
  S   S1        1.0  0.5728261922380112  0.10097668492393545  0.25446650947502286  1.0000
  S   S2        1.0  0.42717323198990453  0.8990230678897005  0.7455335332040463  1.0000
  Br  Br1       1.0  0.27165378987089617  0.7833145787419368  0.10181337315394504  1.0000
  Br  Br2       1.0  0.7283444639749702  0.2166877814172921  0.8981850655879242  1.0000
  N   N1        1.0  0.8743102873474977  0.7478836086925539  0.9341881562492916  1.0000
  N   N2        1.0  0.12568147817884773  0.25211990373908577  0.06580309675350551  1.0000
  O   O1        1.0  0.7562191340466384  0.0392537679627907  0.3060967244959301  1.0000
  O   O2        1.0  0.24377998854595248  0.9607433313837743  0.6939027155063898  1.0000
  O   O3        1.0  0.4172261636984516  0.013117955559351902  0.3069707745460377  1.0000
  O   O4        1.0  0.5827732504901063  0.9868818193113071  0.6930308965899172  1.0000
  O   O5        1.0  0.6396781641402142  0.08662472587999298  0.1319383944349042  1.0000
  O   O6        1.0  0.36032094339334697  0.9133724065521065  0.8680634882527443  1.0000
  O   O7        1.0  0.3836656034895184  0.28174873198004485  0.4906986911572204  1.0000
  O   O8        1.0  0.616335887986139  0.7182497412252502  0.5093027316475158  1.0000
  O   O9        1.0  0.04469371036203287  0.8041289318382352  0.5687056865031153  1.0000
  O   O10       1.0  0.9553071909029212  0.19587085606836746  0.4312957485614603  1.0000
  O   O11       1.0  0.18975313569296046  0.5284442631066851  0.624272061925872  1.0000
  O   O12       1.0  0.8102534122422682  0.4715529234766365  0.375727826176437  1.0000
