data_image0
_chemical_formula_structural       Zn2H34C32S2N2O8
_chemical_formula_sum              "Zn2 H34 C32 S2 N2 O8"
_cell_length_a       7.580325758036045
_cell_length_b       9.583859362687539
_cell_length_c       11.701379360653211
_cell_angle_alpha    107.1646350306625
_cell_angle_beta     90.00022020973685
_cell_angle_gamma    89.99967135850541

_space_group_name_H-M_alt    "P 1"
_space_group_IT_number       1

loop_
  _space_group_symop_operation_xyz
  'x, y, z'

loop_
  _atom_site_type_symbol
  _atom_site_label
  _atom_site_symmetry_multiplicity
  _atom_site_fract_x
  _atom_site_fract_y
  _atom_site_fract_z
  _atom_site_occupancy
  Zn  Zn1       1.0  0.0080357308885581  0.33153050293152114  0.558421949572896  1.0000
  Zn  Zn2       1.0  0.5080364227264481  0.6684669937962225  0.4415765233636791  1.0000
  H   H1        1.0  0.8463167733426572  0.5151122509933899  0.04340913743068602  1.0000
  H   H2        1.0  0.346317333364034  0.4848904470330878  0.9565914006471633  1.0000
  H   H3        1.0  0.80089199945737  0.4763633842985158  0.23696197005185843  1.0000
  H   H4        1.0  0.30089244960851147  0.5236373256416512  0.7630396949682778  1.0000
  H   H5        1.0  0.9119541269127679  0.2528572203704869  0.28010502683736155  1.0000
  H   H6        1.0  0.4119579791619259  0.7471408327998362  0.7198928655909286  1.0000
  H   H7        1.0  0.08456903866476749  0.07006290519119321  0.12385373212964623  1.0000
  H   H8        1.0  0.5845756921783758  0.9299353852180587  0.8761459720634905  1.0000
  H   H9        1.0  0.2224764135622763  0.9918571189756094  0.9299991777188412  1.0000
  H   H10       1.0  0.7224704485790026  0.008142812092302203  0.07000210951883903  1.0000
  H   H11       1.0  0.2716909450224279  0.0184711594779614  0.7281694258728069  1.0000
  H   H12       1.0  0.7716896815377009  0.9815351345522885  0.271834342245498  1.0000
  H   H13       1.0  0.8828466806535145  0.5332523080492633  0.892502933287638  1.0000
  H   H14       1.0  0.3828423339352938  0.4667502295225106  0.10749594777995244  1.0000
  H   H15       1.0  0.7491854537004485  0.6401905717508856  0.7721746453255707  1.0000
  H   H16       1.0  0.24918391466961506  0.35980925993762725  0.22782753897007527  1.0000
  H   H17       1.0  0.03947820794710568  0.7617967952779168  0.8265331118525625  1.0000
  H   H18       1.0  0.539473829088898  0.2382027599675212  0.1734659255123532  1.0000
  H   H19       1.0  0.9237430672762483  0.8362149766050634  0.7257214282542892  1.0000
  H   H20       1.0  0.42373794675020793  0.16378414341501474  0.2742793094199812  1.0000
  H   H21       1.0  0.10295145935386067  0.7121996110533643  0.6736201296259952  1.0000
  H   H22       1.0  0.6029489478051885  0.28780188207310425  0.3263803773387509  1.0000
  H   H23       1.0  0.6428584928370993  0.3238910577503021  0.6973547806041723  1.0000
  H   H24       1.0  0.1428577453727868  0.6761091766768884  0.3026446725933667  1.0000
  H   H25       1.0  0.4290577718235156  0.2467370337692074  0.6426410882911073  1.0000
  H   H26       1.0  0.929056030622817  0.7532631424732088  0.35735820305274774  1.0000
  H   H27       1.0  0.5397436783511863  0.36156349033460333  0.5706185669278909  1.0000
  H   H28       1.0  0.0397426365152569  0.6384360638440184  0.4293804708442013  1.0000
  H   H29       1.0  0.7737513870970005  0.9259964657457617  0.577549139809655  1.0000
  H   H30       1.0  0.2737530728037072  0.07400214663046259  0.4224493983058153  1.0000
  H   H31       1.0  0.581772469747193  0.0006471568149848009  0.6605666948073577  1.0000
  H   H32       1.0  0.08177355710649437  0.9993522222266903  0.3394315506849851  1.0000
  H   H33       1.0  0.791032362910954  0.09685279726766541  0.6961000839099898  1.0000
  H   H34       1.0  0.2910339361984313  0.9031468454252833  0.3038995951424185  1.0000
  C   C1        1.0  0.12087225844779678  0.2179823797448677  0.7593826224387997  1.0000
  C   C2        1.0  0.620872254723231  0.7820157657014379  0.2406171370842217  1.0000
  C   C3        1.0  0.020818371452612894  0.3272264030841754  0.8457346537625131  1.0000
  C   C4        1.0  0.5208146889305566  0.6727732339690746  0.15426521150428846  1.0000
  C   C5        1.0  0.9937426637599812  0.3129658730262506  0.9649978451358907  1.0000
  C   C6        1.0  0.4937389298983632  0.6870362362662378  0.03500291765168845  1.0000
  C   C7        1.0  0.900441496294178  0.41617857742451747  0.057451767116432996  1.0000
  C   C8        1.0  0.4004412564777623  0.5838217130934709  0.9425474806103796  1.0000
  C   C9        1.0  0.8729681489326421  0.39472243024675185  0.16809988931706957  1.0000
  C   C10       1.0  0.3729697356005913  0.6052768779456273  0.8318990582819625  1.0000
  C   C11       1.0  0.9349000558446791  0.26820226091750504  0.19283325639582222  1.0000
  C   C12       1.0  0.43490849466802217  0.7317978919735283  0.8071660438608533  1.0000
  C   C13       1.0  0.030371754701192796  0.1673385485775469  0.10618170132850933  1.0000
  C   C14       1.0  0.5303713023651753  0.8326577815007213  0.8938182600866472  1.0000
  C   C15       1.0  0.0634995370393909  0.1880407673051323  0.993283819794968  1.0000
  C   C16       1.0  0.5635005670010782  0.8119608687817818  0.006714914351121562  1.0000
  C   C17       1.0  0.16669838406739498  0.08478111311527671  0.906301063558523  1.0000
  C   C18       1.0  0.6666939054849975  0.9152212393537056  0.09370236785417778  1.0000
  C   C19       1.0  0.19543423387690947  0.0993338353590403  0.7952228172560538  1.0000
  C   C20       1.0  0.6954344773868327  0.9006661891059198  0.20477671608048115  1.0000
  C   C21       1.0  0.9468651155021275  0.4509568301307213  0.8183181737767955  1.0000
  C   C22       1.0  0.44685929374848127  0.549044381625798  0.18168311564677722  1.0000
  C   C23       1.0  0.8592795838578481  0.6106201921101545  0.7080957558354302  1.0000
  C   C24       1.0  0.3592782108758428  0.38937918533616067  0.29190488358363353  1.0000
  C   C25       1.0  0.9897933804088621  0.7383746518274208  0.7348034769952819  1.0000
  C   C26       1.0  0.489788816595606  0.2616241971293434  0.26519650501269615  1.0000
  C   C27       1.0  0.7802615863786855  0.5870892779066708  0.5832542562694202  1.0000
  C   C28       1.0  0.2802607837088118  0.4129136766211942  0.4167453247796829  1.0000
  C   C29       1.0  0.5592063384616708  0.28048121108363944  0.6185551652559911  1.0000
  C   C30       1.0  0.059204424952937984  0.7195182434984561  0.38144133315077516  1.0000
  C   C31       1.0  0.7071850839521401  0.0275935481378298  0.6254168125078011  1.0000
  C   C32       1.0  0.20718657503303456  0.9724064293978429  0.3745827387408483  1.0000
  S   S1        1.0  0.6569346056671178  0.1211947103750575  0.5175621334032314  1.0000
  S   S2        1.0  0.1569360954003542  0.8788054678349728  0.48243734125144055  1.0000
  N   N1        1.0  0.9441656225749142  0.47675698363274666  0.7148206644474586  1.0000
  N   N2        1.0  0.4441606017821157  0.5232431395747952  0.28517950626544325  1.0000
  O   O1        1.0  0.15123474080078836  0.2194403480521459  0.6503105613873147  1.0000
  O   O2        1.0  0.6512340756023177  0.7805620515799987  0.34969113377093214  1.0000
  O   O3        1.0  0.8258006652835022  0.47851563252459056  0.49754440821099893  1.0000
  O   O4        1.0  0.32580090406040085  0.5214827865796893  0.5024559219261635  1.0000
  O   O5        1.0  0.671777740884302  0.6864500846394677  0.5761008111341541  1.0000
  O   O6        1.0  0.17177770029927328  0.3135489787190621  0.42390270960831355  1.0000
  O   O7        1.0  0.8353079250600998  0.16452561470651264  0.4756290961669551  1.0000
  O   O8        1.0  0.3353086582295076  0.8354727664297171  0.5243712484619607  1.0000
