data_image0
_chemical_formula_structural       Ba4H16C16O24
_chemical_formula_sum              "Ba4 H16 C16 O24"
_cell_length_a       7.300335452569616
_cell_length_b       8.26452806559631
_cell_length_c       10.279915194223111
_cell_angle_alpha    89.99926940165547
_cell_angle_beta     89.99983319443034
_cell_angle_gamma    90.72146679457799

_space_group_name_H-M_alt    "P 1"
_space_group_IT_number       1

loop_
  _space_group_symop_operation_xyz
  'x, y, z'

loop_
  _atom_site_type_symbol
  _atom_site_label
  _atom_site_symmetry_multiplicity
  _atom_site_fract_x
  _atom_site_fract_y
  _atom_site_fract_z
  _atom_site_occupancy
  Ba  Ba1       1.0  0.09528145955255238  0.26104529386985575  0.38444434881136397  1.0000
  Ba  Ba2       1.0  0.4047187214241957  0.7389535612482162  0.8844457183140405  1.0000
  Ba  Ba3       1.0  0.9047120993802478  0.7389516718149592  0.6155529115966587  1.0000
  Ba  Ba4       1.0  0.5952818100077903  0.26104942135338394  0.1155515420561457  1.0000
  H   H1        1.0  0.24972632756411875  0.037598804011949497  0.057919291558121706  1.0000
  H   H2        1.0  0.250272419025471  0.9623992308370075  0.5579186955403799  1.0000
  H   H3        1.0  0.750272710106344  0.9623981349424041  0.9420769960737729  1.0000
  H   H4        1.0  0.7497267179130629  0.0376025484045499  0.4420756465253675  1.0000
  H   H5        1.0  0.43567955064025193  0.33017272579060364  0.8505418514289644  1.0000
  H   H6        1.0  0.06432070425647399  0.669823040731849  0.3505470727215041  1.0000
  H   H7        1.0  0.56432090633961  0.669826626591707  0.1494573545011804  1.0000
  H   H8        1.0  0.9356797030914876  0.3301738915146331  0.6494521332210396  1.0000
  H   H9        1.0  0.027380990242512792  0.10587527269749587  0.9110507217722699  1.0000
  H   H10       1.0  0.4726163597322213  0.8941243807629603  0.41105476490320564  1.0000
  H   H11       1.0  0.9726208612435769  0.8941252830914903  0.0889455658382943  1.0000
  H   H12       1.0  0.5273813578841312  0.10587498500401439  0.5889424954883182  1.0000
  H   H13       1.0  0.07702733449688988  0.3896114472942854  0.8672161764117162  1.0000
  H   H14       1.0  0.42297426673123073  0.6103864662541554  0.3672251629486851  1.0000
  H   H15       1.0  0.9229745666125948  0.6103915285994502  0.1327840022691262  1.0000
  H   H16       1.0  0.5770260909763039  0.38960804582541186  0.6327779340889492  1.0000
  C   C1        1.0  0.19644116202437084  0.11572539100886559  0.7451969905281075  1.0000
  C   C2        1.0  0.3035584075773697  0.8842829558283398  0.24520342503261355  1.0000
  C   C3        1.0  0.8035569029961849  0.8842909156389921  0.2548090247126352  1.0000
  C   C4        1.0  0.6964419253014424  0.11571034613668728  0.7548055086352433  1.0000
  C   C5        1.0  0.1695330367662748  0.14609574746192067  0.8912749163316461  1.0000
  C   C6        1.0  0.3304656949950483  0.8539005850580139  0.3912786876514928  1.0000
  C   C7        1.0  0.8304674698476261  0.853906025063999  0.1087233168154214  1.0000
  C   C8        1.0  0.6695347123550377  0.14609634719624143  0.6087195455203798  1.0000
  C   C9        1.0  0.17863874738819158  0.3260025031674516  0.9266342026518117  1.0000
  C   C10       1.0  0.3213598544351583  0.6739944745002546  0.4266388563314862  1.0000
  C   C11       1.0  0.8213617344054995  0.6739980592750144  0.073365976042794  1.0000
  C   C12       1.0  0.6786392080406074  0.32600367448316087  0.573362295147561  1.0000
  C   C13       1.0  0.12358693549968078  0.34060908312826393  0.0704500783357531  1.0000
  C   C14       1.0  0.37640630230963257  0.6593899882610684  0.570458154493366  1.0000
  C   C15       1.0  0.8764190746571927  0.6593938726962562  0.9295520458823391  1.0000
  C   C16       1.0  0.6235831971906619  0.34060941756663954  0.42954494253037717  1.0000
  O   O1        1.0  0.133622322891064  0.2178361235512796  0.6661511343240178  1.0000
  O   O2        1.0  0.36638137911452157  0.7821577352546357  0.1661526463314047  1.0000
  O   O3        1.0  0.8663851313996813  0.7821704558001982  0.33385001710342976  1.0000
  O   O4        1.0  0.6336160903401691  0.21782952982540135  0.8338455868928064  1.0000
  O   O5        1.0  0.27514857526323766  0.9844000579461109  0.7121581571039641  1.0000
  O   O6        1.0  0.2248632923839438  0.015600286116459494  0.2121619468112215  1.0000
  O   O7        1.0  0.7248696876113524  0.015599207552476497  0.2878391032670962  1.0000
  O   O8        1.0  0.7751261823089095  0.9843979096744134  0.7878372591360402  1.0000
  O   O9        1.0  0.2961851891692575  0.05392019415465649  0.9654840408559053  1.0000
  O   O10       1.0  0.20381047844733044  0.9460749661550664  0.4654861571653086  1.0000
  O   O11       1.0  0.7038152926244334  0.9460803682878093  0.0345161378387076  1.0000
  O   O12       1.0  0.7961872391626414  0.05392439958859539  0.5345140215382358  1.0000
  O   O13       1.0  0.35656654034173835  0.39668793769128996  0.9077687185239044  1.0000
  O   O14       1.0  0.1434348337831253  0.6033069078725505  0.40777348445548267  1.0000
  O   O15       1.0  0.6434325717638172  0.603312631420188  0.092233405713408  1.0000
  O   O16       1.0  0.8565655735627047  0.39669002436615836  0.5922266942577323  1.0000
  O   O17       1.0  0.9598146946716637  0.30167067833838246  0.0995235928446334  1.0000
  O   O18       1.0  0.5401738061149288  0.6983306975885598  0.5995309855183137  1.0000
  O   O19       1.0  0.0401857871198956  0.69832988409631  0.9004775586206433  1.0000
  O   O20       1.0  0.4598225914324273  0.301671094936637  0.40047405702754457  1.0000
  O   O21       1.0  0.24527935640268334  0.38177572644313773  0.1524679302757761  1.0000
  O   O22       1.0  0.25471491695970616  0.6182232380153821  0.6524718113909741  1.0000
  O   O23       1.0  0.7547238399470757  0.6182236125778289  0.8475303028809619  1.0000
  O   O24       1.0  0.7452815054185039  0.38177976463212804  0.347526421753983  1.0000
