data_image0
_chemical_formula_structural       Cd4H100C128N28O20
_chemical_formula_sum              "Cd4 H100 C128 N28 O20"
_cell_length_a       10.212243364076734
_cell_length_b       17.28673553648455
_cell_length_c       21.727050114077922
_cell_angle_alpha    98.15830082056418
_cell_angle_beta     90.00734248796263
_cell_angle_gamma    107.17824478015264

_space_group_name_H-M_alt    "P 1"
_space_group_IT_number       1

loop_
  _space_group_symop_operation_xyz
  'x, y, z'

loop_
  _atom_site_type_symbol
  _atom_site_label
  _atom_site_symmetry_multiplicity
  _atom_site_fract_x
  _atom_site_fract_y
  _atom_site_fract_z
  _atom_site_occupancy
  Cd  Cd1       1.0  0.5216936337361062  0.48333367687481404  0.6470866323924866  1.0000
  Cd  Cd2       1.0  0.03840672652243168  0.516670110002039  0.8529071911605897  1.0000
  Cd  Cd3       1.0  0.4783069484977035  0.5166672325250304  0.3529131454847843  1.0000
  Cd  Cd4       1.0  0.9615925707486712  0.4833301877616948  0.1470929783505994  1.0000
  H   H1        1.0  0.7438343426143492  0.6941010611868847  0.6734106532352229  1.0000
  H   H2        1.0  0.049795602622133145  0.30603606464945443  0.8266879890542923  1.0000
  H   H3        1.0  0.25616434162148494  0.3058980107204762  0.32658845828881766  1.0000
  H   H4        1.0  0.9502036950339133  0.6939642337584999  0.1733126407851628  1.0000
  H   H5        1.0  0.4749674592488874  0.5803097174171513  0.5177662001114028  1.0000
  H   H6        1.0  0.8943158377174429  0.41962806089750876  0.9822891952136671  1.0000
  H   H7        1.0  0.5250317764354335  0.419692415913687  0.4822332547101522  1.0000
  H   H8        1.0  0.10568315265108205  0.5803716232938143  0.017709984975681402  1.0000
  H   H9        1.0  0.5493183564993345  0.6868239084861046  0.4519374721859321  1.0000
  H   H10       1.0  0.862426799645796  0.31305614138752713  0.04811447757504081  1.0000
  H   H11       1.0  0.4506819196017844  0.31317638862977043  0.5480622370260235  1.0000
  H   H12       1.0  0.13757151841034704  0.6869441563798447  0.9518856919071156  1.0000
  H   H13       1.0  0.7263735846566775  0.7417636757032611  0.46559852398448237  1.0000
  H   H14       1.0  0.9846938205146004  0.258230300438278  0.0344241113390282  1.0000
  H   H15       1.0  0.2736276702744576  0.25823662076475534  0.534400724928247  1.0000
  H   H16       1.0  0.015306456356405755  0.741769997966031  0.9655765185294596  1.0000
  H   H17       1.0  0.4055599613229434  0.7704871943864832  0.5418854481207659  1.0000
  H   H18       1.0  0.6352240537168116  0.22945360812892807  0.9581369367330979  1.0000
  H   H19       1.0  0.5944425785708987  0.22951371371765114  0.45811340915803805  1.0000
  H   H20       1.0  0.3647752431693407  0.7705466889905853  0.04186277244983222  1.0000
  H   H21       1.0  0.34539580614540466  0.898080929317189  0.5487761470589518  1.0000
  H   H22       1.0  0.44736302902595065  0.1019336209757782  0.9512217361161817  1.0000
  H   H23       1.0  0.6546080202509189  0.10192059299993873  0.4512241598989917  1.0000
  H   H24       1.0  0.552636940557534  0.8980660632119141  0.04877744410219977  1.0000
  H   H25       1.0  0.7635729452861427  0.8743442231779852  0.4425105789474486  1.0000
  H   H26       1.0  0.8892761927415123  0.12549324419722296  0.05750702443865659  1.0000
  H   H27       1.0  0.2364286765945778  0.1256548487184617  0.5574885326636903  1.0000
  H   H28       1.0  0.11072279839689976  0.8745064412825416  0.9424930764072244  1.0000
  H   H29       1.0  0.7032367849173937  0.0015906264769966999  0.4473147498645815  1.0000
  H   H30       1.0  0.7015522418789004  0.9983212249268051  0.05269545160877701  1.0000
  H   H31       1.0  0.29676544884375744  0.9984096693431611  0.5526840387489144  1.0000
  H   H32       1.0  0.298446075792299  0.0016790721963460004  0.9473042575451132  1.0000
  H   H33       1.0  0.5123060309892511  0.8826973672803933  0.6731166299303055  1.0000
  H   H34       1.0  0.6294197695810696  0.11714985959981312  0.8268030240576749  1.0000
  H   H35       1.0  0.4876933274836901  0.11730109427201542  0.3268837939422582  1.0000
  H   H36       1.0  0.3705789150397082  0.8828492129517614  0.1731965477946318  1.0000
  H   H37       1.0  0.6148765710818154  0.015196523602512004  0.8595803337347689  1.0000
  H   H38       1.0  0.5996752784417796  0.9846932714656592  0.6403310945819172  1.0000
  H   H39       1.0  0.38512499036694686  0.9848043857936942  0.14041944417153465  1.0000
  H   H40       1.0  0.4003260384610812  0.015305190079473603  0.3596693293487121  1.0000
  H   H41       1.0  0.5557243651589019  0.8853162158380243  0.9006330817884275  1.0000
  H   H42       1.0  0.6703921425131228  0.11457966878796103  0.5992862808957894  1.0000
  H   H43       1.0  0.4442768913120148  0.11468408320687473  0.0993680084373594  1.0000
  H   H44       1.0  0.3296104593524448  0.8854194043932824  0.40071375140091453  1.0000
  H   H45       1.0  0.45754055982033054  0.7535314741655696  0.7148701459887405  1.0000
  H   H46       1.0  0.7036531985397332  0.24631017434509062  0.7850526895978048  1.0000
  H   H47       1.0  0.5424591051702451  0.2464676003150288  0.28513080687739734  1.0000
  H   H48       1.0  0.2963451803333044  0.7536882865667351  0.21494727391745266  1.0000
  H   H49       1.0  0.5039154655647167  0.7414966288050309  0.8865985730397056  1.0000
  H   H50       1.0  0.7624932326021608  0.2584665431999511  0.6133907601141003  1.0000
  H   H51       1.0  0.4960857909061931  0.2585036702398683  0.11340251718608128  1.0000
  H   H52       1.0  0.2375057585362512  0.7415331422798133  0.3866093407317805  1.0000
  H   H53       1.0  0.35804303846831  0.6994891002569974  0.8347821544990452  1.0000
  H   H54       1.0  0.6585609097457735  0.30045902482441994  0.6651583988837331  1.0000
  H   H55       1.0  0.6419579114849725  0.3005105858597119  0.16521840673316748  1.0000
  H   H56       1.0  0.34143746951220794  0.6995394367316196  0.33484202495979787  1.0000
  H   H57       1.0  0.7827608220690153  0.609364716202336  0.76260892090378  1.0000
  H   H58       1.0  0.17335836643877667  0.39064311024043263  0.7373972621462243  1.0000
  H   H59       1.0  0.21724043324706346  0.39063558090990114  0.23739078833720836  1.0000
  H   H60       1.0  0.8266395850527248  0.6093584127427366  0.2626035049657887  1.0000
  H   H61       1.0  0.3613497167805022  0.5827190656558158  0.7517661412115401  1.0000
  H   H62       1.0  0.7785218378422628  0.41720726111982753  0.7482396496006344  1.0000
  H   H63       1.0  0.6386515389205201  0.4172812321006419  0.24823402835771446  1.0000
  H   H64       1.0  0.22147647944398596  0.582793035359103  0.2517595992249895  1.0000
  H   H65       1.0  0.5705278028660814  0.4338734662260678  0.7839682949042199  1.0000
  H   H66       1.0  0.13656527996966625  0.5662821982100185  0.7160216641947557  1.0000
  H   H67       1.0  0.4294721074402831  0.5661280573940459  0.2160329325941248  1.0000
  H   H68       1.0  0.8634349965163964  0.4337180995500703  0.2839785053454662  1.0000
  H   H69       1.0  0.3046020486782908  0.298393812490275  0.6368737036416049  1.0000
  H   H70       1.0  0.006138817139778089  0.7016550424882767  0.8631586390972785  1.0000
  H   H71       1.0  0.695399758856155  0.7016095473338881  0.3631272695534307  1.0000
  H   H72       1.0  0.9938617650940318  0.29834586691156767  0.13684113877999238  1.0000
  H   H73       1.0  0.20234768835582886  0.18556282701526783  0.6994025020892423  1.0000
  H   H74       1.0  0.016694180531914096  0.8145599471530574  0.8007099337847023  1.0000
  H   H75       1.0  0.7976551576707039  0.8144386933728356  0.30059642385486995  1.0000
  H   H76       1.0  0.9833060955692048  0.1854403499628177  0.1992897754272533  1.0000
  H   H77       1.0  0.2890342176601878  0.2015190026199818  0.8103651790003994  1.0000
  H   H78       1.0  0.08755435587455919  0.7987360290219316  0.6897502545725942  1.0000
  H   H79       1.0  0.7109680164859072  0.7984812938443966  0.18963406994135568  1.0000
  H   H80       1.0  0.9124449406266563  0.20126426745336096  0.31024899428206243  1.0000
  H   H81       1.0  0.5190374309895489  0.2821185662670373  0.8840214761907462  1.0000
  H   H82       1.0  0.2369463557238519  0.7181239847415885  0.6160680646822527  1.0000
  H   H83       1.0  0.48096284588145743  0.7178817321372792  0.115979153677749  1.0000
  H   H84       1.0  0.7630548999771705  0.28187631301486954  0.38393210488700186  1.0000
  H   H85       1.0  0.5779970211111305  0.389873309185262  0.8800139809649394  1.0000
  H   H86       1.0  0.18816116175619876  0.6103679556244687  0.620058692111577  1.0000
  H   H87       1.0  0.4220022765449159  0.6101269892226926  0.11998664887451581  1.0000
  H   H88       1.0  0.8118378293822135  0.3896317298552959  0.3799414087343038  1.0000
  H   H89       1.0  0.6212746490057981  0.3773455117989215  0.9777068681448212  1.0000
  H   H90       1.0  0.2440958103714621  0.6227606121905113  0.5223039266608395  1.0000
  H   H91       1.0  0.37872342373454876  0.622652336828935  0.022293026705135312  1.0000
  H   H92       1.0  0.7559041599819167  0.37723907328561523  0.4776961742140741  1.0000
  H   H93       1.0  0.201789767774713  0.3847848365676613  0.980958127647149  1.0000
  H   H94       1.0  0.8171028621594942  0.6151559544947673  0.5189973208787748  1.0000
  H   H95       1.0  0.7982101413768207  0.6152166851197908  0.01904171886639721  1.0000
  H   H96       1.0  0.18289741394161757  0.38484434262110784  0.48100238833318076  1.0000
  H   H97       1.0  0.47112024121639007  0.4777112121709167  0.144684008505152  1.0000
  H   H98       1.0  0.993533211588506  0.5221379805371883  0.3553329334917379  1.0000
  H   H99       1.0  0.5288822994473392  0.5222896972216517  0.8553157694301844  1.0000
  H   H100      1.0  0.006466084912702323  0.4778623159381041  0.644666315362926  1.0000
  C   C1        1.0  0.6885017132855539  0.6827379004389088  0.6288518892094999  1.0000
  C   C2        1.0  0.005745852338293403  0.31734692772360523  0.8712305367965384  1.0000
  C   C3        1.0  0.3114962974830605  0.31726178311183173  0.3711468306225498  1.0000
  C   C4        1.0  0.9942541180150785  0.6826527577525142  0.1287695640783753  1.0000
  C   C5        1.0  0.5510332150707598  0.6226174746604302  0.5512057851901915  1.0000
  C   C6        1.0  0.9281509307408629  0.3773505058208144  0.9488535394352198  1.0000
  C   C7        1.0  0.4489651022154889  0.37738282181850025  0.4487934636354396  1.0000
  C   C8        1.0  0.0718480603975494  0.6226491796589501  0.051146561410668284  1.0000
  C   C9        1.0  0.6240676111513324  0.7337924722734996  0.4842123407218821  1.0000
  C   C10       1.0  0.8902874529141657  0.26613798455568377  0.01582579371054041  1.0000
  C   C11       1.0  0.3759323588170957  0.26620721255840607  0.5157872998247726  1.0000
  C   C12       1.0  0.10971184435693718  0.7338623132080431  0.9841743758006558  1.0000
  C   C13       1.0  0.5894458185384651  0.813179121254919  0.4918597389185918  1.0000
  C   C14       1.0  0.7763804226579082  0.18671756323777802  0.008144368640714102  1.0000
  C   C15       1.0  0.4105554367776137  0.18682117585732536  0.5081399703223966  1.0000
  C   C16       1.0  0.22361887461318736  0.8132827345259558  0.9918558008704821  1.0000
  C   C17       1.0  0.4719275019944645  0.8216915368439216  0.5216756687452389  1.0000
  C   C18       1.0  0.6503425410493477  0.17821894105301084  0.9783314977624257  1.0000
  C   C19       1.0  0.5280721014093218  0.1783093732037742  0.4783245694312654  1.0000
  C   C20       1.0  0.3496570615845513  0.8217819677062507  0.021667819757539095  1.0000
  C   C21       1.0  0.437973562077147  0.894373271668286  0.5252307191108442  1.0000
  C   C22       1.0  0.5436312026228195  0.10557872283776248  0.9747561619979875  1.0000
  C   C23       1.0  0.5620299578015421  0.10562763772064443  0.4747690588535249  1.0000
  C   C24       1.0  0.45636809503322706  0.8944215755701919  0.025244467841467614  1.0000
  C   C25       1.0  0.6711980540580528  0.8795544866231353  0.4658291419919891  1.0000
  C   C26       1.0  0.7917076221687509  0.12033021222877241  0.0341825236813733  1.0000
  C   C27       1.0  0.32880485394020553  0.12044519884208432  0.534170958970023  1.0000
  C   C28       1.0  0.20829038975470143  0.8796694732546301  0.9658175771354749  1.0000
  C   C29       1.0  0.6365582952450809  0.9520162812070511  0.46882745362979245  1.0000
  C   C30       1.0  0.6845313420993052  0.04790565510957379  0.0311652532451419  1.0000
  C   C31       1.0  0.3634449185009245  0.047984015897910105  0.5311722556692686  1.0000
  C   C32       1.0  0.3154663629215692  0.9520934168014181  0.9688338582498659  1.0000
  C   C33       1.0  0.5189635372020761  0.961572480198207  0.4986439770191565  1.0000
  C   C34       1.0  0.5573649808059713  0.0384042695575602  0.0013640864813737998  1.0000
  C   C35       1.0  0.4810403500111491  0.03842720526337471  0.5013561239718953  1.0000
  C   C36       1.0  0.4426336433828554  0.9615966404937736  0.9986361516660976  1.0000
  C   C37       1.0  0.5679230397115448  0.960635947759414  0.7626348770949533  1.0000
  C   C38       1.0  0.6072024298316948  0.039222160729330796  0.7372759550963082  1.0000
  C   C39       1.0  0.4320776033391596  0.0393631247848845  0.2373646948154189  1.0000
  C   C40       1.0  0.39279821321900255  0.9607769118149749  0.2627236168140641  1.0000
  C   C41       1.0  0.5220550178679562  0.8847516972930978  0.7233223360538119  1.0000
  C   C42       1.0  0.637105705733674  0.11508567277346772  0.7765999586615067  1.0000
  C   C43       1.0  0.47794531943500124  0.11524676361145231  0.27667762751951835  1.0000
  C   C44       1.0  0.3628936523543231  0.8849127881347201  0.2234000048827838  1.0000
  C   C45       1.0  0.5781919725772583  0.9586321911899777  0.8269218267332689  1.0000
  C   C46       1.0  0.6195487159080529  0.04124787555904421  0.672992147602649  1.0000
  C   C47       1.0  0.4218102619537802  0.041368105918628814  0.17307788253675935  1.0000
  C   C48       1.0  0.3804541917052619  0.9587518092619478  0.327007493031104  1.0000
  C   C49       1.0  0.5458412122715828  0.8847894925683378  0.850566446010987  1.0000
  C   C50       1.0  0.6610221508500587  0.1150911558009895  0.6493501691012753  1.0000
  C   C51       1.0  0.45416004342943955  0.11521080518812  0.1494337235582677  1.0000
  C   C52       1.0  0.3389807571481995  0.8849085296642228  0.3506499318607439  1.0000
  C   C53       1.0  0.4901961496881171  0.8110369534797927  0.7469734934880846  1.0000
  C   C54       1.0  0.6788752729411129  0.1888083420570439  0.7529518289143198  1.0000
  C   C55       1.0  0.5098041879997909  0.1889615080689779  0.2530269304135118  1.0000
  C   C56       1.0  0.3211263500944384  0.8111907317720579  0.24704866368161751  1.0000
  C   C57       1.0  0.5020731472397416  0.8101030053289833  0.8110518275257731  1.0000
  C   C58       1.0  0.6918558982560584  0.1897740360562636  0.6888773416779586  1.0000
  C   C59       1.0  0.49792749658085  0.1898960685037565  0.18894866504113136  1.0000
  C   C60       1.0  0.3081460309121837  0.8102256500568075  0.3111232195832869  1.0000
  C   C61       1.0  0.469030387749257  0.730752702693728  0.8375054580752348  1.0000
  C   C62       1.0  0.7382650476704242  0.26917149297556625  0.6624708235024314  1.0000
  C   C63       1.0  0.5309702560713346  0.26924637113901173  0.1624950344916698  1.0000
  C   C64       1.0  0.26173461655026387  0.7308275802165908  0.3375292087071742  1.0000
  C   C65       1.0  0.6850474285767804  0.6211937378348085  0.77000132074037  1.0000
  C   C66       1.0  0.06379443264026467  0.3787873475779621  0.7300255485352594  1.0000
  C   C67       1.0  0.31495413248703846  0.37880717091717747  0.22999799683766747  1.0000
  C   C68       1.0  0.9362051711484654  0.6212135631139618  0.2699751499695111  1.0000
  C   C69       1.0  0.4702273074305764  0.6054750730640562  0.7636670306525629  1.0000
  C   C70       1.0  0.8646563181861565  0.3944670616872018  0.7363468561331316  1.0000
  C   C71       1.0  0.5297726625378516  0.3945246117678495  0.23633260989408464  1.0000
  C   C72       1.0  0.1353419998699793  0.6055332360801702  0.2636533133490246  1.0000
  C   C73       1.0  0.4888060800560083  0.37793566923694755  0.7665106279250294  1.0000
  C   C74       1.0  0.11079279011239156  0.6222186046560055  0.7335095420641693  1.0000
  C   C75       1.0  0.5111951155980067  0.6220664666634975  0.23349066826765608  1.0000
  C   C76       1.0  0.8892074859887275  0.3777816924598696  0.2664901671477864  1.0000
  C   C77       1.0  0.341715611794676  0.3014171152464229  0.6844406958451401  1.0000
  C   C78       1.0  0.04023206248533024  0.6986926992376539  0.8155974014350846  1.0000
  C   C79       1.0  0.6582849100071756  0.6985856316531879  0.31555974832729555  1.0000
  C   C80       1.0  0.9597682136157817  0.30130759787822115  0.1844023077768711  1.0000
  C   C81       1.0  0.2845146086807375  0.23933690085017645  0.7197468423501191  1.0000
  C   C82       1.0  0.04509681690048252  0.7608080578914242  0.7803290618897876  1.0000
  C   C83       1.0  0.7154885434784719  0.7606652318218893  0.2802521522593011  1.0000
  C   C84       1.0  0.9549024803706203  0.23919223987230961  0.21967110762140143  1.0000
  C   C85       1.0  0.3326040411502619  0.2484334704730529  0.781155267254519  1.0000
  C   C86       1.0  0.08410281001716415  0.7517662639725557  0.7189247950623993  1.0000
  C   C87       1.0  0.6673988056461583  0.7515680512034848  0.2188445793461256  1.0000
  C   C88       1.0  0.9158964872539389  0.24823403379117798  0.2810753744487968  1.0000
  C   C89       1.0  0.4364642834952975  0.3193648286326792  0.8055482072827829  1.0000
  C   C90       1.0  0.1170294490758651  0.6808331338544492  0.694507693302249  1.0000
  C   C91       1.0  0.5635372783384156  0.6806360814077479  0.19445203095177988  1.0000
  C   C92       1.0  0.8829708270252539  0.319167163261426  0.3054920159097136  1.0000
  C   C93       1.0  0.4885231856821761  0.33475224403701276  0.872210401268589  1.0000
  C   C94       1.0  0.15379410572391092  0.6654864141966855  0.6278545741331882  1.0000
  C   C95       1.0  0.5114780700188462  0.665248053719445  0.1277897683006657  1.0000
  C   C96       1.0  0.8462051907773045  0.33451388227860696  0.37214467472146845  1.0000
  C   C97       1.0  0.4077937306024353  0.37674603315124955  0.9717806139694288  1.0000
  C   C98       1.0  0.03115832154162498  0.6233329508269138  0.5282525183282658  1.0000
  C   C99       1.0  0.5922052605359768  0.6232536523285148  0.028219486876451993  1.0000
  C   C100      1.0  0.9688422606921776  0.3766679585729308  0.4717472595490051  1.0000
  C   C101      1.0  0.5356484863851777  0.39118184676075873  0.0017286083880918859  1.0000
  C   C102      1.0  0.14459202702152402  0.6088992703609222  0.49830226213050105  1.0000
  C   C103      1.0  0.46435050475323447  0.6088178387190057  0.998271492457789  1.0000
  C   C104      1.0  0.8554082494645388  0.3911010273991737  0.5016979074097206  1.0000
  C   C105      1.0  0.30066779232022617  0.3958090617430799  0.0048049450242402  1.0000
  C   C106      1.0  0.9049908309033654  0.6041384121817117  0.4951908369598215  1.0000
  C   C107      1.0  0.6993315045659259  0.6041912353764333  0.9951947641586898  1.0000
  C   C108      1.0  0.09501073131529132  0.39586249850293603  0.5048098616030074  1.0000
  C   C109      1.0  0.21010231438535956  0.4550018895992737  0.10230470571552527  1.0000
  C   C110      1.0  0.7551306145104846  0.5449287893989023  0.3977307516340076  1.0000
  C   C111      1.0  0.7898982682333868  0.5449990204447915  0.8976955324900118  1.0000
  C   C112      1.0  0.2448699677233179  0.455072120000942  0.6022690262432633  1.0000
  C   C113      1.0  0.3228281046635004  0.4318365699353919  0.06711244825463329  1.0000
  C   C114      1.0  0.8910974208126137  0.568041101125857  0.4328960064680345  1.0000
  C   C115      1.0  0.6771727840879366  0.5681649523926426  0.9328878586162118  1.0000
  C   C116      1.0  0.10890218259118  0.4319598089218459  0.5671042317084626  1.0000
  C   C117      1.0  0.45198776169141314  0.44842723131668544  0.09657223149341827  1.0000
  C   C118      1.0  0.003672882565680944  0.551453283353979  0.40343307516574356  1.0000
  C   C119      1.0  0.5480131262901368  0.5515742897229147  0.9034271547208945  1.0000
  C   C120      1.0  0.9963245170923969  0.44854517756147777  0.5965668883204813  1.0000
  C   C121      1.0  0.5573709267280834  0.42745962823269684  0.0643923244247233  1.0000
  C   C122      1.0  0.130010086638876  0.572511907138832  0.4356577706586506  1.0000
  C   C123      1.0  0.4426293497579792  0.5725406695273918  0.9356078451154985  1.0000
  C   C124      1.0  0.8699879252845761  0.4274877783445633  0.5643423301581976  1.0000
  C   C125      1.0  0.6954349687903446  0.4454409234270145  0.0963151119072023  1.0000
  C   C126      1.0  0.2501160878321542  0.5545492705834646  0.40376232715156135  1.0000
  C   C127      1.0  0.30456500079314  0.5545587607606706  0.9036840683111791  1.0000
  C   C128      1.0  0.7498832090539975  0.4454510265360483  0.5962373820313616  1.0000
  N   N1        1.0  0.4427927505132986  0.36935005353857525  0.707134978117864  1.0000
  N   N2        1.0  0.07335570192231004  0.6307580043910196  0.7928830237092086  1.0000
  N   N3        1.0  0.5572087508884638  0.6306526940016186  0.2928659264118706  1.0000
  N   N4        1.0  0.926644268431062  0.3692416810851071  0.20711707716570518  1.0000
  N   N5        1.0  0.5645848223632158  0.5708817432444918  0.7413502601120285  1.0000
  N   N6        1.0  0.993617888058289  0.42908954334986044  0.7586588815286106  1.0000
  N   N7        1.0  0.4354154537379031  0.42911855387138337  0.2586494490999272  1.0000
  N   N8        1.0  0.0063797569155780946  0.5709113667051184  0.24134135658982098  1.0000
  N   N9        1.0  0.6701801562746895  0.684789590341751  0.8083276424379376  1.0000
  N   N10       1.0  0.9853439916578353  0.3151758538232698  0.6917049418866483  1.0000
  N   N11       1.0  0.32982012021137314  0.31521070741834484  0.19167252710228408  1.0000
  N   N12       1.0  0.014654326783251369  0.6848244445883226  0.30829568792378126  1.0000
  N   N13       1.0  0.5320591051817801  0.6731245653658322  0.8037518016618891  1.0000
  N   N14       1.0  0.858868979073776  0.3268057458311374  0.6962753315127088  1.0000
  N   N15       1.0  0.4679421505192423  0.32687573239062573  0.1962483679073657  1.0000
  N   N16       1.0  0.14113031858227035  0.6731945525768098  0.3037252983267464  1.0000
  N   N17       1.0  0.5905583508400627  0.6107139417571121  0.606774128390711  1.0000
  N   N18       1.0  0.9796551699598767  0.38931555685530833  0.8933058773288635  1.0000
  N   N19       1.0  0.4094380080162665  0.38928635472909423  0.3932251203768473  1.0000
  N   N20       1.0  0.02034412731122611  0.6106847409084253  0.10669429218232547  1.0000
  N   N21       1.0  0.7111621491844744  0.7380332381641567  0.5904011627954375  1.0000
  N   N22       1.0  0.9731915300682631  0.262027028874755  0.9096613311443349  1.0000
  N   N23       1.0  0.2888368407991067  0.26196644538294583  0.4095975570656449  1.0000
  N   N24       1.0  0.026807766817888958  0.7379732682447581  0.09033837803859508  1.0000
  N   N25       1.0  0.6220834685128197  0.6985557363575127  0.5412542727703453  1.0000
  N   N26       1.0  0.9234484803945193  0.3014278977629346  0.958794994220284  1.0000
  N   N27       1.0  0.37791386955846923  0.30144456012504867  0.4587449760262458  1.0000
  N   N28       1.0  0.07655081726152707  0.6985724006450199  0.04120563561917119  1.0000
  O   O1        1.0  0.23821786034274336  0.5023520488074239  0.15384585476301985  1.0000
  O   O2        1.0  0.7358263275198954  0.497647722544926  0.346152509817557  1.0000
  O   O3        1.0  0.7617827222760101  0.49764886123664115  0.8461543834425169  1.0000
  O   O4        1.0  0.26417394858122384  0.5023525745709492  0.6538471993944057  1.0000
  O   O5        1.0  0.08800553313234631  0.4251677090042137  0.077651363286904  1.0000
  O   O6        1.0  0.6628936526033514  0.574771127724361  0.42238869036240345  1.0000
  O   O7        1.0  0.9119957229536269  0.5748325893964646  0.9223492666106168  1.0000
  O   O8        1.0  0.33710564466774423  0.4252291700393727  0.5776114791487855  1.0000
  O   O9        1.0  0.7182876371623976  0.48439070625583003  0.1513998140039376  1.0000
  O   O10       1.0  0.23404415724382224  0.5157163349376431  0.34863800168865566  1.0000
  O   O11       1.0  0.28171263893872134  0.515609590860045  0.8485998952080179  1.0000
  O   O12       1.0  0.7659548342795334  0.4842833511863347  0.6513625594854915  1.0000
  O   O13       1.0  0.786866935279001  0.42014958252494244  0.06639446632504328  1.0000
  O   O14       1.0  0.3668051906925741  0.5797706856412363  0.4337067032299871  1.0000
  O   O15       1.0  0.21313401428933088  0.5798501029475462  0.9336056345789033  1.0000
  O   O16       1.0  0.6331954527430741  0.42022838754728303  0.5662933290086514  1.0000
  O   O17       1.0  0.3775864634297578  0.34541547313856574  0.91005615449437  1.0000
  O   O18       1.0  0.0322566995178874  0.6548031529689097  0.5899438942344446  1.0000
  O   O19       1.0  0.6224125273237108  0.654584211696978  0.0899434860232446  1.0000
  O   O20       1.0  0.9677442500504441  0.3451965325035787  0.41005620666950193  1.0000
