data_image0
_chemical_formula_structural       Zn4H32C58N8O16
_chemical_formula_sum              "Zn4 H32 C58 N8 O16"
_cell_length_a       9.080266129949228
_cell_length_b       12.28677872102603
_cell_length_c       13.982
_cell_angle_alpha    103.03394930579567
_cell_angle_beta     99.49566122629581
_cell_angle_gamma    105.97737284533939

_space_group_name_H-M_alt    "P 1"
_space_group_IT_number       1

loop_
  _space_group_symop_operation_xyz
  'x, y, z'

loop_
  _atom_site_type_symbol
  _atom_site_label
  _atom_site_symmetry_multiplicity
  _atom_site_fract_x
  _atom_site_fract_y
  _atom_site_fract_z
  _atom_site_occupancy
  Zn  Zn1       1.0  0.04650784495844114  0.8871085444485018  0.593102668877421  1.0000
  Zn  Zn2       1.0  0.9534979503923465  0.1128973513099183  0.4069001932789718  1.0000
  Zn  Zn3       1.0  0.8663602038268933  0.7916030532534392  0.8205250586775464  1.0000
  Zn  Zn4       1.0  0.133632819185415  0.20839400831992796  0.17947110825538462  1.0000
  H   H1        1.0  0.7136952975693021  0.9188824578304845  0.05029917322401899  1.0000
  H   H2        1.0  0.28629660885431457  0.0811146037428827  0.9496990196960625  1.0000
  H   H3        1.0  0.43850037867191105  0.7823139076696677  0.961601904429898  1.0000
  H   H4        1.0  0.5614885619485007  0.21768403732220779  0.03839757623159561  1.0000
  H   H5        1.0  0.2223684660857117  0.4417225039534074  0.9007057706477541  1.0000
  H   H6        1.0  0.7776342222619872  0.5582736742014588  0.0992891111103376  1.0000
  H   H7        1.0  0.3366299849109211  0.47756544297103426  0.33025911924058704  1.0000
  H   H8        1.0  0.6633708895222412  0.5224342688578503  0.669734122883007  1.0000
  H   H9        1.0  0.2900044997687416  0.8042774585497198  0.4494552046204134  1.0000
  H   H10       1.0  0.7100023415708067  0.19572313669766564  0.5505460039158194  1.0000
  H   H11       1.0  0.4393197990879115  0.5856896840965433  0.8594304285331305  1.0000
  H   H12       1.0  0.5606803427194507  0.4143109111508494  0.14056934702600193  1.0000
  H   H13       1.0  0.5725506412369796  0.8220271031592432  0.5131834353301913  1.0000
  H   H14       1.0  0.4274569680283378  0.1779752589251515  0.48681677522911576  1.0000
  H   H15       1.0  0.06686904071975164  0.637082555645371  0.5884963725759463  1.0000
  H   H16       1.0  0.9331281352844059  0.3629189230205227  0.41150111469827527  1.0000
  H   H17       1.0  0.2786240620067417  0.5543636638967726  0.6457001447917463  1.0000
  H   H18       1.0  0.721375731137698  0.4456386981876292  0.3542985131618224  1.0000
  H   H19       1.0  0.8592555718238372  0.20644872077114226  0.889190819837367  1.0000
  H   H20       1.0  0.14075161817862636  0.7935501076392341  0.1108129367149573  1.0000
  H   H21       1.0  0.9972661390076635  0.061072488111968  0.9039511932836318  1.0000
  H   H22       1.0  0.002728313956296831  0.9389201563688729  0.0960471122722596  1.0000
  H   H23       1.0  0.5474562505329174  0.6932768067707896  0.7395966375091804  1.0000
  H   H24       1.0  0.4525468923776187  0.306725555313605  0.2604023793303085  1.0000
  H   H25       1.0  0.5984116870138009  0.639701891513738  0.40330527296810464  1.0000
  H   H26       1.0  0.40158807083066955  0.36029782031513946  0.5966857039110565  1.0000
  H   H27       1.0  0.1459334886533625  0.1702753832325072  0.6697871589010589  1.0000
  H   H28       1.0  0.8540666884539618  0.8297278622703956  0.33021958252722083  1.0000
  H   H29       1.0  0.39455771669338446  0.3368854630863112  0.7699865552679412  1.0000
  H   H30       1.0  0.6054405758994645  0.6631160155795826  0.23002034930335927  1.0000
  H   H31       1.0  0.636266565363286  0.2906217193795512  0.8326958780826106  1.0000
  H   H32       1.0  0.36374146316489225  0.7093841763788689  0.16730650812579745  1.0000
  C   C1        1.0  0.6193050841400164  0.9535787196281689  0.028001760861066368  1.0000
  C   C2        1.0  0.3806842757432491  0.046422759037724894  0.9720041866811118  1.0000
  C   C3        1.0  0.46742440090724097  0.8779307095964056  0.9788679544288358  1.0000
  C   C4        1.0  0.5325593407325683  0.1220681188139778  0.021136865948378193  1.0000
  C   C5        1.0  0.3442994047603349  0.46772504423992695  0.9437615411705593  1.0000
  C   C6        1.0  0.655701121009912  0.5322764344259667  0.056237735400110025  1.0000
  C   C7        1.0  0.4085167784505685  0.4885525189220985  0.4046334324425232  1.0000
  C   C8        1.0  0.5914885270374128  0.5114445426512759  0.5953568983528044  1.0000
  C   C9        1.0  0.3828459352184979  0.8896784088805703  0.47124491780907374  1.0000
  C   C10       1.0  0.6171631392984408  0.11032218636682249  0.5287558147791742  1.0000
  C   C11       1.0  0.4653195119298559  0.5473466707087623  0.920639724478562  1.0000
  C   C12       1.0  0.5346865261839396  0.45264950744609667  0.07935623137070993  1.0000
  C   C13       1.0  0.5396353117509775  0.8995594448629304  0.5074651074208347  1.0000
  C   C14       1.0  0.4603737627659612  0.10044115038446219  0.4925341947568853  1.0000
  C   C15       1.0  0.37296297611992907  0.0124084963261666  0.7186605597601172  1.0000
  C   C16       1.0  0.627036468361588  0.9875956325952444  0.281342702229999  1.0000
  C   C17       1.0  0.35492844259870526  0.8877375384243107  0.6990092910647903  1.0000
  C   C18       1.0  0.6450683494425602  0.11226305682307469  0.3009879799926339  1.0000
  C   C19       1.0  0.1855721271474664  0.6946770251017753  0.6296937863960181  1.0000
  C   C20       1.0  0.8144268980711897  0.3053235701456174  0.3703037239186813  1.0000
  C   C21       1.0  0.3047476413629298  0.6495025364121146  0.6616452529829433  1.0000
  C   C22       1.0  0.6952521164815335  0.3504971754167697  0.3383507303330688  1.0000
  C   C23       1.0  0.6311942911753261  0.938891003558197  0.7833414903303436  1.0000
  C   C24       1.0  0.36880173294016316  0.0611078248521864  0.2166610699355829  1.0000
  C   C25       1.0  0.8004496671359717  0.6859629849649876  0.5812714270618714  1.0000
  C   C26       1.0  0.19955085863427507  0.3140384937009059  0.41872284307195434  1.0000
  C   C27       1.0  0.6471337547393289  0.05900882248347018  0.8031139694309601  1.0000
  C   C28       1.0  0.3528660031051416  0.9409908893454143  0.19689059634821862  1.0000
  C   C29       1.0  0.8743943955305367  0.037285561436874594  0.8653747661501967  1.0000
  C   C30       1.0  0.12560047669627739  0.9627106167179915  0.13462571505479565  1.0000
  C   C31       1.0  0.45414892431114845  0.7266444071364262  0.7124794868724252  1.0000
  C   C32       1.0  0.5458508335333149  0.2733553046924584  0.2875157812383192  1.0000
  C   C33       1.0  0.34720119830315344  0.9236953218476387  0.950592343035048  1.0000
  C   C34       1.0  0.6527858931027452  0.0763035065627378  0.049414266638613924  1.0000
  C   C35       1.0  0.5201782001583624  0.10054892744211229  0.772197732138082  1.0000
  C   C36       1.0  0.4798249780521431  0.8994560848977995  0.2278068201600192  1.0000
  C   C37       1.0  0.4831327987067056  0.8491657196436505  0.7318698763515101  1.0000
  C   C38       1.0  0.516861376194278  0.150833992185234  0.2681283696423549  1.0000
  C   C39       1.0  0.5533298065829085  0.5778634795576281  0.44478733150729255  1.0000
  C   C40       1.0  0.4466758828679644  0.4221344654342402  0.5552039307100998  1.0000
  C   C41       1.0  0.18324919560392064  0.8408748369709258  0.8994382346327399  1.0000
  C   C42       1.0  0.8167434787454723  0.1591239914394578  0.1005668275683291  1.0000
  C   C43       1.0  0.6450964047989911  0.5896933367627922  0.539980931565765  1.0000
  C   C44       1.0  0.3549074001374065  0.4103028413920669  0.4600097785893809  1.0000
  C   C45       1.0  0.2528529920281741  0.153634428847198  0.7016905228488852  1.0000
  C   C46       1.0  0.7471483016678488  0.8463688166557048  0.2983134773869765  1.0000
  C   C47       1.0  0.8278043538479735  0.0188980886664822  0.5681630804904785  1.0000
  C   C48       1.0  0.1722024874915746  0.9811025065809033  0.43183955845628225  1.0000
  C   C49       1.0  0.6218638695568615  0.5802169064558882  0.9766679834319234  1.0000
  C   C50       1.0  0.3781357823876945  0.4197748546064446  0.023326412818782755  1.0000
  C   C51       1.0  0.3929660656486432  0.24575024323722516  0.7555049694016631  1.0000
  C   C52       1.0  0.6070378451876692  0.7542538856841858  0.2445016319240737  1.0000
  C   C53       1.0  0.7520608927397774  0.6679456645483413  0.9531779791690839  1.0000
  C   C54       1.0  0.2479406790192229  0.33205051360652493  0.04682035898668603  1.0000
  C   C55       1.0  0.5270614392095041  0.2196893973293541  0.7905542866923412  1.0000
  C   C56       1.0  0.47294547272998233  0.780316498429066  0.20945227111901235  1.0000
  C   C57       1.0  0.6579797859104701  0.009957009973817299  0.5363569909341237  1.0000
  C   C58       1.0  0.3420274746919318  0.9900471189475936  0.4636449628406752  1.0000
  N   N1        1.0  0.21059114637890988  0.8102237485092445  0.6479894791171574  1.0000
  N   N2        1.0  0.7894067269510855  0.1897741964826309  0.35200952816292397  1.0000
  N   N3        1.0  0.24396329299822378  0.040505621888876  0.6842853877724481  1.0000
  N   N4        1.0  0.7560387686235828  0.959499390451036  0.3157190448970155  1.0000
  N   N5        1.0  0.7746894914145483  0.9278367878007286  0.8225414691017934  1.0000
  N   N6        1.0  0.22530576477515743  0.0721602737726386  0.1774570827042155  1.0000
  N   N7        1.0  0.8026434611087224  0.1185415121406095  0.8552409415535179  1.0000
  N   N8        1.0  0.19735702936155514  0.8814573162697668  0.14476281243223357  1.0000
  O   O1        1.0  0.931243674649643  0.0969754995879697  0.546134452873666  1.0000
  O   O2        1.0  0.06876463194151941  0.9030233288224138  0.45386727769150786  1.0000
  O   O3        1.0  0.08123735201848348  0.8946441042991538  0.879281748877965  1.0000
  O   O4        1.0  0.9187563683196629  0.10534942360019527  0.12070878600818703  1.0000
  O   O5        1.0  0.8603315484635061  0.9475149350074403  0.614784360720549  1.0000
  O   O6        1.0  0.1396767934276255  0.05248654365846049  0.3852193292769144  1.0000
  O   O7        1.0  0.8679122439055077  0.7266603086695227  0.5178335627302602  1.0000
  O   O8        1.0  0.132094284071087  0.2733447036703893  0.48216419640112224  1.0000
  O   O9        1.0  0.8617893214218242  0.7218598125114467  0.6760016086394813  1.0000
  O   O10       1.0  0.1382018523759783  0.2781381324804286  0.32399453525297167  1.0000
  O   O11       1.0  0.7231342129035525  0.6703238271647435  0.8592327510541864  1.0000
  O   O12       1.0  0.2768677781183158  0.32967588466414094  0.1407663323401565  1.0000
  O   O13       1.0  0.15165649211976978  0.7318424416219145  0.8801880252423333  1.0000
  O   O14       1.0  0.8483432657246935  0.26815727020696295  0.11982226217895686  1.0000
  O   O15       1.0  0.873124219522154  0.7315588642817017  0.020416992134244093  1.0000
  O   O16       1.0  0.126867757501401  0.2684434978026999  0.9795815436241142  1.0000
