data_image0
_chemical_formula_structural       Cd2H44C48S4N8O8
_chemical_formula_sum              "Cd2 H44 C48 S4 N8 O8"
_cell_length_a       9.231616530265294
_cell_length_b       11.754945629887247
_cell_length_c       14.524265565517394
_cell_angle_alpha    101.05484953727169
_cell_angle_beta     100.35363783174834
_cell_angle_gamma    109.03695412048259

_space_group_name_H-M_alt    "P 1"
_space_group_IT_number       1

loop_
  _space_group_symop_operation_xyz
  'x, y, z'

loop_
  _atom_site_type_symbol
  _atom_site_label
  _atom_site_symmetry_multiplicity
  _atom_site_fract_x
  _atom_site_fract_y
  _atom_site_fract_z
  _atom_site_occupancy
  Cd  Cd1       1.0  0.15125805316601776  0.3690571729658459  0.7043986527642546  1.0000
  Cd  Cd2       1.0  0.8487444604466176  0.630947830709488  0.2955906438386791  1.0000
  H   H1        1.0  0.5268454842629994  0.9852510457174264  0.8921496678068979  1.0000
  H   H2        1.0  0.47316241775667567  0.014749738136096398  0.1078582878199512  1.0000
  H   H3        1.0  0.7555321846258495  0.3237752188268317  0.3524315993064917  1.0000
  H   H4        1.0  0.24444271440793844  0.6762207398208703  0.6475641276851577  1.0000
  H   H5        1.0  0.1505702415972507  0.14527832826549064  0.49471022249348817  1.0000
  H   H6        1.0  0.8494304659995747  0.8547326606010158  0.5052948364522436  1.0000
  H   H7        1.0  0.8168403822718843  0.4030689335818849  0.6571259801606432  1.0000
  H   H8        1.0  0.18317359574992764  0.5969465102594641  0.34287303479336373  1.0000
  H   H9        1.0  0.0527103700489135  0.3292554242565089  0.44309294806212324  1.0000
  H   H10       1.0  0.9472709685166832  0.6707421584660268  0.5568941403974108  1.0000
  H   H11       1.0  0.8365160486256116  0.9643788199981742  0.9337681274419297  1.0000
  H   H12       1.0  0.16347485581172086  0.035606889984443106  0.0662301765823443  1.0000
  H   H13       1.0  0.23512149169467741  0.9780157170498428  0.42246371939207  1.0000
  H   H14       1.0  0.7648911313024483  0.021997026177864108  0.5775388894042734  1.0000
  H   H15       1.0  0.1813373215514958  0.8670498582940954  0.4892773398791449  1.0000
  H   H16       1.0  0.8186704509818912  0.13296197248615732  0.5107252454644495  1.0000
  H   H17       1.0  0.6006602087308011  0.5327576445770391  0.9609066479948327  1.0000
  H   H18       1.0  0.39932627045356384  0.46723298244318573  0.039101444803513616  1.0000
  H   H19       1.0  0.41728477991041046  0.021243116473947107  0.693187659280845  1.0000
  H   H20       1.0  0.5827178977217002  0.9787650489438846  0.3068165573126791  1.0000
  H   H21       1.0  0.8357675613518721  0.6863791279817877  0.08917679715772663  1.0000
  H   H22       1.0  0.16422994663675897  0.3136113678181546  0.9108277883250226  1.0000
  H   H23       1.0  0.839959750863571  0.4293685089901517  0.9210830142167907  1.0000
  H   H24       1.0  0.16005706163370811  0.5706173411628371  0.07888744756545665  1.0000
  H   H25       1.0  0.5134888941115392  0.31370579975600077  0.4136223346962424  1.0000
  H   H26       1.0  0.48651010498318925  0.6863154733064222  0.5863839441144523  1.0000
  H   H27       1.0  0.526430707014967  0.32213358899169015  0.538783135369016  1.0000
  H   H28       1.0  0.4735722559474809  0.6778867109366971  0.4612221097282188  1.0000
  H   H29       1.0  0.37965206017639724  0.23221176322690706  0.7926842050680422  1.0000
  H   H30       1.0  0.6203333794703811  0.767788144379928  0.2073222945663745  1.0000
  H   H31       1.0  0.9506312806042917  0.9058114707979432  0.07702383920074857  1.0000
  H   H32       1.0  0.04936867590053141  0.09417696548202062  0.9229731810845794  1.0000
  H   H33       1.0  0.49003097426104614  0.1530781646073436  0.0053581237064789945  1.0000
  H   H34       1.0  0.5099970900740942  0.8469391845097363  0.9946449220020954  1.0000
  H   H35       1.0  0.650443503456124  0.37725391083842663  0.023987461512646732  1.0000
  H   H36       1.0  0.349589223526131  0.622756515220303  0.9760000366671094  1.0000
  H   H37       1.0  0.46279745766869945  0.904297998669769  0.5594783902830118  1.0000
  H   H38       1.0  0.5372107400754516  0.09571966159554532  0.440534007287397  1.0000
  H   H39       1.0  0.41586427094490835  0.8673717533047381  0.4312471940765406  1.0000
  H   H40       1.0  0.5841516100971448  0.13264120777753166  0.5687647907696345  1.0000
  H   H41       1.0  0.636448353006756  0.5438333196156934  0.4519359676331973  1.0000
  H   H42       1.0  0.3635695761635418  0.45619080523888306  0.54807574660925  1.0000
  H   H43       1.0  0.6587854274362855  0.5572694095572148  0.57857775837757  1.0000
  H   H44       1.0  0.34122409148314153  0.4427463286618618  0.4214324661961868  1.0000
  C   C1        1.0  0.9084271528487661  0.27503278364282835  0.7930048773590885  1.0000
  C   C2        1.0  0.09156705517646915  0.7249337336929359  0.20697119303790867  1.0000
  C   C3        1.0  0.4375530957279069  0.5625155896342025  0.8064355273489597  1.0000
  C   C4        1.0  0.5624291751512162  0.4374732576050917  0.19357525386551802  1.0000
  C   C5        1.0  0.7919369848225982  0.23863454484705934  0.8509510923654136  1.0000
  C   C6        1.0  0.208056622278825  0.7613470144224409  0.14903043464560287  1.0000
  C   C7        1.0  0.5966991726875648  0.08279440492486861  0.8992261603627156  1.0000
  C   C8        1.0  0.40331471383827033  0.9172071198334141  0.10077504529168382  1.0000
  C   C9        1.0  0.586626102530822  0.6588832767508352  0.8747367702027092  1.0000
  C   C10       1.0  0.41336412323162364  0.3411082809492214  0.12527190396360774  1.0000
  C   C11       1.0  0.6553644325769526  0.7814707951646513  0.8654366674005659  1.0000
  C   C12       1.0  0.3446231333974055  0.218515105790928  0.1345688352671388  1.0000
  C   C13       1.0  0.8130557741484665  0.33799027660160164  0.42795408029252263  1.0000
  C   C14       1.0  0.18692995684636324  0.6620121454374797  0.5720410960681549  1.0000
  C   C15       1.0  0.2177523544315179  0.14278880243549005  0.563252137755292  1.0000
  C   C16       1.0  0.782247476621535  0.8572202497460779  0.43674979218758386  1.0000
  C   C17       1.0  0.8421971167243784  0.38236755584448195  0.5870234681073045  1.0000
  C   C18       1.0  0.1578080231688191  0.6176432749201269  0.4129759061164365  1.0000
  C   C19       1.0  0.9593016180493095  0.3424587689371564  0.4743760882083663  1.0000
  C   C20       1.0  0.040690294636796444  0.6575425923996933  0.5256148667717399  1.0000
  C   C21       1.0  0.7864260829734208  0.8690109835562226  0.939085950732711  1.0000
  C   C22       1.0  0.21356303486884803  0.13097102340133662  0.06091300140803211  1.0000
  C   C23       1.0  0.7054017625433459  0.11158804078226583  0.8431995529735377  1.0000
  C   C24       1.0  0.29459643752317544  0.8883965391623151  0.1567918999182823  1.0000
  C   C25       1.0  0.2730815515570983  0.9548463938893977  0.490159253518911  1.0000
  C   C26       1.0  0.7269253109249904  0.045163670550721215  0.5098471089440154  1.0000
  C   C27       1.0  0.6558092680175989  0.6274394528144498  0.9554233765812726  1.0000
  C   C28       1.0  0.344177020683155  0.3725529417437984  0.04458080640074512  1.0000
  C   C29       1.0  0.3558584281368907  0.0781812731468818  0.6677638675990067  1.0000
  C   C30       1.0  0.6441376667322203  0.9218315902560977  0.3322408944157473  1.0000
  C   C31       1.0  0.7869335399823923  0.7139613031628828  0.027213152996715506  1.0000
  C   C32       1.0  0.21305692652494906  0.28602823148195006  0.9727890718026374  1.0000
  C   C33       1.0  0.7702178208600402  0.3325638050111976  0.9161547167898121  1.0000
  C   C34       1.0  0.22979149547219185  0.6674249938212926  0.08382075814522244  1.0000
  C   C35       1.0  0.5822798843710119  0.36833807329959717  0.48806975967495714  1.0000
  C   C36       1.0  0.4177157893218606  0.6316785295931882  0.5119354700537785  1.0000
  C   C37       1.0  0.33671362230654006  0.18267431733926293  0.7161123201737993  1.0000
  C   C38       1.0  0.6632786783901706  0.8173282678572633  0.28389055849103784  1.0000
  C   C39       1.0  0.85104995791324  0.835793781360934  0.019362466405830517  1.0000
  C   C40       1.0  0.1489473223916207  0.1641938763516322  0.9806403207184928  1.0000
  C   C41       1.0  0.5761915521460779  0.17772598858866223  0.9630781114121306  1.0000
  C   C42       1.0  0.4238267737195259  0.8222801370034462  0.03692151357233802  1.0000
  C   C43       1.0  0.6642088789625973  0.3031982085305033  0.9727770391914278  1.0000
  C   C44       1.0  0.33580948341938927  0.6968029366776423  0.02720950378212453  1.0000
  C   C45       1.0  0.432207845204573  0.9398696602302934  0.4968324149657519  1.0000
  C   C46       1.0  0.5678038613816412  0.06014614373091831  0.5031808374508699  1.0000
  C   C47       1.0  0.5842528452738875  0.5008818292934336  0.5052535289582636  1.0000
  C   C48       1.0  0.4157599923458904  0.49913861316424174  0.4947591259218882  1.0000
  S   S1        1.0  0.5699361313249086  0.8246609821606654  0.7638669093381838  1.0000
  S   S2        1.0  0.43004197480874506  0.17532586384945154  0.23613758233356924  1.0000
  S   S3        1.0  0.739359702902192  0.9921033752754485  0.7632583618582276  1.0000
  S   S4        1.0  0.2606250091078337  0.0078738605034872  0.23673526483025142  1.0000
  N   N1        1.0  0.9760612556196903  0.3703207797177939  0.5735165460502715  1.0000
  N   N2        1.0  0.02393773239711559  0.6296861654340448  0.42647534876754634  1.0000
  N   N3        1.0  0.7406877930319028  0.36331067336695366  0.5005307312393372  1.0000
  N   N4        1.0  0.25930939532871394  0.6366974299024194  0.49947005942033945  1.0000
  N   N5        1.0  0.24998007533817906  0.22190549058614556  0.6500137603169378  1.0000
  N   N6        1.0  0.7500173001552995  0.7781008621796847  0.3499916307712852  1.0000
  N   N7        1.0  0.2804000254214927  0.05440197804252021  0.5709598889478968  1.0000
  N   N8        1.0  0.7196050910164401  0.9456089719634523  0.4290443195613777  1.0000
  O   O1        1.0  0.9344165626270851  0.18888147405873926  0.7385344973440056  1.0000
  O   O2        1.0  0.06558001014553846  0.8110834096190518  0.26145127316105743  1.0000
  O   O3        1.0  0.9807796316254807  0.3913192924752522  0.8004809342205448  1.0000
  O   O4        1.0  0.019214161583129025  0.6086461372766865  0.19948873738948694  1.0000
  O   O5        1.0  0.37538784780122825  0.5823119091095635  0.7281832316864297  1.0000
  O   O6        1.0  0.6245820660549555  0.41767423246054153  0.2718291257882229  1.0000
  O   O7        1.0  0.3738508009897217  0.462266163717054  0.8308584720107819  1.0000
  O   O8        1.0  0.6261378387135254  0.5377198723164796  0.16915268825167123  1.0000
