data_image0
_chemical_formula_structural       Zn4H28C32N20Cl8
_chemical_formula_sum              "Zn4 H28 C32 N20 Cl8"
_cell_length_a       9.016500789541363
_cell_length_b       10.217287595000007
_cell_length_c       12.882679852241154
_cell_angle_alpha    90.00000407493934
_cell_angle_beta     106.28252709839899
_cell_angle_gamma    89.99999983590313

_space_group_name_H-M_alt    "P 1"
_space_group_IT_number       1

loop_
  _space_group_symop_operation_xyz
  'x, y, z'

loop_
  _atom_site_type_symbol
  _atom_site_label
  _atom_site_symmetry_multiplicity
  _atom_site_fract_x
  _atom_site_fract_y
  _atom_site_fract_z
  _atom_site_occupancy
  Zn  Zn1       1.0  0.07909980434772729  0.05589938904984139  0.3143700900635266  1.0000
  Zn  Zn2       1.0  0.42089962025414  0.5558999901766768  0.18562948615663538  1.0000
  Zn  Zn3       1.0  0.9209013550099456  0.9440999083175116  0.6856302827190889  1.0000
  Zn  Zn4       1.0  0.5791003836844338  0.44410028592400164  0.8143706611654693  1.0000
  H   H1        1.0  0.8727615394198479  0.86493896678887  0.4382726024801045  1.0000
  H   H2        1.0  0.6272402717379677  0.3649393229393638  0.06172777818292731  1.0000
  H   H3        1.0  0.12723961993782498  0.1350603305784759  0.5617277703025039  1.0000
  H   H4        1.0  0.37275973220059916  0.6350609531613145  0.9382723691391774  1.0000
  H   H5        1.0  0.989482474859102  0.5716507472980865  0.24102898005895673  1.0000
  H   H6        1.0  0.5105170205978382  0.0716511204321293  0.2589717074412903  1.0000
  H   H7        1.0  0.0105175290794648  0.4283495288025918  0.7589711672631552  1.0000
  H   H8        1.0  0.4894829852303956  0.9283491556685848  0.7410292164866021  1.0000
  H   H9        1.0  0.6929687233066844  0.6150037585354367  0.6574408497319695  1.0000
  H   H10       1.0  0.807033005921319  0.11500413785088878  0.8425592963981785  1.0000
  H   H11       1.0  0.3070335895804348  0.3849955388318875  0.34255897190539025  1.0000
  H   H12       1.0  0.19296699612758766  0.8849961382497611  0.1574400743181457  1.0000
  H   H13       1.0  0.5493842464310532  0.23002389383752592  0.6619501887986629  1.0000
  H   H14       1.0  0.9506151783861225  0.7300225502696946  0.8380510670134386  1.0000
  H   H15       1.0  0.45061575750752064  0.7699763822631523  0.3380499585234418  1.0000
  H   H16       1.0  0.04938367202299079  0.26997674709767233  0.1619496314538864  1.0000
  H   H17       1.0  0.6240248502449717  0.17508660563051848  0.4944773621606161  1.0000
  H   H18       1.0  0.8759734940639134  0.6750871916942671  0.0055238831319570384  1.0000
  H   H19       1.0  0.3759739982744748  0.8249126917368129  0.5055225597009283  1.0000
  H   H20       1.0  0.12402535634522847  0.32491406313977916  0.9944768153354319  1.0000
  H   H21       1.0  0.7416029590120417  0.3521414201587375  0.4060268529071678  1.0000
  H   H22       1.0  0.758396542902588  0.8521420140299723  0.09397385261818407  1.0000
  H   H23       1.0  0.2583958895074048  0.647857877208601  0.5939730689543765  1.0000
  H   H24       1.0  0.24160230561688675  0.14785924080403837  0.9060260692434169  1.0000
  H   H25       1.0  0.7958624289371485  0.7014670130717775  0.5171645488591353  1.0000
  H   H26       1.0  0.7041369933329307  0.20146838325737085  0.9828359285121309  1.0000
  H   H27       1.0  0.20413757689107834  0.2985322842955966  0.4828363750687288  1.0000
  H   H28       1.0  0.29586301060565035  0.7985328715766469  0.017164218810009412  1.0000
  C   C1        1.0  0.9215720276971666  0.8161011494063929  0.38032196218844666  1.0000
  C   C2        1.0  0.5784286288068188  0.3161015105893412  0.11967896648138784  1.0000
  C   C3        1.0  0.0784291316605135  0.1838991266942926  0.6196784105941973  1.0000
  C   C4        1.0  0.42157021971263486  0.6838987655113372  0.8803209553801851  1.0000
  C   C5        1.0  0.9820832572861988  0.6664400939479974  0.27711543551136936  1.0000
  C   C6        1.0  0.5179162403530597  0.1664404640158139  0.22288525808029652  1.0000
  C   C7        1.0  0.0179167466523609  0.33355920341934814  0.722884711810707  1.0000
  C   C8        1.0  0.48208260816640097  0.8335598120848575  0.7771146637812761  1.0000
  C   C9        1.0  0.7271891198164582  0.49693621406301247  0.5251975631723411  1.0000
  C   C10       1.0  0.7728114646752502  0.9969368400212846  0.9748031586471056  1.0000
  C   C11       1.0  0.2728108841221015  0.503063083304326  0.47480258414974236  1.0000
  C   C12       1.0  0.2271885373736566  0.0030634360793583997  0.02519621206921842  1.0000
  C   C13       1.0  0.6825042944767858  0.5186954176881571  0.6194109882260364  1.0000
  C   C14       1.0  0.817495123585367  0.018695800181362198  0.8805894773997878  1.0000
  C   C15       1.0  0.3174957094617739  0.4813038796791815  0.3805891590960401  1.0000
  C   C16       1.0  0.18250488035321408  0.9813054546526557  0.11941066992235248  1.0000
  C   C17       1.0  0.6012897100348908  0.3029209298335971  0.6210534998439456  1.0000
  C   C18       1.0  0.8987108681003589  0.8029195898684376  0.8789464329016925  1.0000
  C   C19       1.0  0.39871144932279634  0.6970793462670883  0.3789468729386983  1.0000
  C   C20       1.0  0.1012891320588736  0.19707970749884393  0.12105216120881582  1.0000
  C   C21       1.0  0.6421446102752668  0.2738642904544903  0.5271608315232896  1.0000
  C   C22       1.0  0.8578548155512636  0.7738649159974429  0.9728404271061848  1.0000
  C   C23       1.0  0.35785424013384665  0.7261350069128767  0.4728398669440352  1.0000
  C   C24       1.0  0.14214519027698458  0.22613633883661063  0.027160496821743204  1.0000
  C   C25       1.0  0.7063183204614205  0.37148608771466485  0.4786935295353558  1.0000
  C   C26       1.0  0.7936800264794641  0.8714866753516404  0.02130695177260834  1.0000
  C   C27       1.0  0.29368052805802597  0.6285132096526667  0.5213063923261885  1.0000
  C   C28       1.0  0.20631997745911687  0.1285145794823777  0.9786931955495319  1.0000
  C   C29       1.0  0.7940037493395379  0.6049130101578867  0.47946718274880595  1.0000
  C   C30       1.0  0.7059969041919841  0.10491434133507481  0.020534508955307673  1.0000
  C   C31       1.0  0.20599625459900747  0.395085308476112  0.5205329645732348  1.0000
  C   C32       1.0  0.2940030997466039  0.8950869134989503  0.9794656383668324  1.0000
  N   N1        1.0  0.9117458091061295  0.6849058593545082  0.35777681429213004  1.0000
  N   N2        1.0  0.5882548443773743  0.18490622241066026  0.1422241059467311  1.0000
  N   N3        1.0  0.08825419672209729  0.315093438012866  0.6422241096357341  1.0000
  N   N4        1.0  0.4117451576715255  0.8150940536899896  0.8577752647695931  1.0000
  N   N5        1.0  0.9959129162048301  0.871858606197513  0.3170175553347221  1.0000
  N   N6        1.0  0.5040877415828433  0.371857994206195  0.18298337691820876  1.0000
  N   N7        1.0  0.004087087733743999  0.1281416699031652  0.6829825919873896  1.0000
  N   N8        1.0  0.4959111069366172  0.6281422818944833  0.817016544943364  1.0000
  N   N9        1.0  0.03564834834932639  0.777834629216187  0.2519412662633727  1.0000
  N   N10       1.0  0.4643522367812026  0.2778340213636667  0.24805854967945606  1.0000
  N   N11       1.0  0.9643528110083537  0.2221656468845055  0.7480591065192712  1.0000
  N   N12       1.0  0.5356466098485768  0.7221652760036362  0.7519405955763006  1.0000
  N   N13       1.0  0.847688233172441  0.5816260043341759  0.3984415320726811  1.0000
  N   N14       1.0  0.6523112606244936  0.08162636377144851  0.10155837946281572  1.0000
  N   N15       1.0  0.1523106191263466  0.4183742717665667  0.601559943000467  1.0000
  N   N16       1.0  0.34768758600529986  0.9183739123291871  0.8984407657929766  1.0000
  N   N17       1.0  0.6216118040750019  0.4229146177771738  0.6665500277636411  1.0000
  N   N18       1.0  0.8783899341316327  0.9229152314999993  0.8334509147594957  1.0000
  N   N19       1.0  0.37839051070177737  0.5770846795901862  0.3334505704794992  1.0000
  N   N20       1.0  0.12161006980694111  0.077085044600679  0.166549232562609  1.0000
  Cl  Cl1       1.0  0.9237500624426644  0.221593070245504  0.3285698492654134  1.0000
  Cl  Cl2       1.0  0.5762505881061556  0.7215936711863052  0.17142952011950288  1.0000
  Cl  Cl3       1.0  0.07624993960622818  0.7784062271218062  0.6714295214508752  1.0000
  Cl  Cl4       1.0  0.42374941772209235  0.2784075836477484  0.828571403808418  1.0000
  Cl  Cl5       1.0  0.3030935359721383  0.0703269024464532  0.4466527665561628  1.0000
  Cl  Cl6       1.0  0.19690704060164418  0.5703255356039847  0.05334548284005081  1.0000
  Cl  Cl7       1.0  0.6969076214958675  0.9296723949208641  0.5533468296206651  1.0000
  Cl  Cl8       1.0  0.8030929614472485  0.4296737617633254  0.946653887876245  1.0000
