data_image0
_chemical_formula_structural       Sm4Ag4H24C48N16O32
_chemical_formula_sum              "Sm4 Ag4 H24 C48 N16 O32"
_cell_length_a       8.073621635535499
_cell_length_b       10.120264336348788
_cell_length_c       18.6661257030639
_cell_angle_alpha    89.99970856823792
_cell_angle_beta     89.99996142812373
_cell_angle_gamma    95.69866386314912

_space_group_name_H-M_alt    "P 1"
_space_group_IT_number       1

loop_
  _space_group_symop_operation_xyz
  'x, y, z'

loop_
  _atom_site_type_symbol
  _atom_site_label
  _atom_site_symmetry_multiplicity
  _atom_site_fract_x
  _atom_site_fract_y
  _atom_site_fract_z
  _atom_site_occupancy
  Sm  Sm1       1.0  0.2595331455256725  0.6469836872148844  0.10559463220147343  1.0000
  Sm  Sm2       1.0  0.2404633533999103  0.3530153414516732  0.6055954224064238  1.0000
  Sm  Sm3       1.0  0.7404668726359701  0.35301759315058223  0.8944062193392953  1.0000
  Sm  Sm4       1.0  0.7595312253127205  0.6469819585075668  0.3944048934108083  1.0000
  Ag  Ag1       1.0  0.6048652014558086  0.15322335868853537  0.0762254815125161  1.0000
  Ag  Ag2       1.0  0.89513144437543  0.8467703146176216  0.5762232607679607  1.0000
  Ag  Ag3       1.0  0.39513545054221305  0.8467729586552079  0.9237737628455565  1.0000
  Ag  Ag4       1.0  0.1048640101844782  0.15322400836893013  0.4237743764041824  1.0000
  H   H1        1.0  0.016864172472054403  0.1491602111289367  0.08416937442698473  1.0000
  H   H2        1.0  0.48313734086090676  0.8508390319858347  0.5841671168466364  1.0000
  H   H3        1.0  0.9831404381056145  0.8508380984891701  0.9158320128470195  1.0000
  H   H4        1.0  0.5168635531465354  0.14915927140179966  0.415832127508665  1.0000
  H   H5        1.0  0.6174295775347786  0.8555544945710873  0.08047874380271483  1.0000
  H   H6        1.0  0.8825666647591462  0.1444460868721009  0.580480602250141  1.0000
  H   H7        1.0  0.382569201775773  0.14444678373731523  0.9195172861699349  1.0000
  H   H8        1.0  0.1174296368285823  0.8555551872500118  0.4195207850209925  1.0000
  H   H9        1.0  0.8169654794527546  0.6795182285206208  0.09058764273697051  1.0000
  H   H10       1.0  0.6830320948790528  0.32048325077591494  0.5905896106619508  1.0000
  H   H11       1.0  0.18303206099785999  0.3204830476997883  0.9094099944252962  1.0000
  H   H12       1.0  0.3169653245609467  0.6795170324019394  0.40941231234018727  1.0000
  H   H13       1.0  0.1195207772502087  0.4511808286030075  0.38062360667246514  1.0000
  H   H14       1.0  0.3804903149844208  0.548819551334283  0.8806206028946236  1.0000
  H   H15       1.0  0.8804963429049831  0.5488184948241679  0.6193809949771849  1.0000
  H   H16       1.0  0.6195188592052929  0.4511857156988128  0.11937649853065582  1.0000
  H   H17       1.0  0.30023985682971943  0.2980035606576976  0.14977192238509227  1.0000
  H   H18       1.0  0.19975588666801508  0.7020000060593361  0.6497706926912273  1.0000
  H   H19       1.0  0.6997573206015986  0.7019947364788519  0.8502294648900063  1.0000
  H   H20       1.0  0.8002407779390025  0.2980042471466362  0.35022694446707453  1.0000
  H   H21       1.0  0.2639893215885465  0.1426057572008403  0.2558857523808697  1.0000
  H   H22       1.0  0.23600948339345956  0.8573938158680433  0.7558846202454604  1.0000
  H   H23       1.0  0.7360113304057806  0.8573905601300209  0.7441161706262635  1.0000
  H   H24       1.0  0.7639906557758421  0.14260845752966836  0.2441140883746797  1.0000
  C   C1        1.0  0.10495194294158237  0.6350338693918258  0.272171820035176  1.0000
  C   C2        1.0  0.3950558522329429  0.3649685406355798  0.772169853651498  1.0000
  C   C3        1.0  0.8950563842070449  0.36496444645932496  0.7278311744277062  1.0000
  C   C4        1.0  0.6049510862500116  0.6350387082783014  0.22782778350118352  1.0000
  C   C5        1.0  0.9714081254422665  0.04403801052804819  0.08618908135431272  1.0000
  C   C6        1.0  0.5285934195858033  0.9559655033912833  0.5861861312420729  1.0000
  C   C7        1.0  0.028595972305943438  0.9559662551414471  0.91381230591157  1.0000
  C   C8        1.0  0.47140807944666824  0.04403776511121999  0.41381204164668633  1.0000
  C   C9        1.0  0.1659530931309305  0.49855324512176213  0.2694815638123914  1.0000
  C   C10       1.0  0.3340523527381833  0.5014501796492467  0.7694792396488382  1.0000
  C   C11       1.0  0.8340568358888164  0.5014480518728989  0.7305219663759673  1.0000
  C   C12       1.0  0.6659532258823332  0.49855607416242964  0.23051839750541353  1.0000
  C   C13       1.0  0.08137267965268787  0.9462011338795688  0.09121954418506562  1.0000
  C   C14       1.0  0.4186242218587921  0.05380101215909148  0.5912168199880343  1.0000
  C   C15       1.0  0.918624860792022  0.05380014232022748  0.9087823788156939  1.0000
  C   C16       1.0  0.5813720797348337  0.9462002619836336  0.4087802814446136  1.0000
  C   C17       1.0  0.26777741792925275  0.9786139532445474  0.09181198959816331  1.0000
  C   C18       1.0  0.23221899793029618  0.021384214998555296  0.5918110161124377  1.0000
  C   C19       1.0  0.7322223582222305  0.0213853410744562  0.9081893976751871  1.0000
  C   C20       1.0  0.7677769406477211  0.9786140800731925  0.4081871567839813  1.0000
  C   C21       1.0  0.7511269202275487  0.881412568066906  0.08364217327896031  1.0000
  C   C22       1.0  0.7488731509398292  0.11858898221636592  0.5836419989238523  1.0000
  C   C23       1.0  0.24887693551492157  0.11858971157159456  0.9163565353406327  1.0000
  C   C24       1.0  0.2511268672232845  0.8814122981542525  0.416357781157295  1.0000
  C   C25       1.0  0.8617301651286197  0.7844698124567555  0.0891158420235456  1.0000
  C   C26       1.0  0.6382698909737242  0.2155316851731327  0.5891148974130049  1.0000
  C   C27       1.0  0.13827121289618557  0.21553246301348844  0.910884473785842  1.0000
  C   C28       1.0  0.3617302481948314  0.7844705882220065  0.4108843469369461  1.0000
  C   C29       1.0  0.15707556972538578  0.41508865734988376  0.3289910831073329  1.0000
  C   C30       1.0  0.3429317060412912  0.584910227004009  0.8289895981507487  1.0000
  C   C31       1.0  0.8429377128548766  0.5849096668248847  0.6710113756250067  1.0000
  C   C32       1.0  0.6570748694260545  0.4150940428388947  0.171009110465711  1.0000
  C   C33       1.0  0.2590240089682609  0.33182099238801754  0.20163642062171763  1.0000
  C   C34       1.0  0.24097382747942217  0.6681800935024993  0.7016358077051379  1.0000
  C   C35       1.0  0.7409767640307835  0.6681763179647858  0.79836550238403  1.0000
  C   C36       1.0  0.7590253148400946  0.3318241638536889  0.29836397237204443  1.0000
  C   C37       1.0  0.23965327504312484  0.2464474678896948  0.2605341406276765  1.0000
  C   C38       1.0  0.26034563814941686  0.7535530534845448  0.760532751412292  1.0000
  C   C39       1.0  0.7603498546659182  0.7535488535991135  0.7394683181088979  1.0000
  C   C40       1.0  0.7396535041715778  0.24645120387679495  0.23946595720526181  1.0000
  C   C41       1.0  0.455918175146948  0.43191591491438436  0.012322732156519602  1.0000
  C   C42       1.0  0.044056822708817785  0.5680680894044413  0.5123224520824792  1.0000
  C   C43       1.0  0.544057486495568  0.5680684466333901  0.9876781194110793  1.0000
  C   C44       1.0  0.9559201987983457  0.4319172672532686  0.48767679229411703  1.0000
  C   C45       1.0  0.9569135020931084  0.46172653623492704  0.0323198048022064  1.0000
  C   C46       1.0  0.5430900350820734  0.5382824630745446  0.5323222856593051  1.0000
  C   C47       1.0  0.04309664013576508  0.538286674978856  0.9676762251523744  1.0000
  C   C48       1.0  0.4569091072337629  0.46172179426876175  0.46768017306693127  1.0000
  N   N1        1.0  0.22348545008229342  0.4582334962785025  0.2064781779085223  1.0000
  N   N2        1.0  0.27651633162369643  0.5417695353273116  0.7064757595643414  1.0000
  N   N3        1.0  0.7765205203555893  0.5417658084340713  0.793524816553344  1.0000
  N   N4        1.0  0.7234852884149632  0.4582347262022779  0.2935213418634177  1.0000
  N   N5        1.0  0.02598582103085076  0.816286151857113  0.0921872590401023  1.0000
  N   N6        1.0  0.47400947594495335  0.18371300372519528  0.5921846969454593  1.0000
  N   N7        1.0  0.9740113563989963  0.18371214527427773  0.9078151996946178  1.0000
  N   N8        1.0  0.5259852237768143  0.816285289271441  0.4078124044915229  1.0000
  N   N9        1.0  0.8061370434661442  0.011070962921472501  0.0816483049151344  1.0000
  N   N10       1.0  0.6938616733286479  0.9889296114470411  0.5816468231145038  1.0000
  N   N11       1.0  0.1938666912708769  0.9889303236925074  0.9183509394356549  1.0000
  N   N12       1.0  0.3061368639687955  0.0110696808045887  0.41835188550997066  1.0000
  N   N13       1.0  0.19203805320729828  0.2888479337938321  0.32473112824315825  1.0000
  N   N14       1.0  0.30796588072617936  0.7111539643677955  0.8247293060928272  1.0000
  N   N15       1.0  0.8079715127997883  0.7111503841401541  0.6752713304897286  1.0000
  N   N16       1.0  0.6920358603164516  0.2888512901811636  0.17526833106335724  1.0000
  O   O1        1.0  0.1458321356257031  0.7118883591009251  0.22029163341372285  1.0000
  O   O2        1.0  0.35417332463147483  0.2881145458559898  0.7202898904259458  1.0000
  O   O3        1.0  0.8541713570952681  0.28811094144597854  0.7797124325081343  1.0000
  O   O4        1.0  0.6458348527091929  0.7118927051381476  0.279707746726551  1.0000
  O   O5        1.0  0.3540311594504572  0.8796705175843083  0.09078404765401873  1.0000
  O   O6        1.0  0.1459650172256914  0.12032567449209348  0.5907855056927432  1.0000
  O   O7        1.0  0.6459708524129442  0.12032679487195001  0.9092130537832475  1.0000
  O   O8        1.0  0.8540317971959154  0.8796696435940844  0.4092126672076404  1.0000
  O   O9        1.0  0.015642529955847775  0.6598877875048499  0.32542816366215294  1.0000
  O   O10       1.0  0.48436536064327373  0.3401160962415588  0.8254251681798339  1.0000
  O   O11       1.0  0.984364437328132  0.3401095332363652  0.6745764379917318  1.0000
  O   O12       1.0  0.5156379822697374  0.6598921394483382  0.17457354043163786  1.0000
  O   O13       1.0  0.32252532185095356  0.09971678128502501  0.09133585559914793  1.0000
  O   O14       1.0  0.17747605074965378  0.9002813998582369  0.591335158236092  1.0000
  O   O15       1.0  0.6774781708700106  0.9002825192618782  0.9086682103227093  1.0000
  O   O16       1.0  0.8225248432563176  0.09971690352424639  0.408665157578838  1.0000
  O   O17       1.0  0.9977634249289765  0.5038754547807114  0.09441511182316732  1.0000
  O   O18       1.0  0.5022377056248287  0.4961349290502141  0.5944177205660282  1.0000
  O   O19       1.0  0.0022406440145133102  0.49613873904856826  0.9055819895905657  1.0000
  O   O20       1.0  0.49776019783254816  0.5038693262102498  0.4055852738902034  1.0000
  O   O21       1.0  0.3386233409279881  0.4351668010536827  0.056999396656785016  1.0000
  O   O22       1.0  0.16134706254184283  0.5648207372289774  0.5570012342592747  1.0000
  O   O23       1.0  0.6613492091685984  0.5648225193759088  0.9429987762553865  1.0000
  O   O24       1.0  0.8386278442640105  0.43516759433403956  0.44299801011353424  1.0000
  O   O25       1.0  0.5103914832827813  0.32904243492412627  0.9860316197436348  1.0000
  O   O26       1.0  0.9895905281429263  0.6709482661634139  0.486028017884948  1.0000
  O   O27       1.0  0.4895922165244782  0.6709469041968814  0.013972981924624202  1.0000
  O   O28       1.0  0.010392053821639994  0.3290420639353541  0.513969083564753  1.0000
  O   O29       1.0  0.8516597841239103  0.3644750295388872  0.0173254122565822  1.0000
  O   O30       1.0  0.6483462720394116  0.6355341181822423  0.5173270590993014  1.0000
  O   O31       1.0  0.14835147595650258  0.6355371907280656  0.9826716891588206  1.0000
  O   O32       1.0  0.35165546899732186  0.364471136346097  0.48267486389536884  1.0000
