data_image0
_chemical_formula_structural       Zn2H56C52N8O8
_chemical_formula_sum              "Zn2 H56 C52 N8 O8"
_cell_length_a       9.825301142585078
_cell_length_b       10.137150839159874
_cell_length_c       12.538401548197383
_cell_angle_alpha    80.51667380077262
_cell_angle_beta     68.2276975923528
_cell_angle_gamma    83.91078489532521

_space_group_name_H-M_alt    "P 1"
_space_group_IT_number       1

loop_
  _space_group_symop_operation_xyz
  'x, y, z'

loop_
  _atom_site_type_symbol
  _atom_site_label
  _atom_site_symmetry_multiplicity
  _atom_site_fract_x
  _atom_site_fract_y
  _atom_site_fract_z
  _atom_site_occupancy
  Zn  Zn1       1.0  0.31391041507519907  0.1202440674625365  0.057986265463256366  1.0000
  Zn  Zn2       1.0  0.6860877662426361  0.879756059770571  0.9420131741211794  1.0000
  H   H1        1.0  0.9154536829301136  0.41776847938886147  0.04580765932753652  1.0000
  H   H2        1.0  0.08455002782550741  0.5822306213237525  0.9541903074372159  1.0000
  H   H3        1.0  0.983757725950653  0.47499751377973354  0.1424899733256099  1.0000
  H   H4        1.0  0.016241454477871304  0.525004612528889  0.8575081140783853  1.0000
  H   H5        1.0  0.42151177847635074  0.2013334065317594  0.3916142794878399  1.0000
  H   H6        1.0  0.5784886911598904  0.7986647108587732  0.6083831648079612  1.0000
  H   H7        1.0  0.4803748468631142  0.2737709844211905  0.24546542706233515  1.0000
  H   H8        1.0  0.519623478279364  0.7262261431609929  0.7545319741881756  1.0000
  H   H9        1.0  0.7507420964697431  0.22796409521777858  0.11106426288388613  1.0000
  H   H10       1.0  0.24925822934186218  0.7720370218236849  0.8889352197458323  1.0000
  H   H11       1.0  0.8683010737613444  0.12195559506876916  0.1683049769656933  1.0000
  H   H12       1.0  0.1316993003997666  0.8780445206404223  0.8316946238427292  1.0000
  H   H13       1.0  0.18887189789420944  0.03688287641063678  0.3160369971386956  1.0000
  H   H14       1.0  0.8111352469708565  0.9631132037436174  0.6839611671864889  1.0000
  H   H15       1.0  0.10025774551814236  0.9141689254003752  0.050730037517809  1.0000
  H   H16       1.0  0.8997440157735854  0.08582517438031799  0.9492715494098648  1.0000
  H   H17       1.0  0.937904950881837  0.7393330523367183  0.18386033280030747  1.0000
  H   H18       1.0  0.062097858686001914  0.2606620422899724  0.8161416153723311  1.0000
  H   H19       1.0  0.6669918540556595  0.4572853166634658  0.17219692419298846  1.0000
  H   H20       1.0  0.3330095679736047  0.5427157953403493  0.8278022402370555  1.0000
  H   H21       1.0  0.7300484710625386  0.5156459493134165  0.27011498328025857  1.0000
  H   H22       1.0  0.2699486627951159  0.4843531801764413  0.7298856903059062  1.0000
  H   H23       1.0  0.5281978680734981  0.31470027386788496  0.06420992049466184  1.0000
  H   H24       1.0  0.47179244673068865  0.6853038925091893  0.9357920713960372  1.0000
  H   H25       1.0  0.693750052015382  0.9380295619019138  0.24330687628296496  1.0000
  H   H26       1.0  0.30625575447653824  0.06197153139994068  0.756690217725023  1.0000
  H   H27       1.0  0.5073483364602608  0.9693248161074945  0.3353936909463331  1.0000
  H   H28       1.0  0.4926565184545667  0.030673279683831794  0.6646032781740985  1.0000
  H   H29       1.0  0.7646374270584603  0.1882813567344854  0.5084879689323215  1.0000
  H   H30       1.0  0.23535846512505293  0.8117207832384423  0.4915118706940619  1.0000
  H   H31       1.0  0.6288726207166135  0.3536967450736128  0.6471302642368998  1.0000
  H   H32       1.0  0.3711298495887618  0.6463053617762001  0.35286926143811587  1.0000
  H   H33       1.0  0.8265148736241985  0.6160196312332502  0.38652669272405404  1.0000
  H   H34       1.0  0.1734833093254906  0.3839804902053531  0.613475937353769  1.0000
  H   H35       1.0  0.9018697146673991  0.3661193294019682  0.3541741336366185  1.0000
  H   H36       1.0  0.0981284670584017  0.6338807963825133  0.6458261035711604  1.0000
  H   H37       1.0  0.9609937655804118  0.2061580856748151  0.31200258093984  1.0000
  H   H38       1.0  0.03900332074365309  0.7938420422500627  0.6879995697143146  1.0000
  H   H39       1.0  0.8246560528135447  0.6022139585853593  0.7321046291528718  1.0000
  H   H40       1.0  0.17534193755404456  0.39779016528506617  0.2678991234568216  1.0000
  H   H41       1.0  0.595158723966712  0.05158606040653517  0.47026020770297833  1.0000
  H   H42       1.0  0.4048417460774871  0.9484120555353712  0.5297380342161659  1.0000
  H   H43       1.0  0.7790006142073127  0.020306445504978392  0.37898690504839294  1.0000
  H   H44       1.0  0.22100190403960346  0.979694661461188  0.6210119411819762  1.0000
  H   H45       1.0  0.027210173193274994  0.8648275963862558  0.46477518678167945  1.0000
  H   H46       1.0  0.9727912975934531  0.13517251283666806  0.5352248934504191  1.0000
  H   H47       1.0  0.5111059558988131  0.28468581404806065  0.532111181023943  1.0000
  H   H48       1.0  0.48888903224118974  0.7153123299793264  0.4678870566468945  1.0000
  H   H49       1.0  0.6396119524864972  0.4129996025040583  0.4825319526019671  1.0000
  H   H50       1.0  0.36038184355275865  0.5870005463282554  0.5174679621578309  1.0000
  H   H51       1.0  0.4728685828546163  0.4417409519783887  0.3710202155038402  1.0000
  H   H52       1.0  0.5271296455888432  0.558258178268332  0.6289769493892552  1.0000
  H   H53       1.0  0.707754305229308  0.48211136862958165  0.9293440538203657  1.0000
  H   H54       1.0  0.29223591450771386  0.5178947946175256  0.07066089220630542  1.0000
  H   H55       1.0  0.4397547789034064  0.20611005601780616  0.7940173417117438  1.0000
  H   H56       1.0  0.5602466427178926  0.793891057434635  0.2059810250949568  1.0000
  C   C1        1.0  0.9546656752449253  0.3855693538651792  0.11780712165855087  1.0000
  C   C2        1.0  0.0453358438913085  0.6144297540254797  0.8821930767522519  1.0000
  C   C3        1.0  0.5169098415550266  0.24434450056889298  0.3193791823797485  1.0000
  C   C4        1.0  0.48308848440336766  0.7556526241160454  0.6806198141174564  1.0000
  C   C5        1.0  0.7775432497541247  0.1984073468095744  0.1899249325146856  1.0000
  C   C6        1.0  0.22245817145920915  0.8015937680914932  0.8100726366686646  1.0000
  C   C7        1.0  0.1304262469682911  0.9681181284753391  0.29208059217583593  1.0000
  C   C8        1.0  0.8695775613022648  0.03187896667549241  0.7079192061930187  1.0000
  C   C9        1.0  0.6443656762803657  0.1378032413012207  0.2903326494912691  1.0000
  C   C10       1.0  0.35563684115062705  0.8621978685621982  0.7096646014923991  1.0000
  C   C11       1.0  0.6826521142784757  0.43141556927643865  0.7765698921247266  1.0000
  C   C12       1.0  0.31734363489633216  0.568589567450168  0.22343358108227565  1.0000
  C   C13       1.0  0.08191957110248893  0.8997140860140077  0.14295780909376538  1.0000
  C   C14       1.0  0.9180809489230627  0.10028302280113617  0.8570437414974779  1.0000
  C   C15       1.0  0.826919183128581  0.3211554381737685  0.22136283410454646  1.0000
  C   C16       1.0  0.17308009440691313  0.6788446840216976  0.7786362872802075  1.0000
  C   C17       1.0  0.5529957381312657  0.036276886346307394  0.15548246303874452  1.0000
  C   C18       1.0  0.4470079722163903  0.9637222158149326  0.8445147061026578  1.0000
  C   C19       1.0  0.0909275244030638  0.2938861540788053  0.07620187053465342  1.0000
  C   C20       1.0  0.9090771891348907  0.7061149326716885  0.9238019226597914  1.0000
  C   C21       1.0  0.9912259470907685  0.8011403825796817  0.21893057718386905  1.0000
  C   C22       1.0  0.008775716686024301  0.1988557227628007  0.7810691781397028  1.0000
  C   C23       1.0  0.6966585245462157  0.4252554279501978  0.24958167450267152  1.0000
  C   C24       1.0  0.3033439924768118  0.5747456833618401  0.7504147788576535  1.0000
  C   C25       1.0  0.5528729697170577  0.3277472050533561  0.9710300229063267  1.0000
  C   C26       1.0  0.44711953752243977  0.6722569512484213  0.028971332585015854  1.0000
  C   C27       1.0  0.5999049427495963  0.0114484765941043  0.2602103797702284  1.0000
  C   C28       1.0  0.40009881553960736  0.9885496256834896  0.7397861099265415  1.0000
  C   C29       1.0  0.7344764337462737  0.21933636421807282  0.43141403759992886  1.0000
  C   C30       1.0  0.2655206521698332  0.7806637651554311  0.5685873154308754  1.0000
  C   C31       1.0  0.9729273175139499  0.7844770698820793  0.3367384147525811  1.0000
  C   C32       1.0  0.027073154162096106  0.21552104026532243  0.6632630176599508  1.0000
  C   C33       1.0  0.6085225700105427  0.3486562519925442  0.7388809691187749  1.0000
  C   C34       1.0  0.391478853242603  0.6513448556653927  0.2611205881813064  1.0000
  C   C35       1.0  0.886354662554254  0.6773103060229104  0.4176491105311442  1.0000
  C   C36       1.0  0.11364461742901001  0.3226898074807991  0.582354796593691  1.0000
  C   C37       1.0  0.8668291065126541  0.27903903141955055  0.33038592320428967  1.0000
  C   C38       1.0  0.13316902645567552  0.720962097145822  0.6696133982014416  1.0000
  C   C39       1.0  0.7781579220696885  0.5338192210761076  0.6963520157018197  1.0000
  C   C40       1.0  0.22183897167228392  0.4661849092805852  0.30365125748420513  1.0000
  C   C41       1.0  0.6883538895358542  0.09720135805853401  0.3976575958884041  1.0000
  C   C42       1.0  0.31164533924217613  0.9027997669178164  0.6023406096943023  1.0000
  C   C43       1.0  0.042283367559050995  0.87292093299898  0.3734743160220193  1.0000
  C   C44       1.0  0.9577191994453289  0.12707917118629547  0.6265254460103976  1.0000
  C   C45       1.0  0.6068693953970127  0.3249493216266188  0.45840118582270883  1.0000
  C   C46       1.0  0.39313217168076875  0.675048786380394  0.5415983331434548  1.0000
  C   C47       1.0  0.5646700140812301  0.3666215805503298  0.35129743639019045  1.0000
  C   C48       1.0  0.43533035967191575  0.6333785366074878  0.6487013667948959  1.0000
  C   C49       1.0  0.6539079044296798  0.4188502368888365  0.8960542275655003  1.0000
  C   C50       1.0  0.3460834111170358  0.5811559227692484  0.10394960263815282  1.0000
  C   C51       1.0  0.5055095709410082  0.2649394538119266  0.8200994642151332  1.0000
  C   C52       1.0  0.4944895136044209  0.7350646722639809  0.17989998207814753  1.0000
  N   N1        1.0  0.4777333647205567  0.25321388833153685  0.9346221561801544  1.0000
  N   N2        1.0  0.522261383303757  0.7467892565626854  0.06537868109054308  1.0000
  N   N3        1.0  0.15253622777086667  0.9801980725710561  0.17806902397274635  1.0000
  N   N4        1.0  0.8474664842820304  0.019799027617416698  0.8219310925957901  1.0000
  N   N5        1.0  0.8826172754294818  0.6532579879200213  0.5233508192316949  1.0000
  N   N6        1.0  0.11738195579631147  0.34674312836458643  0.47665217209109306  1.0000
  N   N7        1.0  0.7974378414497495  0.5468249093276965  0.5870554613525417  1.0000
  N   N8        1.0  0.20256139018400887  0.4531762055082851  0.4129483275935898  1.0000
  O   O1        1.0  0.18023422004865353  0.2819881099429722  0.1317631197141935  1.0000
  O   O2        1.0  0.8197659647940514  0.7180159966090328  0.8682439846128889  1.0000
  O   O3        1.0  0.11277275125727472  0.22938735367036867  0.9928365540050168  1.0000
  O   O4        1.0  0.8872396853776582  0.7706126921384637  0.007167522840432967  1.0000
  O   O5        1.0  0.6465688959231173  0.0132299339734843  0.0578303256410707  1.0000
  O   O6        1.0  0.3534348148325037  0.9867691667391297  0.942167641123682  1.0000
  O   O7        1.0  0.4214260380750829  0.08145736738186568  0.1732014807797739  1.0000
  O   O8        1.0  0.5785765760549211  0.918541739817023  0.8267960065613098  1.0000
