data_image0
_chemical_formula_structural       Ag4H20C20S4N8O12
_chemical_formula_sum              "Ag4 H20 C20 S4 N8 O12"
_cell_length_a       7.852045886745594
_cell_length_b       8.14797133682834
_cell_length_c       11.532277322308222
_cell_angle_alpha    89.99935546421868
_cell_angle_beta     89.99962072858175
_cell_angle_gamma    102.26511615764859

_space_group_name_H-M_alt    "P 1"
_space_group_IT_number       1

loop_
  _space_group_symop_operation_xyz
  'x, y, z'

loop_
  _atom_site_type_symbol
  _atom_site_label
  _atom_site_symmetry_multiplicity
  _atom_site_fract_x
  _atom_site_fract_y
  _atom_site_fract_z
  _atom_site_occupancy
  Ag  Ag1       1.0  0.1726463884521152  0.0728081596346257  0.5625161445916617  1.0000
  Ag  Ag2       1.0  0.3273524790266081  0.9271886864912134  0.06250884998786428  1.0000
  Ag  Ag3       1.0  0.8273556386072869  0.9271926709557549  0.4374865567749777  1.0000
  Ag  Ag4       1.0  0.6726495720469217  0.07280708883659774  0.9374869143472463  1.0000
  H   H1        1.0  0.11014618874327907  0.016503648553055004  0.3220748394507566  1.0000
  H   H2        1.0  0.3898569015502531  0.9835095635868357  0.8220670504298295  1.0000
  H   H3        1.0  0.8898561247866612  0.9835034928682165  0.6779304632846814  1.0000
  H   H4        1.0  0.610146701796836  0.016492489377469603  0.17792871387707265  1.0000
  H   H5        1.0  0.9624047565876452  0.06486213681645131  0.22869653404584503  1.0000
  H   H6        1.0  0.5375992073066557  0.9351454733188762  0.7286924595390186  1.0000
  H   H7        1.0  0.037597891363205266  0.9351412048039194  0.7713087687037682  1.0000
  H   H8        1.0  0.4624028437668741  0.06485030200893502  0.27130330479608483  1.0000
  H   H9        1.0  0.9605599426800282  0.3554739600626675  0.19333377655293296  1.0000
  H   H10       1.0  0.539441333412654  0.6445369299578874  0.6933276428239948  1.0000
  H   H11       1.0  0.03943952885506262  0.6445319923103341  0.8066671905365366  1.0000
  H   H12       1.0  0.4605553440060604  0.3554577226366008  0.3066767928419195  1.0000
  H   H13       1.0  0.08825272934675613  0.6529247019657874  0.24899835554651154  1.0000
  H   H14       1.0  0.4117548096075511  0.34709864836982274  0.7489980720357535  1.0000
  H   H15       1.0  0.9117464077674242  0.34708505020811503  0.7510026115287826  1.0000
  H   H16       1.0  0.5882506564138836  0.6529109376844461  0.2510054964200775  1.0000
  H   H17       1.0  0.3147683616186897  0.4607506965425047  0.5479126708283103  1.0000
  H   H18       1.0  0.18521107595674383  0.5392494684258438  0.04791080611175148  1.0000
  H   H19       1.0  0.6852194313804391  0.5392492439706514  0.4520856949170593  1.0000
  H   H20       1.0  0.814781159255169  0.46074782813207804  0.9520901610281808  1.0000
  C   C1        1.0  0.07314188608877711  0.25338500276934894  0.3401883676436554  1.0000
  C   C2        1.0  0.4268565596384164  0.7466203999153083  0.8401779373122337  1.0000
  C   C3        1.0  0.9268572989398224  0.7466146387235427  0.6598152008655302  1.0000
  C   C4        1.0  0.5731417180761298  0.25337041978233543  0.15981349139382664  1.0000
  C   C5        1.0  0.03806501845414092  0.38449883682559977  0.2718163537559802  1.0000
  C   C6        1.0  0.4619273982120902  0.6155105700016323  0.7718059277956824  1.0000
  C   C7        1.0  0.9619240402641367  0.6155010703783007  0.7281915504322569  1.0000
  C   C8        1.0  0.5380610396986042  0.38448682628714453  0.22818723516971312  1.0000
  C   C9        1.0  0.11022816363567499  0.5491241896219634  0.3025839668598066  1.0000
  C   C10       1.0  0.38976698035705243  0.4508870795960931  0.8025760300995797  1.0000
  C   C11       1.0  0.8897710214049114  0.45087545188732764  0.6974178673865409  1.0000
  C   C12       1.0  0.6102226753943113  0.5491203941136787  0.19741886708627018  1.0000
  C   C13       1.0  0.2164270269580301  0.5789351978438904  0.40105418530720266  1.0000
  C   C14       1.0  0.2835750199677278  0.42106640915868354  0.9010452310610897  1.0000
  C   C15       1.0  0.7835750480157984  0.42105552206547275  0.5989511174933282  1.0000
  C   C16       1.0  0.7164288938280807  0.5789368993247168  0.09895140037158967  1.0000
  C   C17       1.0  0.23724773013383782  0.44324569129489083  0.4688183904345207  1.0000
  C   C18       1.0  0.2627473619447401  0.556756055009089  0.9688145338901034  1.0000
  C   C19       1.0  0.7627536760341159  0.5567526282654994  0.5311817095491449  1.0000
  C   C20       1.0  0.7372471183487619  0.44323486425532377  0.03118643326980219  1.0000
  S   S1        1.0  0.34144294228366334  0.7827007908712105  0.4336112837635965  1.0000
  S   S2        1.0  0.15856589107600175  0.2173088558456372  0.9336062336084933  1.0000
  S   S3        1.0  0.6585609954603698  0.21729746225937424  0.5663879490831576  1.0000
  S   S4        1.0  0.8414459038886476  0.7827005641382174  0.06639473343935977  1.0000
  N   N1        1.0  0.16538808420463622  0.28380985088541894  0.43982750851895236  1.0000
  N   N2        1.0  0.3346127581111277  0.716198622011298  0.9398203377690917  1.0000
  N   N3        1.0  0.8346056793206318  0.7161987786454065  0.5601725914415352  1.0000
  N   N4        1.0  0.665391872506831  0.2837869762795293  0.06016935668022678  1.0000
  N   N5        1.0  0.014947563394045503  0.08513529413346532  0.3101725400031014  1.0000
  N   N6        1.0  0.4850519419257183  0.9148681322116731  0.8101665924690378  1.0000
  N   N7        1.0  0.9850456271062668  0.9148607136207262  0.6898344970596566  1.0000
  N   N8        1.0  0.5149507540294209  0.08512509885073885  0.18982830474318743  1.0000
  O   O1        1.0  0.5208169462604602  0.7707780352706948  0.40432702810022647  1.0000
  O   O2        1.0  0.979192209462795  0.22922099677631286  0.9043299663438443  1.0000
  O   O3        1.0  0.47918887815408345  0.22922269566267062  0.5956756732581778  1.0000
  O   O4        1.0  0.02081808117866055  0.7707720349392491  0.0956683993775869  1.0000
  O   O5        1.0  0.3160523507529902  0.813797762408285  0.5570985374509617  1.0000
  O   O6        1.0  0.1839655304726975  0.1862087986657031  0.05708471291383428  1.0000
  O   O7        1.0  0.6839575574752459  0.18620917968254963  0.4429084995308512  1.0000
  O   O8        1.0  0.8160346339243318  0.8137844988511278  0.9429084500410381  1.0000
  O   O9        1.0  0.27566971374769633  0.8995762536728196  0.3560807535135168  1.0000
  O   O10       1.0  0.2243319753069457  0.10043254841524171  0.8560719878526083  1.0000
  O   O11       1.0  0.7243367076100642  0.1004320436433517  0.6439219478137871  1.0000
  O   O12       1.0  0.7756716279922103  0.8995695044834306  0.14393071350564665  1.0000
