data_image0
_chemical_formula_structural       Mo2P2H28C14O8
_chemical_formula_sum              "Mo2 P2 H28 C14 O8"
_cell_length_a       7.519678154682625
_cell_length_b       8.348205283056306
_cell_length_c       9.568715062260038
_cell_angle_alpha    69.01698793810388
_cell_angle_beta     69.77897405965363
_cell_angle_gamma    78.36637444403851

_space_group_name_H-M_alt    "P 1"
_space_group_IT_number       1

loop_
  _space_group_symop_operation_xyz
  'x, y, z'

loop_
  _atom_site_type_symbol
  _atom_site_label
  _atom_site_symmetry_multiplicity
  _atom_site_fract_x
  _atom_site_fract_y
  _atom_site_fract_z
  _atom_site_occupancy
  Mo  Mo1       1.0  0.039151398234253114  0.9200765460633702  0.6022996209934348  1.0000
  Mo  Mo2       1.0  0.9608658715256695  0.0799535098996316  0.39767979237301165  1.0000
  P   P1        1.0  0.8453912810810918  0.26011759551478525  0.10622635056096634  1.0000
  P   P2        1.0  0.15459736474498706  0.7398807101130129  0.8937698710928003  1.0000
  H   H1        1.0  0.5401782932287844  0.8915290641252228  0.09248255188775532  1.0000
  H   H2        1.0  0.45980631701289104  0.10844742487705619  0.9075069842167877  1.0000
  H   H3        1.0  0.6415047066829941  0.850479570587929  0.24814725843916094  1.0000
  H   H4        1.0  0.3585196765499958  0.1494937688149918  0.7518134564011872  1.0000
  H   H5        1.0  0.5286809937557138  0.6874610687391537  0.24182141468416773  1.0000
  H   H6        1.0  0.4713049938816595  0.31251798080552357  0.7581857507084775  1.0000
  H   H7        1.0  0.7447636694540661  0.474286222448967  0.6222540822254671  1.0000
  H   H8        1.0  0.2552612830105118  0.5257411678173868  0.37776689062449964  1.0000
  H   H9        1.0  0.8434261564763402  0.5313917465354336  0.41580110264123243  1.0000
  H   H10       1.0  0.15659660509825102  0.4686086555688647  0.5842153388190566  1.0000
  H   H11       1.0  0.6099819964601281  0.6188086655425593  0.4971600104444249  1.0000
  H   H12       1.0  0.39003773971958106  0.3811930625128142  0.5028474464455782  1.0000
  H   H13       1.0  0.15251339893948307  0.4733185348860829  0.8517974947564539  1.0000
  H   H14       1.0  0.8474742721394718  0.52667464039655  0.14820373781059706  1.0000
  H   H15       1.0  0.1918042798439501  0.43082969156581197  0.03519209192081969  1.0000
  H   H16       1.0  0.8081733804528995  0.5691829257279367  0.9648131371924931  1.0000
  H   H17       1.0  0.1752183143382098  0.6701414291912469  0.16046678812625004  1.0000
  H   H18       1.0  0.8247350566723882  0.3298715283108605  0.8395262377607651  1.0000
  H   H19       1.0  0.1630316996556758  0.8970860492012562  0.06249243430733032  1.0000
  H   H20       1.0  0.8369428126157459  0.10292918135370138  0.9375013509315976  1.0000
  H   H21       1.0  0.9551279077202466  0.7890926937636635  0.14044848561996298  1.0000
  H   H22       1.0  0.0448309147362878  0.2109214666821231  0.8595290703288682  1.0000
  H   H23       1.0  0.4712256004703832  0.8405748519202946  0.7913081256128078  1.0000
  H   H24       1.0  0.5288154400320124  0.15934038951010626  0.20873619419688072  1.0000
  H   H25       1.0  0.4766514540662783  0.6233078054410798  0.9166811126689254  1.0000
  H   H26       1.0  0.5232923277650983  0.37661912222526445  0.08339375223545895  1.0000
  H   H27       1.0  0.46072129749119733  0.6735537485289528  0.7226794421122236  1.0000
  H   H28       1.0  0.5392946347753663  0.3263747186800501  0.27737394908324114  1.0000
  C   C1        1.0  0.3381913284112911  0.8889069796545  0.31717489388812947  1.0000
  C   C2        1.0  0.6618252534457483  0.11111279048835601  0.6827964337814688  1.0000
  C   C3        1.0  0.522946470968172  0.8271694996625315  0.21749355705335918  1.0000
  C   C4        1.0  0.477045544920962  0.1728210352453843  0.7824937147380381  1.0000
  C   C5        1.0  0.8341310197396014  0.729528052434091  0.5116478904698736  1.0000
  C   C6        1.0  0.1658960094005693  0.2705057292242046  0.48834333485266507  1.0000
  C   C7        1.0  0.7520349994956915  0.5796927349167191  0.5126214561006676  1.0000
  C   C8        1.0  0.24798997376046117  0.42033336492227863  0.48739050914014825  1.0000
  C   C9        1.0  0.8944571291889645  0.48796783857245174  0.041507541006317976  1.0000
  C   C10       1.0  0.10551830159560892  0.5120358005235985  0.9584875290362617  1.0000
  C   C11       1.0  0.10831327886854326  0.7762717861800115  0.08168853636009736  1.0000
  C   C12       1.0  0.8916671360632406  0.22374078793867366  0.9183065388728621  1.0000
  C   C13       1.0  0.41532644352344766  0.7160682072136738  0.826562560326124  1.0000
  C   C14       1.0  0.5846616026488859  0.28387094611061053  0.17348474379054588  1.0000
  O   O1        1.0  0.29989426708355893  0.8290870055168681  0.4677160056635257  1.0000
  O   O2        1.0  0.7001236171999778  0.1709700541029875  0.5322506034295954  1.0000
  O   O3        1.0  0.7783784770806365  0.0002873116073942988  0.7481076325670556  1.0000
  O   O4        1.0  0.2216378317410559  0.9997350323055868  0.25185564915438624  1.0000
  O   O5        1.0  0.9133568973407764  0.7094256447711373  0.6175120930008474  1.0000
  O   O6        1.0  0.08668172031874377  0.29062211958879663  0.3824673706446404  1.0000
  O   O7        1.0  0.1714324861117618  0.12564228909245403  0.5965720606582747  1.0000
  O   O8        1.0  0.82856277244003  0.8743957956993995  0.4033994282834145  1.0000
