data_image0
_chemical_formula_structural       Zn6H29C41S2NO30
_chemical_formula_sum              "Zn6 H29 C41 S2 N1 O30"
_cell_length_a       18.59364555548181
_cell_length_b       18.70221977348477
_cell_length_c       18.915718634074892
_cell_angle_alpha    109.23978505905438
_cell_angle_beta     109.24510727909797
_cell_angle_gamma    109.45481471923341

_space_group_name_H-M_alt    "P 1"
_space_group_IT_number       1

loop_
  _space_group_symop_operation_xyz
  'x, y, z'

loop_
  _atom_site_type_symbol
  _atom_site_label
  _atom_site_symmetry_multiplicity
  _atom_site_fract_x
  _atom_site_fract_y
  _atom_site_fract_z
  _atom_site_occupancy
  Zn  Zn1       1.0  0.0057446626012520935  0.4366750403527035  0.9355003663277797  1.0000
  Zn  Zn2       1.0  0.9950780818181926  0.5543559227904068  0.053386042946009085  1.0000
  Zn  Zn3       1.0  0.5647015194201758  0.012481832244702706  0.06133441559963868  1.0000
  Zn  Zn4       1.0  0.43903117544669346  0.004149125482214611  0.9316898704254936  1.0000
  Zn  Zn5       1.0  0.42460728079344523  0.4357332739923833  0.4965609553924677  1.0000
  Zn  Zn6       1.0  0.5557475317006962  0.5626487096147983  0.5016176656191006  1.0000
  H   H1        1.0  0.7559008928722835  0.3020486747434319  0.11385991004357977  1.0000
  H   H2        1.0  0.7768824003402415  0.5487568216093166  0.8535738921196907  1.0000
  H   H3        1.0  0.2493439254329459  0.8477389545666085  0.9726911964800421  1.0000
  H   H4        1.0  0.3753035098829969  0.8008240540110948  0.07493868832382587  1.0000
  H   H5        1.0  0.2141986410693519  0.6413773803140331  0.9348529346206929  1.0000
  H   H6        1.0  0.2818528206539028  0.49564395148951224  0.2925141912924971  1.0000
  H   H7        1.0  0.23724586919706078  0.6697929174083656  0.31444507527834986  1.0000
  H   H8        1.0  0.24358983910740056  0.5265636127827663  0.18027009010334175  1.0000
  H   H9        1.0  0.5800962267605242  0.37466004907427924  0.3296208245691047  1.0000
  H   H10       1.0  0.7315475171368817  0.3339570327505326  0.972873020525753  1.0000
  H   H11       1.0  0.39755412738522716  0.2288913299033553  0.26922423383369665  1.0000
  H   H12       1.0  0.5883364837257332  0.24522984226508981  0.24072096280194433  1.0000
  H   H13       1.0  0.40112833430303846  0.19171923135058933  0.11339351674918417  1.0000
  H   H14       1.0  0.3194458956529189  0.5980547557360225  0.6185252332490091  1.0000
  H   H15       1.0  0.5189356347562679  0.7200915948626587  0.7091090807932684  1.0000
  H   H16       1.0  0.329746130448143  0.7455971060634  0.6962871525415364  1.0000
  H   H17       1.0  0.5044352951498253  0.7792985149419918  0.8298676814962459  1.0000
  H   H18       1.0  0.6321495757756139  0.15017384156666205  0.8585782119729896  1.0000
  H   H19       1.0  0.7892466414883758  0.15088962010397464  0.8699297986678683  1.0000
  H   H20       1.0  0.8159685937594574  0.12239972693372887  0.0132643844247013  1.0000
  H   H21       1.0  0.9136922866378613  0.30604828962163566  0.125324612381462  1.0000
  H   H22       1.0  0.7537724044133398  0.5715082359711943  0.7224793565789083  1.0000
  H   H23       1.0  0.780271401569344  0.3926595329763317  0.7339614096900673  1.0000
  H   H24       1.0  0.10331361819444851  0.7243816152321118  0.0362194911606082  1.0000
  H   H25       1.0  0.14029660494823298  0.8697035790632555  0.11863950367487765  1.0000
  H   H26       1.0  0.14069205218963535  0.8783921611069941  0.02781413034011849  1.0000
  H   H27       1.0  0.24020202497587922  0.9080997497293808  0.11599533215964895  1.0000
  H   H28       1.0  0.3945967695162764  0.8243167156594069  0.40492089976918777  1.0000
  H   H29       1.0  0.6638614096001234  0.25692546190557397  0.5580202242962142  1.0000
  C   C1        1.0  0.8687590392043631  0.5035945991588804  0.899951609621041  1.0000
  C   C2        1.0  0.797315126687579  0.16942812414363573  0.0034523273861139987  1.0000
  C   C3        1.0  0.8504187186813185  0.27028283341572024  0.06620983235605138  1.0000
  C   C4        1.0  0.83481970762017  0.285518592350911  0.9861427950194465  1.0000
  C   C5        1.0  0.6922714196079482  0.43719105894297167  0.6784129931628298  1.0000
  C   C6        1.0  0.6950362752211845  0.5085354389982156  0.6739687945488126  1.0000
  C   C7        1.0  0.7598585165360062  0.4414940824063292  0.7490053432365681  1.0000
  C   C8        1.0  0.7974990070115239  0.5013001816304764  0.8323501684935193  1.0000
  C   C9        1.0  0.2670334182305041  0.810916743653273  0.0030388374138112994  1.0000
  C   C10       1.0  0.3515050608697622  0.8314206480438101  0.03983401696634559  1.0000
  C   C11       1.0  0.19719386521377663  0.7447938722276676  0.0036704918697480987  1.0000
  C   C12       1.0  0.9008435089907894  0.3554255702970793  0.9847664662181682  1.0000
  C   C13       1.0  0.17810358494757844  0.6586140683102714  0.9659380804027787  1.0000
  C   C14       1.0  0.337438323030284  0.6307083160680661  0.35070760518576793  1.0000
  C   C15       1.0  0.3408838776226233  0.5576864963847469  0.3426926771941864  1.0000
  C   C16       1.0  0.26060578799690864  0.6260833784320357  0.2900134367313924  1.0000
  C   C17       1.0  0.21822820202406487  0.5676540545700489  0.20560861508756992  1.0000
  C   C18       1.0  0.473247614908459  0.12678554525853508  0.07871360868846007  1.0000
  C   C19       1.0  0.6409292112496915  0.10888485383370755  0.0036942769551373982  1.0000
  C   C20       1.0  0.46050148942517666  0.8726052677536486  0.8609264084396595  1.0000
  C   C21       1.0  0.4166881308491313  0.9004665414820535  0.03657400964254979  1.0000
  C   C22       1.0  0.46055876603188767  0.5872878304747431  0.6105030815801767  1.0000
  C   C23       1.0  0.13540154940721288  0.5507705517264796  0.13962901753722423  1.0000
  C   C24       1.0  0.626788293591744  0.5114452557188187  0.6083041296517064  1.0000
  C   C25       1.0  0.45960179742431256  0.36241041699166493  0.3750348245805667  1.0000
  C   C26       1.0  0.40875984284115674  0.5464954104173644  0.3988027868961907  1.0000
  C   C27       1.0  0.5220358797786702  0.3096570661278406  0.2871411277086294  1.0000
  C   C28       1.0  0.4547977188794548  0.29367281512885063  0.3035731917020712  1.0000
  C   C29       1.0  0.5263223728775017  0.2460064253470762  0.22189691716906168  1.0000
  C   C30       1.0  0.4621123127420077  0.19027481024380677  0.13943750163829793  1.0000
  C   C31       1.0  0.3826612156971406  0.6572219161205268  0.6659435919619907  1.0000
  C   C32       1.0  0.45668492474592165  0.659015795355387  0.6688086047280205  1.0000
  C   C33       1.0  0.38467205774374946  0.7344467546172879  0.7208939196665438  1.0000
  C   C34       1.0  0.10936588394531545  0.5896875326232448  0.9615154664217653  1.0000
  C   C35       1.0  0.45193905709573556  0.7920535314586133  0.8016550890757299  1.0000
  C   C36       1.0  0.7485017554151271  0.2854550678600204  0.9809479223466648  1.0000
  C   C37       1.0  0.7644587703242678  0.27014331549460746  0.059755353369524776  1.0000
  C   C38       1.0  0.7099863532371984  0.16804306419240328  0.9956021789169608  1.0000
  C   C39       1.0  0.6951827239114364  0.1847159439185616  0.9176269742645216  1.0000
  C   C40       1.0  0.7816621192149853  0.18469048439367705  0.9240686924996095  1.0000
  C   C41       1.0  0.16941776697562716  0.8616402757405907  0.07674959265355598  1.0000
  S   S1        1.0  0.42732124393682375  0.7362127584535971  0.4371681633702379  1.0000
  S   S2        1.0  0.6026006029104495  0.32938370326380106  0.5941000714936067  1.0000
  N   N1        1.0  0.15256571414868603  0.7726949856711088  0.038789810882661896  1.0000
  O   O1        1.0  0.8975083307587185  0.45247817326579554  0.8768859147400714  1.0000
  O   O2        1.0  0.4191598832163804  0.09215531762922781  0.9976980519507845  1.0000
  O   O3        1.0  0.6663604201679261  0.0882323531484203  0.06256880699654489  1.0000
  O   O4        1.0  0.5617310153783208  0.08486318507143412  0.9542429384941256  1.0000
  O   O5        1.0  0.5211664716835003  0.9107006166555466  0.9386526080353899  1.0000
  O   O6        1.0  0.40813372374590523  0.9002364569727844  0.8326383845407856  1.0000
  O   O7        1.0  0.4986264770811887  0.9302948281153363  0.08788983203142207  1.0000
  O   O8        1.0  0.3890164140495783  0.9264932599655679  0.9848654493295608  1.0000
  O   O9        1.0  0.4021537902924733  0.5071467607884088  0.577940826917853  1.0000
  O   O10       1.0  0.5237659960495121  0.6110218497150157  0.5952416188604912  1.0000
  O   O11       1.0  0.5473469396033579  0.46167175717761927  0.5829776601090799  1.0000
  O   O12       1.0  0.8966296591925699  0.5588522331460055  0.9786712012507334  1.0000
  O   O13       1.0  0.6557420613879471  0.5675476356495678  0.5853244343615241  1.0000
  O   O14       1.0  0.4037283891020565  0.3368685579844595  0.40002432025466544  1.0000
  O   O15       1.0  0.5175260239128149  0.4411661991161894  0.407410081925775  1.0000
  O   O16       1.0  0.3776386261925708  0.4846767515181298  0.4129981763725182  1.0000
  O   O17       1.0  0.4903630306444811  0.5958832907185042  0.4267093309404258  1.0000
  O   O18       1.0  0.9302053949571275  0.3340032042499032  0.9328170561161354  1.0000
  O   O19       1.0  0.9227881959529967  0.43312183297531703  0.035300448356792885  1.0000
  O   O20       1.0  0.10452709527584861  0.489364098398525  0.06457667354065677  1.0000
  O   O21       1.0  0.09959881372174101  0.5967738046143297  0.16060874619105184  1.0000
  O   O22       1.0  0.0892443111247302  0.5093374527923372  0.916079494225563  1.0000
  O   O23       1.0  0.0689581170788713  0.6088766823936141  0.002795779229756999  1.0000
  O   O24       1.0  0.5334410434017229  0.10970849387587828  0.10889441381890207  1.0000
  O   O25       1.0  0.4492298160747977  0.7360531801927905  0.5170958695969785  1.0000
  O   O26       1.0  0.49124409705101607  0.7647592720750964  0.4112601954362275  1.0000
  O   O27       1.0  0.3807290265839498  0.7959027458066146  0.4375424123409174  1.0000
  O   O28       1.0  0.5378526603668872  0.30519226362336827  0.6195342291959347  1.0000
  O   O29       1.0  0.5821898704089394  0.32191500224151787  0.5107320160949412  1.0000
  O   O30       1.0  0.649116281107638  0.27075242991652704  0.6041221634609213  1.0000
