data_image0
_chemical_formula_structural       Cu2H22C16I2N2
_chemical_formula_sum              "Cu2 H22 C16 I2 N2"
_cell_length_a       4.074963553236297
_cell_length_b       10.27876736506198
_cell_length_c       11.340899950665564
_cell_angle_alpha    90.00026988877819
_cell_angle_beta     90.00119799512574
_cell_angle_gamma    89.99968015071609

_space_group_name_H-M_alt    "P 1"
_space_group_IT_number       1

loop_
  _space_group_symop_operation_xyz
  'x, y, z'

loop_
  _atom_site_type_symbol
  _atom_site_label
  _atom_site_symmetry_multiplicity
  _atom_site_fract_x
  _atom_site_fract_y
  _atom_site_fract_z
  _atom_site_occupancy
  Cu  Cu1       1.0  0.40549579521506035  0.4999975125922446  0.8648201830388444  1.0000
  Cu  Cu2       1.0  0.5944562370401769  0.9999985457057647  0.3648237124515248  1.0000
  H   H1        1.0  0.23732169947977166  0.7414416667234177  0.7232916227534291  1.0000
  H   H2        1.0  0.23733953418867776  0.2585520532038927  0.7232870658502577  1.0000
  H   H3        1.0  0.7626596902649612  0.24145468707885695  0.22330661317521816  1.0000
  H   H4        1.0  0.7626465430481135  0.7585410079709832  0.2233033071527757  1.0000
  H   H5        1.0  0.621023022543014  0.7347966297992911  0.7961073606335275  1.0000
  H   H6        1.0  0.6210358635700572  0.2651965475206808  0.796101068527406  1.0000
  H   H7        1.0  0.3789480143276905  0.23478333087643938  0.2961080383728216  1.0000
  H   H8        1.0  0.3789445971826027  0.7652185286359838  0.2961056426213844  1.0000
  H   H9        1.0  0.580819314463149  0.8225850602111893  0.6598483709162082  1.0000
  H   H10       1.0  0.580838194529278  0.17741820655046328  0.6598425861459489  1.0000
  H   H11       1.0  0.41913520948483557  0.3225833393415982  0.159857283079802  1.0000
  H   H12       1.0  0.419125561621371  0.6774186878444297  0.1598580398408345  1.0000
  H   H13       1.0  0.7757664578865402  0.7102391998184814  0.48936414866428635  1.0000
  H   H14       1.0  0.775769166577554  0.2897588205467656  0.4893623701047858  1.0000
  H   H15       1.0  0.2242359017578722  0.21024930367038763  0.9893531005673564  1.0000
  H   H16       1.0  0.22422480651655266  0.7897604248607876  0.9893534547498105  1.0000
  H   H17       1.0  0.743724628078226  0.5000024021666434  0.2825016911055087  1.0000
  H   H18       1.0  0.2563369772451765  1.7273555883000004e-06  0.7824988170503104  1.0000
  H   H19       1.0  0.08864244782267863  0.5865399653689707  0.3347263389117643  1.0000
  H   H20       1.0  0.0886484706753237  0.41346571074227967  0.3347224427424464  1.0000
  H   H21       1.0  0.9113965757518303  0.08653966327127449  0.8347045222690069  1.0000
  H   H22       1.0  0.9113986107323131  0.9134656650154938  0.8347054041894778  1.0000
  C   C1        1.0  0.5857208104819805  0.614016226710291  0.6426914575050944  1.0000
  C   C2        1.0  0.5857222795910175  0.38597915604770344  0.6426944982074545  1.0000
  C   C3        1.0  0.41425256846731884  0.1140232734670406  0.142687106891664  1.0000
  C   C4        1.0  0.41424759537509453  0.8859796489910959  0.1426825809608445  1.0000
  C   C5        1.0  0.5035862610686904  0.7356692158161805  0.7085521464189597  1.0000
  C   C6        1.0  0.5036089294369434  0.2643267067061572  0.7085484959257755  1.0000
  C   C7        1.0  0.49639188126758443  0.23566439080907037  0.2085554599043604  1.0000
  C   C8        1.0  0.49639338363950725  0.7643308940042813  0.20855658745585257  1.0000
  C   C9        1.0  0.7216131736638404  0.6163769486004115  0.5300280687355183  1.0000
  C   C10       1.0  0.7216146731430799  0.38362141332995486  0.5300302176101538  1.0000
  C   C11       1.0  0.27844679627934  0.11637945718769767  0.030030645073829  1.0000
  C   C12       1.0  0.2784320374872565  0.8836222325121812  0.0300252272892081  1.0000
  C   C13       1.0  0.793944136191918  0.4999960232586318  0.47149834253438166  1.0000
  C   C14       1.0  0.2060598804681107  2.2792197001e-06  0.9714792235562298  1.0000
  C   C15       1.0  0.9373455253237424  0.5000003995928138  0.350039378351255  1.0000
  C   C16       1.0  0.06268324453796478  3.1083506044999995e-06  0.8500200762157916  1.0000
  I   I1        1.0  0.9222699618431278  0.4999982097171696  0.9973565575377137  1.0000
  I   I2        1.0  0.07771441134740802  0.9999995108189523  0.4973588944125351  1.0000
  N   N1        1.0  0.5216342717298019  0.4999969406851932  0.6985375143451548  1.0000
  N   N2        1.0  0.47839386348568536  1.9832411619999988e-07  0.19853312740013954  1.0000
