data_image0
_chemical_formula_structural       Zn2H32C32N12O10
_chemical_formula_sum              "Zn2 H32 C32 N12 O10"
_cell_length_a       9.043061239976485
_cell_length_b       10.389765128710408
_cell_length_c       12.665048789734248
_cell_angle_alpha    112.25851719544129
_cell_angle_beta     93.89436010328531
_cell_angle_gamma    113.1882751696316

_space_group_name_H-M_alt    "P 1"
_space_group_IT_number       1

loop_
  _space_group_symop_operation_xyz
  'x, y, z'

loop_
  _atom_site_type_symbol
  _atom_site_label
  _atom_site_symmetry_multiplicity
  _atom_site_fract_x
  _atom_site_fract_y
  _atom_site_fract_z
  _atom_site_occupancy
  Zn  Zn1       1.0  0.1220085637789978  0.08702037379478607  0.17364497664374304  1.0000
  Zn  Zn2       1.0  0.877992608366192  0.9129820342517616  0.8263558414486025  1.0000
  H   H1        1.0  0.08828276087394456  0.5905257006760604  0.21257707590699923  1.0000
  H   H2        1.0  0.9117150661198324  0.40947196876956576  0.7874189864359521  1.0000
  H   H3        1.0  0.286058087388831  0.33558393409545323  0.9603857024361275  1.0000
  H   H4        1.0  0.7139374860192902  0.6644160168878414  0.03961094750864184  1.0000
  H   H5        1.0  0.30507702447798823  0.7647751774949538  0.9741406455932801  1.0000
  H   H6        1.0  0.6949258302536093  0.23522844146196314  0.025862198780146152  1.0000
  H   H7        1.0  0.31498483349901824  0.6447784104189439  0.7836850603412413  1.0000
  H   H8        1.0  0.6850185434770992  0.35522633660610836  0.2163157825245959  1.0000
  H   H9        1.0  0.4728205690313487  0.5872523254800726  0.7421269020277989  1.0000
  H   H10       1.0  0.5271861670031086  0.4127524874529484  0.2578749082153705  1.0000
  H   H11       1.0  0.5187623226236864  0.7455626026428063  0.8838837282017662  1.0000
  H   H12       1.0  0.48124218855846107  0.2544421880918931  0.11611876045516564  1.0000
  H   H13       1.0  0.8915414290919228  0.8407610766181007  0.2594140763344369  1.0000
  H   H14       1.0  0.1084597630746558  0.15923901464827137  0.7405860385706686  1.0000
  H   H15       1.0  0.7945417707831126  0.15989751901084048  0.17750413608346344  1.0000
  H   H16       1.0  0.20545887300309568  0.8401014050548169  0.8224955983316561  1.0000
  H   H17       1.0  0.6298448853554033  0.7167794928600484  0.3107669366966943  1.0000
  H   H18       1.0  0.37015466778451867  0.2832194527169348  0.689235121923282  1.0000
  H   H19       1.0  0.463612635704699  0.680547194821763  0.2040652517575906  1.0000
  H   H20       1.0  0.5363874684130818  0.31945057508736585  0.7959348961667414  1.0000
  H   H21       1.0  0.3913471914852095  0.8650687053492446  0.34753686025324254  1.0000
  H   H22       1.0  0.6086490051938611  0.13492783145119347  0.6524619398037713  1.0000
  H   H23       1.0  0.5833955146530769  0.9483718308913042  0.4530687586298753  1.0000
  H   H24       1.0  0.41660011362422716  0.05162585548859509  0.5469303641244067  1.0000
  H   H25       1.0  0.32550478295560464  0.7681914324920524  0.490723605136189  1.0000
  H   H26       1.0  0.6744925618364234  0.2318004753250945  0.5092730523398571  1.0000
  H   H27       1.0  0.31813481856494247  0.6078983418019701  0.36734328625482227  1.0000
  H   H28       1.0  0.6818691755676625  0.39210063512746257  0.6326566215384444  1.0000
  H   H29       1.0  0.5351644026583102  0.8804058773328264  0.6857454568558835  1.0000
  H   H30       1.0  0.4648317765968599  0.11959063337921799  0.31425175520275417  1.0000
  H   H31       1.0  0.809213245180551  0.6329785773969403  0.561815062375217  1.0000
  H   H32       1.0  0.1907890960184702  0.3670239265360422  0.4381905775049901  1.0000
  C   C1        1.0  0.19431651766956293  0.6901703138573652  0.09800719905179986  1.0000
  C   C2        1.0  0.8056818638190464  0.3098308787017529  0.9019923289659528  1.0000
  C   C3        1.0  0.1479622737149881  0.5776092265651724  0.14010383119239814  1.0000
  C   C4        1.0  0.8520327713341515  0.4223872404372243  0.8598917350751448  1.0000
  C   C5        1.0  0.18040562647059488  0.4491118793744632  0.08993881845216115  1.0000
  C   C6        1.0  0.8195922379684716  0.550883499379381  0.9100581287019264  1.0000
  C   C7        1.0  0.25726668867761043  0.4333573737305655  0.9971275538952395  1.0000
  C   C8        1.0  0.742730010224598  0.566642607918176  0.002869947841432441  1.0000
  C   C9        1.0  0.3004224073769777  0.5447573456203116  0.9530638808577193  1.0000
  C   C10       1.0  0.699576551225334  0.4552427104035387  0.04693611846195001  1.0000
  C   C11       1.0  0.2704949173754726  0.6742870856714871  0.004181831188496601  1.0000
  C   C12       1.0  0.7295040386293509  0.32571531322093245  0.9958204593168032  1.0000
  C   C13       1.0  0.16476951683922894  0.8302096401804135  0.15585661668486483  1.0000
  C   C14       1.0  0.83522997271956  0.16979155695576503  0.8441421751264073  1.0000
  C   C15       1.0  0.13970964468824576  0.33410174489198136  0.14084516778058284  1.0000
  C   C16       1.0  0.860287091659245  0.665895946064978  0.8591532187672184  1.0000
  C   C17       1.0  0.42232298127564133  0.6319685548120899  0.8159698591638925  1.0000
  C   C18       1.0  0.5776831863570634  0.36803740770039167  0.1840322737765446  1.0000
  C   C19       1.0  0.8303987291760675  0.906072809341502  0.24439111024530272  1.0000
  C   C20       1.0  0.16959970718172457  0.09392611861421327  0.7556108905819554  1.0000
  C   C21       1.0  0.7777452117573702  0.06723186134016149  0.20266511462898507  1.0000
  C   C22       1.0  0.22225767430504817  0.9327671110122039  0.7973355293707625  1.0000
  C   C23       1.0  0.5606309130319643  0.7708370866727632  0.28506378176715674  1.0000
  C   C24       1.0  0.4393691823738735  0.22916067019217215  0.7149355721579836  1.0000
  C   C25       1.0  0.4851447323818404  0.8389745870423579  0.38231509959143734  1.0000
  C   C26       1.0  0.5148548059316767  0.16102198957766228  0.6176830798445393  1.0000
  C   C27       1.0  0.4007698628250793  0.7271665224708456  0.43531488445152156  1.0000
  C   C28       1.0  0.5992313580748315  0.2728312650595441  0.5646853212655286  1.0000
  C   C29       1.0  0.5821917377578244  0.8044553844182186  0.6299199071406745  1.0000
  C   C30       1.0  0.4178077979582043  0.19554353507037084  0.3700805634809185  1.0000
  C   C31       1.0  0.7193509156586018  0.6781343037069475  0.5631683302858119  1.0000
  C   C32       1.0  0.2806508248883474  0.3218669547601392  0.43683216510927264  1.0000
  N   N1        1.0  0.8965559632228091  0.01853039815811289  0.20961999242098975  1.0000
  N   N2        1.0  0.10344416091636062  0.98146505497084  0.7903794523160952  1.0000
  N   N3        1.0  0.6789977898077666  0.8888811443175726  0.2571484287485645  1.0000
  N   N4        1.0  0.3210034110707625  0.11111895999299287  0.742852480155733  1.0000
  N   N5        1.0  0.6425515894612773  0.9911572346425075  0.23122943909974225  1.0000
  N   N6        1.0  0.3574507107754812  0.008842861200925298  0.768769939598883  1.0000
  N   N7        1.0  0.5233037174395463  0.7213211215076925  0.5122776430324548  1.0000
  N   N8        1.0  0.47669692634666216  0.27867780255796487  0.4877220913826718  1.0000
  N   N9        1.0  0.610307538924644  0.6404331549702814  0.46772772331266294  1.0000
  N   N10       1.0  0.3896931048615641  0.35956576909536847  0.5322720111024635  1.0000
  N   N11       1.0  0.7063190928296733  0.7787110778110315  0.664801709692284  1.0000
  N   N12       1.0  0.2936804315769166  0.221290171501927  0.3352002581157548  1.0000
  O   O1        1.0  0.12726637956954065  0.8583990640258461  0.25313690155562785  1.0000
  O   O2        1.0  0.8727331099892481  0.14160213311033232  0.7468618902556512  1.0000
  O   O3        1.0  0.18237264109782084  0.9158185572679042  0.10030755670614146  1.0000
  O   O4        1.0  0.8176290820252348  0.08418267511079588  0.8996913506905668  1.0000
  O   O5        1.0  0.09569350444852626  0.3634340119369951  0.23583837481825032  1.0000
  O   O6        1.0  0.9043065622239653  0.6365660486639156  0.7641608882949453  1.0000
  O   O7        1.0  0.1573188358899031  0.2096627262123149  0.08334765252602945  1.0000
  O   O8        1.0  0.8426734446385068  0.7903325644352249  0.9166490056644747  1.0000
  O   O9        1.0  0.3716878132252858  0.5176009263734965  0.860292531828392  1.0000
  O   O10       1.0  0.628316092109813  0.4824073046324526  0.13970939471467142  1.0000
