data_image0
_chemical_formula_structural       Zn6H108C168N48O36
_chemical_formula_sum              "Zn6 H108 C168 N48 O36"
_cell_length_a       16.35897928213428
_cell_length_b       16.35897236696473
_cell_length_c       25.753786053027127
_cell_angle_alpha    89.99989248201582
_cell_angle_beta     89.9999429119917
_cell_angle_gamma    119.99996082973627

_space_group_name_H-M_alt    "P 1"
_space_group_IT_number       1

loop_
  _space_group_symop_operation_xyz
  'x, y, z'

loop_
  _atom_site_type_symbol
  _atom_site_label
  _atom_site_symmetry_multiplicity
  _atom_site_fract_x
  _atom_site_fract_y
  _atom_site_fract_z
  _atom_site_occupancy
  Zn  Zn1       1.0  0.4260208247510138  0.713008835955506  0.1666646411534956  1.0000
  Zn  Zn2       1.0  0.2869913803715037  0.7130120480977096  0.8333344310908686  1.0000
  Zn  Zn3       1.0  0.28699067256224736  0.5739799032889935  0.4999990590775454  1.0000
  Zn  Zn4       1.0  0.5739770597966827  0.28698988321581714  0.16666484936764897  1.0000
  Zn  Zn5       1.0  0.7130127209004514  0.28699156992480107  0.8333345509212222  1.0000
  Zn  Zn6       1.0  0.7130118139486967  0.4260209942809965  0.499999012311484  1.0000
  H   H1        1.0  0.6444841088798088  0.06895750576244097  0.2035247807624074  1.0000
  H   H2        1.0  0.7124928134230758  0.18086246403356654  0.1396909708507508  1.0000
  H   H3        1.0  0.5359370475104871  0.9013345873884687  0.2265395733745734  1.0000
  H   H4        1.0  0.49612760970381264  0.8218867012929678  0.07114073453965368  1.0000
  H   H5        1.0  0.6029901465590798  0.9846266119963686  0.041982560114036  1.0000
  H   H6        1.0  0.8272276900864103  0.3035897286781832  0.1441251603273415  1.0000
  H   H7        1.0  0.818646680345417  0.28006475009103593  0.9767045095969137  1.0000
  H   H8        1.0  0.21262885607418272  0.39364805033763867  0.0831960078033305  1.0000
  H   H9        1.0  0.9310401432842358  0.5755223182184537  0.8701929670486449  1.0000
  H   H10       1.0  0.8191386505158964  0.5316296250522329  0.8063596959588324  1.0000
  H   H11       1.0  0.0986629636296217  0.6345987622374523  0.8932088413387476  1.0000
  H   H12       1.0  0.1781176202728645  0.6742463056648446  0.7378098932407366  1.0000
  H   H13       1.0  0.015377366662576851  0.6183655994297225  0.7086511589084878  1.0000
  H   H14       1.0  0.6964199647220116  0.52364708051406  0.8107967572713192  1.0000
  H   H15       1.0  0.719930645970898  0.5385796307207046  0.6433739785779551  1.0000
  H   H16       1.0  0.6063528582932636  0.8189791863643165  0.7498645969879475  1.0000
  H   H17       1.0  0.4244724179008801  0.3555148246954261  0.5368578045659618  1.0000
  H   H18       1.0  0.46836890786068625  0.2875070550795016  0.47302449840299227  1.0000
  H   H19       1.0  0.3653960378173198  0.46406123238842417  0.5598737917108565  1.0000
  H   H20       1.0  0.3257587181471138  0.5038753350300664  0.4044733281974757  1.0000
  H   H21       1.0  0.38163872921188613  0.3970142299152498  0.3753145549195835  1.0000
  H   H22       1.0  0.47636404615997213  0.17277295218661948  0.4774573109092373  1.0000
  H   H23       1.0  0.4614218237272143  0.18135613042840498  0.3100364897046148  1.0000
  H   H24       1.0  0.1810221860215863  0.7873760999899273  0.4165277426341589  1.0000
  H   H25       1.0  0.35551496918375874  0.9310360204222264  0.2035243561114441  1.0000
  H   H26       1.0  0.28750659183486976  0.8191349772047117  0.1396911118161341  1.0000
  H   H27       1.0  0.4640612316903798  0.09865953050758945  0.2265404654240584  1.0000
  H   H28       1.0  0.5038692491783865  0.1781139033127702  0.07114111778587778  1.0000
  H   H29       1.0  0.3970088531479804  0.015373336796933758  0.041982041422954794  1.0000
  H   H30       1.0  0.17277054390968535  0.6964100664854626  0.14412474470566386  1.0000
  H   H31       1.0  0.1813521150460462  0.7199355479864382  0.9767040603304196  1.0000
  H   H32       1.0  0.7873705883620379  0.6063523053494679  0.08319608597194159  1.0000
  H   H33       1.0  0.0689607526099182  0.42447806058833487  0.870192554976988  1.0000
  H   H34       1.0  0.18086285626803547  0.46837071739314234  0.8063607133242242  1.0000
  H   H35       1.0  0.9013385451018866  0.3654007965742351  0.8932087474893322  1.0000
  H   H36       1.0  0.8218856444672585  0.325756563519569  0.737811062284834  1.0000
  H   H37       1.0  0.9846256629919808  0.38163776728971016  0.7086513809513305  1.0000
  H   H38       1.0  0.30358284126751317  0.4763531453609319  0.8107972987649105  1.0000
  H   H39       1.0  0.280072130768474  0.46142213130690374  0.6433737763250492  1.0000
  H   H40       1.0  0.39364791258988413  0.18102117789544525  0.7498665999903267  1.0000
  H   H41       1.0  0.5755233593132733  0.6444814472929535  0.536858360008253  1.0000
  H   H42       1.0  0.5316290557383713  0.712490050191434  0.4730265534276299  1.0000
  H   H43       1.0  0.6346012218796775  0.5359357951025459  0.5598736630797418  1.0000
  H   H44       1.0  0.6742452824093238  0.49612857598408056  0.40447438694749854  1.0000
  H   H45       1.0  0.6183644249710911  0.6029895673451265  0.3753162977298955  1.0000
  H   H46       1.0  0.5236345800354486  0.8272283408692969  0.4774596218237049  1.0000
  H   H47       1.0  0.5385805608222475  0.8186441337184788  0.31003957798936443  1.0000
  H   H48       1.0  0.8189756529708635  0.21262163839188733  0.41652943738203857  1.0000
  H   H49       1.0  0.06895879288236281  0.6444845851684065  0.46314314588774147  1.0000
  H   H50       1.0  0.1808616806929635  0.7124898582433231  0.5269756259455605  1.0000
  H   H51       1.0  0.9013353837503576  0.53593864870286  0.44012652465188745  1.0000
  H   H52       1.0  0.821882975033994  0.4961274780763817  0.5955258611396417  1.0000
  H   H53       1.0  0.9846238462521839  0.6029875221557643  0.6246849532206014  1.0000
  H   H54       1.0  0.3035905985186675  0.8272243374442708  0.5225419953027952  1.0000
  H   H55       1.0  0.2800649810659126  0.818645750033241  0.6899632170243278  1.0000
  H   H56       1.0  0.39364534021159175  0.21262671662240962  0.5834720171187654  1.0000
  H   H57       1.0  0.5755201703794061  0.9310404783380831  0.7964747738691358  1.0000
  H   H58       1.0  0.5316282419168774  0.8191375888190107  0.8603097409911625  1.0000
  H   H59       1.0  0.6345973196924747  0.09866449193145847  0.7734596086882063  1.0000
  H   H60       1.0  0.674244705887439  0.17811549564405024  0.9288592241576124  1.0000
  H   H61       1.0  0.618364206980495  0.015374681908355102  0.9580177706712474  1.0000
  H   H62       1.0  0.5236383518316644  0.6964115206462578  0.8558755175843018  1.0000
  H   H63       1.0  0.5385836872811753  0.7199368686938143  0.023295389706717594  1.0000
  H   H64       1.0  0.818983465233302  0.6063525386524802  0.9168024418309243  1.0000
  H   H65       1.0  0.3555161404693623  0.42447788255731217  0.1298065664276109  1.0000
  H   H66       1.0  0.28750684249843783  0.468369308110212  0.1936387298266666  1.0000
  H   H67       1.0  0.4640623155477359  0.3654005779471134  0.106790145627329  1.0000
  H   H68       1.0  0.5038722066573059  0.3257562233877778  0.2621890558144599  1.0000
  H   H69       1.0  0.3970129747219674  0.3816366815635419  0.2913490407179893  1.0000
  H   H70       1.0  0.17276763395936018  0.47635013461559333  0.18920368545478536  1.0000
  H   H71       1.0  0.18135260796013616  0.4614217056272026  0.3566256773590268  1.0000
  H   H72       1.0  0.7873727307078157  0.1810209011570476  0.2501333492542486  1.0000
  H   H73       1.0  0.9310405970164485  0.355516073029861  0.46314304500091913  1.0000
  H   H74       1.0  0.8191394742280595  0.28750968297083546  0.5269760659780331  1.0000
  H   H75       1.0  0.09866471045020844  0.4640627349275023  0.4401260462642682  1.0000
  H   H76       1.0  0.17811693864759104  0.5038714648184879  0.5955260611249571  1.0000
  H   H77       1.0  0.015376302514965867  0.3970109232040856  0.6246853847097569  1.0000
  H   H78       1.0  0.6964089042586042  0.17277567325076165  0.5225422625463025  1.0000
  H   H79       1.0  0.7199335867613501  0.18135246616265724  0.689962294156949  1.0000
  H   H80       1.0  0.6063533996160334  0.7873710634845992  0.5834708285737733  1.0000
  H   H81       1.0  0.42447723581301494  0.0689628311056936  0.7964749500877134  1.0000
  H   H82       1.0  0.4683715405738909  0.18086521491499497  0.8603097552167255  1.0000
  H   H83       1.0  0.3654007907969971  0.9013395429386293  0.7734588250506818  1.0000
  H   H84       1.0  0.32575691713100974  0.8218848505781509  0.92885894922172  1.0000
  H   H85       1.0  0.38163562813713303  0.9846259671984613  0.9580184300815873  1.0000
  H   H86       1.0  0.476360837295296  0.3035906937947742  0.8558749913796929  1.0000
  H   H87       1.0  0.4614184443662811  0.28006622919543395  0.023296454361002403  1.0000
  H   H88       1.0  0.18102004036363456  0.3936497012171357  0.9168023837568808  1.0000
  H   H89       1.0  0.6444840798114132  0.5755225003330011  0.12980677237364088  1.0000
  H   H90       1.0  0.7124928614582231  0.5316297940038054  0.1936401100103424  1.0000
  H   H91       1.0  0.5359367751797283  0.634598696519511  0.10678996149551517  1.0000
  H   H92       1.0  0.49612931248530173  0.6742453368335647  0.2621892377759067  1.0000
  H   H93       1.0  0.6029887795014943  0.6183643811170042  0.2913499982926737  1.0000
  H   H94       1.0  0.8272315712038537  0.5236470610735324  0.189204225676967  1.0000
  H   H95       1.0  0.8186480128217613  0.5385774578344567  0.35662542856402274  1.0000
  H   H96       1.0  0.21262848423104003  0.8189810717799091  0.25013276142343693  1.0000
  H   H97       1.0  0.3280556855832304  0.6561146738237297  0.9999992675906667  1.0000
  H   H98       1.0  0.1522740040454097  0.30454695399279075  0.9999987575157121  1.0000
  H   H99       1.0  0.3438875064983977  0.6719452405008397  0.6666680689778346  1.0000
  H   H100      1.0  0.6954539497147041  0.8477243823147091  0.6666678519147952  1.0000
  H   H101      1.0  0.3280564631643373  0.6719430678824382  0.333332230406107  1.0000
  H   H102      1.0  0.15227365525301934  0.8477272470042364  0.3333298512067273  1.0000
  H   H103      1.0  0.6719446857277023  0.34388506123313073  0.9999997336436052  1.0000
  H   H104      1.0  0.8477283649148862  0.6954568962693415  0.9999990788381864  1.0000
  H   H105      1.0  0.6561135060435749  0.32805685349939034  0.6666670108932422  1.0000
  H   H106      1.0  0.3045448068156064  0.15227263226556434  0.6666699460070048  1.0000
  H   H107      1.0  0.6719428400494113  0.3280576228010474  0.3333323271335757  1.0000
  H   H108      1.0  0.8477252258166885  0.15227019813046647  0.3333308234108046  1.0000
  C   C1        1.0  0.6341879545313277  0.04172235993988956  0.1203750842063158  1.0000
  C   C2        1.0  0.6137680527376334  0.01582007880049467  0.17309822805923147  1.0000
  C   C3        1.0  0.9579039720666248  0.451240408011202  0.0543428912967769  1.0000
  C   C4        1.0  0.7333165052899562  0.1736194208724768  0.06050727123835739  1.0000
  C   C5        1.0  0.553405021407983  0.922277492255553  0.18599211895397613  1.0000
  C   C6        1.0  0.8105861300198288  0.2742336974129884  0.06048155909622469  1.0000
  C   C7        1.0  0.531179950768355  0.8783044613442784  0.0995163233183902  1.0000
  C   C8        1.0  0.590607524654637  0.969963361226675  0.08305032100330577  1.0000
  C   C9        1.0  0.8521607530628332  0.32917220018626364  0.10484003942288207  1.0000
  C   C10       1.0  0.3156600974059957  0.5801970877313707  0.09669717914253077  1.0000
  C   C11       1.0  0.8492526369838915  0.31844540734670795  0.012791056574258199  1.0000
  C   C12       1.0  0.27566650840451973  0.5298747839822581  0.046566728672750884  1.0000
  C   C13       1.0  0.224648394331304  0.4308615700908406  0.0464076043178494  1.0000
  C   C14       1.0  0.9582780816337652  0.5924647509462134  0.7870432320937653  1.0000
  C   C15       1.0  0.9841784062839668  0.5979426542987339  0.8397671190073837  1.0000
  C   C16       1.0  0.548759545690203  0.5066644973830847  0.7210177816887651  1.0000
  C   C17       1.0  0.8263832177505681  0.559701793889623  0.7271744263343648  1.0000
  C   C18       1.0  0.07772061639016686  0.631124137298599  0.8526610254640872  1.0000
  C   C19       1.0  0.7257684561031682  0.536356578749185  0.7271538928038908  1.0000
  C   C20       1.0  0.12169706188520037  0.6528783088994388  0.7661855576988826  1.0000
  C   C21       1.0  0.030038360840407636  0.6206431183858924  0.7497192893443909  1.0000
  C   C22       1.0  0.6708302388341638  0.5229908674302095  0.771510891561519  1.0000
  C   C23       1.0  0.41980251238820915  0.7354626458613962  0.7633671870555077  1.0000
  C   C24       1.0  0.6815525887619247  0.5308079774374761  0.6794634464397546  1.0000
  C   C25       1.0  0.47012521541604024  0.7457918343219987  0.7132366715396898  1.0000
  C   C26       1.0  0.5691396734307336  0.7937852489772297  0.7130774114191637  1.0000
  C   C27       1.0  0.40753532237159373  0.3658137524674742  0.4537080876327479  1.0000
  C   C28       1.0  0.40205319355002445  0.38623423413165625  0.5064308106915831  1.0000
  C   C29       1.0  0.49333737140384687  0.042094873658108205  0.3876752447764246  1.0000
  C   C30       1.0  0.440302515133283  0.2666820223742335  0.39383810442109995  1.0000
  C   C31       1.0  0.36887249081100754  0.4465950879489071  0.5193251998724904  1.0000
  C   C32       1.0  0.4636486164024023  0.1894132195064984  0.39381445745702587  1.0000
  C   C33       1.0  0.34712573002111946  0.4688215038132243  0.4328501410073001  1.0000
  C   C34       1.0  0.3793563457095957  0.40939730564852533  0.4163846261485631  1.0000
  C   C35       1.0  0.47701300051318196  0.14783903929973982  0.4381722279897815  1.0000
  C   C36       1.0  0.2645377993947875  0.6843407991561675  0.430031423431231  1.0000
  C   C37       1.0  0.4691946673934383  0.15075039642773888  0.346123238530808  1.0000
  C   C38       1.0  0.2542080250469996  0.724334029007359  0.37989935625171267  1.0000
  C   C39       1.0  0.20621457470166857  0.7753546045049261  0.37974014104488424  1.0000
  C   C40       1.0  0.3658106591452825  0.9582736015982647  0.1203742320811543  1.0000
  C   C41       1.0  0.3862322762893347  0.9841761379833188  0.17309849679152478  1.0000
  C   C42       1.0  0.042097870320226584  0.5487602545607402  0.05434234737898439  1.0000
  C   C43       1.0  0.2666865600940867  0.826377518076562  0.0605070284692033  1.0000
  C   C44       1.0  0.446592974166059  0.07771849679273399  0.18599188232502678  1.0000
  C   C45       1.0  0.18941350077977873  0.7257654537873321  0.06048070942635769  1.0000
  C   C46       1.0  0.4688153125133213  0.12169381575953511  0.09951601986860939  1.0000
  C   C47       1.0  0.40939043944212034  0.030034808402802978  0.0830501651637192  1.0000
  C   C48       1.0  0.14783895683144285  0.6708276952378753  0.10483928201323069  1.0000
  C   C49       1.0  0.684337811534455  0.41980101421223986  0.09669987610194399  1.0000
  C   C50       1.0  0.15074779782941763  0.6815545916486768  0.012790672754412896  1.0000
  C   C51       1.0  0.724335718330224  0.470125564224098  0.0465677867356007  1.0000
  C   C52       1.0  0.7753537384811442  0.5691400960427303  0.0464081230100675  1.0000
  C   C53       1.0  0.04172401993186278  0.4075376157174375  0.7870440225149197  1.0000
  C   C54       1.0  0.015823129285685505  0.40205980381841044  0.8397675441654044  1.0000
  C   C55       1.0  0.4512413164343345  0.4933409255624639  0.721017820668159  1.0000
  C   C56       1.0  0.1736196424800341  0.4403027981040495  0.7271747053554449  1.0000
  C   C57       1.0  0.9222809616369861  0.3688769397355642  0.8526620790141592  1.0000
  C   C58       1.0  0.27423311241793163  0.46364319229621737  0.7271525267226409  1.0000
  C   C59       1.0  0.8783051239727161  0.34712416120472506  0.7661858886868345  1.0000
  C   C60       1.0  0.9699631857110306  0.37936013923138745  0.7497195234370294  1.0000
  C   C61       1.0  0.32916983328804883  0.47700877819695353  0.7715118042947253  1.0000
  C   C62       1.0  0.5801977564365971  0.26453932149918563  0.7633685830969056  1.0000
  C   C63       1.0  0.3184462798523102  0.4691912550351631  0.6794647636493563  1.0000
  C   C64       1.0  0.5298744809257344  0.2542074890227965  0.7132361704886563  1.0000
  C   C65       1.0  0.43086011811928426  0.2062127580184167  0.7130778074075437  1.0000
  C   C66       1.0  0.5924642002187428  0.634185635379815  0.453710197815461  1.0000
  C   C67       1.0  0.5979448934059024  0.6137636696800896  0.5064321652749939  1.0000
  C   C68       1.0  0.5066588449003436  0.9578998568190471  0.38767740989806027  1.0000
  C   C69       1.0  0.5596963797613487  0.7333160868875552  0.3938412815259298  1.0000
  C   C70       1.0  0.6311272833238211  0.5534059029081392  0.5193262173963333  1.0000
  C   C71       1.0  0.5363544883581498  0.8105855703868484  0.3938160036429039  1.0000
  C   C72       1.0  0.6528784142187125  0.531183230685734  0.432850006458814  1.0000
  C   C73       1.0  0.6206454199296305  0.5906050653643077  0.4163859940550836  1.0000
  C   C74       1.0  0.5229866794269642  0.852159108456341  0.438174897733198  1.0000
  C   C75       1.0  0.7354636527368119  0.31566053996958504  0.43003188292628636  1.0000
  C   C76       1.0  0.5308065125440111  0.8492507475330554  0.34612590679033417  1.0000
  C   C77       1.0  0.7457911845415668  0.27566511359730583  0.3799002453971596  1.0000
  C   C78       1.0  0.7937849884574323  0.22464418596528196  0.37974028423199957  1.0000
  C   C79       1.0  0.04172215731034623  0.6341855187917602  0.5462921002770784  1.0000
  C   C80       1.0  0.015819769358081655  0.6137662029842729  0.4935689989008907  1.0000
  C   C81       1.0  0.45123967407703014  0.9579026233338794  0.6123228442319686  1.0000
  C   C82       1.0  0.1736179382075208  0.7333135604634221  0.606160477982101  1.0000
  C   C83       1.0  0.9222787105443833  0.5534070553501637  0.4806751087269205  1.0000
  C   C84       1.0  0.27423304934481546  0.8105847757652143  0.6061864152974366  1.0000
  C   C85       1.0  0.8783039918549921  0.531181689982617  0.5671498001890356  1.0000
  C   C86       1.0  0.9699578924446686  0.5906043071471883  0.5836160522561045  1.0000
  C   C87       1.0  0.3291715687076719  0.8521573250390162  0.5618259050081917  1.0000
  C   C88       1.0  0.5801946206204678  0.3156589884186334  0.5699690270665556  1.0000
  C   C89       1.0  0.3184460115691155  0.8492532642256593  0.653875288649509  1.0000
  C   C90       1.0  0.5298729780035886  0.2756667409519338  0.6201003369390676  1.0000
  C   C91       1.0  0.43085780717700584  0.22464451011290984  0.6202595988744903  1.0000
  C   C92       1.0  0.5924632858144039  0.9582769942890434  0.8796248566040531  1.0000
  C   C93       1.0  0.5979419473681847  0.9841794976850335  0.8269021057925909  1.0000
  C   C94       1.0  0.5066600337599854  0.5487581436875928  0.9456573621844555  1.0000
  C   C95       1.0  0.559692068577178  0.8263787647872363  0.9394942016503194  1.0000
  C   C96       1.0  0.6311227666908154  0.07772291560051063  0.8140078352449647  1.0000
  C   C97       1.0  0.5363531401136259  0.7257674314811311  0.939519120063636  1.0000
  C   C98       1.0  0.6528773496798694  0.12169696759881518  0.9004832427370529  1.0000
  C   C99       1.0  0.620642783246723  0.030037444020834296  0.9169500129939009  1.0000
  C   C100      1.0  0.5229885846746928  0.6708296449951732  0.8951606307698013  1.0000
  C   C101      1.0  0.7354658266405921  0.4198045478165184  0.9033008759961589  1.0000
  C   C102      1.0  0.5308082409149153  0.6815559580834362  0.9872088354727069  1.0000
  C   C103      1.0  0.7457970792067316  0.4701272144853945  0.9534325007713562  1.0000
  C   C104      1.0  0.7937927753516834  0.5691418778593444  0.9535908495012251  1.0000
  C   C105      1.0  0.36581365002869154  0.4075365435380149  0.2129562894509505  1.0000
  C   C106      1.0  0.38623548390994256  0.4020571828469031  0.1602323878144247  1.0000
  C   C107      1.0  0.04209425856391394  0.49333518947180716  0.2789831377983916  1.0000
  C   C108      1.0  0.266684255325302  0.4403046412879377  0.27282439205491466  1.0000
  C   C109      1.0  0.4465951298106463  0.36887527984973184  0.1473379737106555  1.0000
  C   C110      1.0  0.18941176555043887  0.4636435111969206  0.2728477001787226  1.0000
  C   C111      1.0  0.4688204573426234  0.3471239016039929  0.2338138087239585  1.0000
  C   C112      1.0  0.4093971665267661  0.3793596520883114  0.2502801251004598  1.0000
  C   C113      1.0  0.1478386125864405  0.4770060911960242  0.2284887906375843  1.0000
  C   C114      1.0  0.6843418512517447  0.2645409304082876  0.2366312395222039  1.0000
  C   C115      1.0  0.15074592780344195  0.4691921850012335  0.3205366197175792  1.0000
  C   C116      1.0  0.7243343133208385  0.2542089849330792  0.2867640560869873  1.0000
  C   C117      1.0  0.7753538816069966  0.2062152340809931  0.2869224919336233  1.0000
  C   C118      1.0  0.9582789195472973  0.3658139266257832  0.5462927463195655  1.0000
  C   C119      1.0  0.9841804617907786  0.3862345626804995  0.49356960400852046  1.0000
  C   C120      1.0  0.5487578903781198  0.042096072468758766  0.612322585342305  1.0000
  C   C121      1.0  0.8263797457163594  0.2666838487616872  0.6061609383644466  1.0000
  C   C122      1.0  0.07772147814619515  0.4465950913966239  0.4806754411694598  1.0000
  C   C123      1.0  0.7257671741817759  0.18941376133677307  0.6061858673551014  1.0000
  C   C124      1.0  0.12169568357597184  0.4688177465632252  0.5671500780460903  1.0000
  C   C125      1.0  0.03003821252492867  0.4093936613743168  0.5836168478774866  1.0000
  C   C126      1.0  0.6708269056689532  0.14784091533962845  0.5618262183916869  1.0000
  C   C127      1.0  0.41980224535586097  0.6843383419359839  0.5699676922822121  1.0000
  C   C128      1.0  0.6815539246660195  0.1507463535077632  0.6538755917335024  1.0000
  C   C129      1.0  0.47012516630618995  0.7243325275657  0.6200996988263867  1.0000
  C   C130      1.0  0.5691401726982551  0.7753524762695533  0.620258060094784  1.0000
  C   C131      1.0  0.407533878912986  0.041724585652083576  0.8796250762313989  1.0000
  C   C132      1.0  0.4020554304264366  0.015822343724657604  0.8269019716483469  1.0000
  C   C133      1.0  0.4933359944698311  0.4512415332844384  0.9456570365527951  1.0000
  C   C134      1.0  0.4403058184147142  0.17362277660554773  0.9394934658098035  1.0000
  C   C135      1.0  0.36887517993108104  0.9222809181771013  0.8140078008899678  1.0000
  C   C136      1.0  0.46364667519699765  0.27423462650455127  0.9395190254106112  1.0000
  C   C137      1.0  0.34712429344789836  0.8783048364861586  0.9004824983197182  1.0000
  C   C138      1.0  0.3793562536276911  0.9699631503959552  0.9169499148381488  1.0000
  C   C139      1.0  0.4770103511243989  0.32917369175620337  0.8951600734975357  1.0000
  C   C140      1.0  0.2645357105323285  0.5801985594297391  0.903300929586507  1.0000
  C   C141      1.0  0.46919025366760564  0.31844332369033884  0.9872079077346567  1.0000
  C   C142      1.0  0.25420531415011294  0.5298745853683542  0.9534314563528099  1.0000
  C   C143      1.0  0.20621337963995517  0.4308622717816206  0.9535899542378772  1.0000
  C   C144      1.0  0.6341853645782581  0.5924618514925369  0.21295648164450395  1.0000
  C   C145      1.0  0.6137647079769696  0.5979417320141353  0.16023336300879268  1.0000
  C   C146      1.0  0.9579014327851924  0.5066598216848064  0.278984391889864  1.0000
  C   C147      1.0  0.733318821670864  0.559692820210664  0.272825337079844  1.0000
  C   C148      1.0  0.5534037970515941  0.6311237935273013  0.1473381709309649  1.0000
  C   C149      1.0  0.8105874545132538  0.5363529167538555  0.2728470708790027  1.0000
  C   C150      1.0  0.5311796955454896  0.6528756125607414  0.23381282913123155  1.0000
  C   C151      1.0  0.5906038840254271  0.6206400387722155  0.2502799229432142  1.0000
  C   C152      1.0  0.8521608813081801  0.5229892396050388  0.228488927506703  1.0000
  C   C153      1.0  0.3156582649093736  0.7354634854039688  0.2366306862718517  1.0000
  C   C154      1.0  0.8492523936840257  0.5308047122960386  0.32053674907117363  1.0000
  C   C155      1.0  0.2756658839404411  0.7457912308464643  0.2867631275899356  1.0000
  C   C156      1.0  0.22464850179395093  0.7937864618417907  0.286921538359266  1.0000
  C   C157      1.0  0.28961935125828847  0.5792418855440714  0.9999997141575107  1.0000
  C   C158      1.0  0.19075414815048952  0.3815030797542748  0.9999990874698594  1.0000
  C   C159      1.0  0.4207600039226519  0.7103806106102579  0.6666680215154557  1.0000
  C   C160      1.0  0.6184996649962927  0.8092509876873918  0.6666678994259598  1.0000
  C   C161      1.0  0.28961968878104505  0.7103798747686981  0.33333144300978296  1.0000
  C   C162      1.0  0.19075233321650165  0.8092497590725644  0.3333306386141075  1.0000
  C   C163      1.0  0.7103844294004917  0.4207605530096429  6.36589021e-08  1.0000
  C   C164      1.0  0.8092510442130493  0.6184979470987244  0.9999995254696754  1.0000
  C   C165      1.0  0.5792388218378619  0.2896200024591381  0.6666678349420535  1.0000
  C   C166      1.0  0.3815011837521781  0.19074882496430237  0.6666675687389654  1.0000
  C   C167      1.0  0.7103803202854737  0.2896201100649094  0.33333233794525796  1.0000
  C   C168      1.0  0.8092501209929921  0.19075267090559567  0.3333312008765716  1.0000
  N   N1        1.0  0.5122716741558836  0.8533858298653031  0.1499489290954514  1.0000
  N   N2        1.0  0.696256876017813  0.13571697227458654  0.10858994481716168  1.0000
  N   N3        1.0  0.9245427978497819  0.41686489383976527  0.10184118148957569  1.0000
  N   N4        1.0  0.9226840422438091  0.4061230379520567  0.0089235881651319  1.0000
  N   N5        1.0  0.1466122619634407  0.6588865518426773  0.8166192958942703  1.0000
  N   N6        1.0  0.8642859884674368  0.5605395797537794  0.7752578294601236  1.0000
  N   N7        1.0  0.5831418041168068  0.5076839618848015  0.768516417434945  1.0000
  N   N8        1.0  0.5938765109488177  0.5165609129766368  0.6755980317684303  1.0000
  N   N9        1.0  0.3411148331281596  0.4877278494723072  0.4832823281353383  1.0000
  N   N10       1.0  0.43946312818392413  0.3037447265779676  0.441923439619778  1.0000
  N   N11       1.0  0.49232307632027544  0.07545694119651364  0.43517426068844856  1.0000
  N   N12       1.0  0.4834417392968506  0.07731870570026445  0.3422570503373236  1.0000
  N   N13       1.0  0.48772164602343804  0.14660904613304374  0.1499501369385356  1.0000
  N   N14       1.0  0.3037468646955548  0.8642813037142217  0.10858963307035199  1.0000
  N   N15       1.0  0.07545936930320361  0.5831374615969267  0.10184018687897377  1.0000
  N   N16       1.0  0.07731833661938492  0.5938774969409337  0.0089233560871165  1.0000
  N   N17       1.0  0.8533894617184646  0.3411147039338329  0.8166200382139194  1.0000
  N   N18       1.0  0.13571510195028233  0.4394639041360691  0.7752581335815804  1.0000
  N   N19       1.0  0.41686239530920954  0.49231769624193333  0.7685164794943518  1.0000
  N   N20       1.0  0.40613041455901594  0.4834449682381603  0.6755973347007682  1.0000
  N   N21       1.0  0.6588898131499478  0.5122759290628451  0.4832837655906701  1.0000
  N   N22       1.0  0.5605343498202947  0.6962519216502515  0.4419243308489342  1.0000
  N   N23       1.0  0.5076731118228827  0.9245398350693678  0.4351753002635803  1.0000
  N   N24       1.0  0.5165567527683947  0.9226790480856336  0.34225886308090736  1.0000
  N   N25       1.0  0.8533865602627133  0.5122738950561894  0.5167172346002005  1.0000
  N   N26       1.0  0.13571600061179373  0.6962501859614318  0.5580778731449527  1.0000
  N   N27       1.0  0.41686579533472234  0.9245402420534532  0.5648250044457512  1.0000
  N   N28       1.0  0.4061226318385995  0.9226844103977426  0.6577426093235131  1.0000
  N   N29       1.0  0.6588854702983157  0.1466127599169624  0.8500502527696696  1.0000
  N   N30       1.0  0.5605334903912154  0.8642844765195861  0.891410762996891  1.0000
  N   N31       1.0  0.5076766647103952  0.5831375785370978  0.898159470562639  1.0000
  N   N32       1.0  0.5165592139503449  0.5938793007488242  0.9910762850697593  1.0000
  N   N33       1.0  0.487726217195963  0.3411152459460495  0.18337966830763722  1.0000
  N   N34       1.0  0.30374917778030414  0.43946465938952156  0.2247421299788002  1.0000
  N   N35       1.0  0.07545252547506477  0.49231286776478106  0.2314848688146043  1.0000
  N   N36       1.0  0.07731426508280499  0.48343926823466177  0.32440286218282915  1.0000
  N   N37       1.0  0.14661367190520752  0.48772543867381296  0.5167174739601776  1.0000
  N   N38       1.0  0.864283289330672  0.30374605001799876  0.5580774884359627  1.0000
  N   N39       1.0  0.583135723346068  0.07546103987706235  0.564825072016653  1.0000
  N   N40       1.0  0.5938762299921408  0.07731624693575875  0.6577422795498575  1.0000
  N   N41       1.0  0.3411143536544261  0.8533900946977084  0.8500499303199971  1.0000
  N   N42       1.0  0.43946266249768956  0.135716786614978  0.8914100731132849  1.0000
  N   N43       1.0  0.492321906044225  0.4168660962683288  0.8981587984774961  1.0000
  N   N44       1.0  0.48343679452224125  0.4061224323247856  0.9910760197972548  1.0000
  N   N45       1.0  0.5122722110859216  0.6588840016145454  0.1833802467039334  1.0000
  N   N46       1.0  0.6962530347560192  0.5605340993456737  0.2247411560972097  1.0000
  N   N47       1.0  0.9245434523950282  0.5076810618149067  0.23148536630302632  1.0000
  N   N48       1.0  0.9226815010755023  0.516556481886795  0.32440257363594327  1.0000
  O   O1        1.0  0.37393068500722415  0.6700799623579953  0.0950235664237198  1.0000
  O   O2        1.0  0.29338825676637026  0.5341613157280705  0.13854853608209788  1.0000
  O   O3        1.0  0.708312935765669  0.1282019289393402  0.019523817684891802  1.0000
  O   O4        1.0  0.3299216617901596  0.7038469970276182  0.7616921410519025  1.0000
  O   O5        1.0  0.4658384649204807  0.7592254448608671  0.8052177038793928  1.0000
  O   O6        1.0  0.87179460207603  0.5801161811970631  0.6861909109568812  1.0000
  O   O7        1.0  0.29615044845625976  0.6260724324767821  0.42835596648632185  1.0000
  O   O8        1.0  0.24077475094527762  0.7066133662702824  0.47188079845673764  1.0000
  O   O9        1.0  0.419890196938674  0.29168773855614916  0.3528573252622209  1.0000
  O   O10       1.0  0.6260690645530859  0.32991998174288983  0.09502524325149858  1.0000
  O   O11       1.0  0.7066062374875204  0.46583615651416466  0.1385499988439065  1.0000
  O   O12       1.0  0.2916880392388424  0.8717901338476253  0.019522728016973197  1.0000
  O   O13       1.0  0.670079672580947  0.2961539198625402  0.7616934420711202  1.0000
  O   O14       1.0  0.5341628573455638  0.24077753752133904  0.8052187693673003  1.0000
  O   O15       1.0  0.12820708130195166  0.4198936242318112  0.6861920198905905  1.0000
  O   O16       1.0  0.7038512688000726  0.37392987916227594  0.42835909430296937  1.0000
  O   O17       1.0  0.7592299414082364  0.29339046880696884  0.47188282270105464  1.0000
  O   O18       1.0  0.580108063156317  0.7083125969347249  0.3528585778910553  1.0000
  O   O19       1.0  0.6700771951181185  0.37392861178516773  0.5716428922230107  1.0000
  O   O20       1.0  0.5341550359935285  0.2933840217578877  0.5281188976448377  1.0000
  O   O21       1.0  0.1282033368120923  0.7083128616344896  0.6471443844008533  1.0000
  O   O22       1.0  0.7038492931086325  0.32992207243341193  0.9049764217046885  1.0000
  O   O23       1.0  0.7592326011744961  0.46583814288702996  0.8614514600448402  1.0000
  O   O24       1.0  0.5801034493356954  0.8717928079237109  0.9804780449579269  1.0000
  O   O25       1.0  0.626073354991192  0.29615132482226164  0.2383078857888421  1.0000
  O   O26       1.0  0.7066190555721196  0.24077969533959734  0.19478264244574459  1.0000
  O   O27       1.0  0.29168887224287243  0.41989546023100377  0.31380866163196686  1.0000
  O   O28       1.0  0.3299204391716942  0.626071602901412  0.5716412961064989  1.0000
  O   O29       1.0  0.46583913182015413  0.7066078254468168  0.5281171186128475  1.0000
  O   O30       1.0  0.8717935448617953  0.29168864867751404  0.6471440093679276  1.0000
  O   O31       1.0  0.29614979215181614  0.6700785813610041  0.9049775123720281  1.0000
  O   O32       1.0  0.24076981097243086  0.5341644660489279  0.8614523604895864  1.0000
  O   O33       1.0  0.4198893817522278  0.12820363993940734  0.9804769882237137  1.0000
  O   O34       1.0  0.373925910093526  0.7038465915620408  0.2383057802087549  1.0000
  O   O35       1.0  0.293386145330068  0.7592249026726064  0.19478129829833077  1.0000
  O   O36       1.0  0.7083104659829406  0.5800968131681827  0.3138095981012157  1.0000
