data_image0
_chemical_formula_structural       Ba4H36C44N12O20
_chemical_formula_sum              "Ba4 H36 C44 N12 O20"
_cell_length_a       7.040450075
_cell_length_b       13.28013330399646
_cell_length_c       14.589
_cell_angle_alpha    113.72873060720443
_cell_angle_beta     90.0
_cell_angle_gamma    90.0

_space_group_name_H-M_alt    "P 1"
_space_group_IT_number       1

loop_
  _space_group_symop_operation_xyz
  'x, y, z'

loop_
  _atom_site_type_symbol
  _atom_site_label
  _atom_site_symmetry_multiplicity
  _atom_site_fract_x
  _atom_site_fract_y
  _atom_site_fract_z
  _atom_site_occupancy
  Ba  Ba1       1.0  0.5415775922535744  0.6500519830604574  0.4643675953361281  1.0000
  Ba  Ba2       1.0  0.0415797281255479  0.8499468111761386  0.5356309690877408  1.0000
  Ba  Ba3       1.0  0.4584195563662162  0.3499469389168154  0.5356318041448631  1.0000
  Ba  Ba4       1.0  0.9584188408579803  0.1500529333425149  0.4643694171418389  1.0000
  H   H1        1.0  0.9343720827393296  0.304675906578737  0.7580377835524812  1.0000
  H   H2        1.0  0.4343699575200829  0.1953206755150774  0.24196154708369733  1.0000
  H   H3        1.0  0.06563216769916379  0.6953230153985287  0.24196093048056605  1.0000
  H   H4        1.0  0.5656342929184105  0.8046798915449498  0.758039825894464  1.0000
  H   H5        1.0  0.0201322356511398  0.1986626611320972  0.7918449954318447  1.0000
  H   H6        1.0  0.5201286794154283  0.301334743503098  0.20815532195292258  1.0000
  H   H7        1.0  0.9798691740598711  0.8013362608451757  0.2081544040491536  1.0000
  H   H8        1.0  0.4798713099318447  0.6986666460983031  0.7918463523258836  1.0000
  H   H9        1.0  0.7484535709885021  0.461527144406773  0.8798450137549665  1.0000
  H   H10       1.0  0.2484514457692555  0.038470260228415  0.120152561838033  1.0000
  H   H11       1.0  0.2515478387225158  0.5384734226532544  0.12015361743143417  1.0000
  H   H12       1.0  0.7515528046692381  0.9615303068316052  0.8798488111401284  1.0000
  H   H13       1.0  0.6696134408708259  0.5701799251340063  0.06032841270648244  1.0000
  H   H14       1.0  0.16961557674279956  0.9298180465612091  0.9396684795208683  1.0000
  H   H15       1.0  0.3303822873852269  0.4298198193846403  0.9396699171792733  1.0000
  H   H16       1.0  0.8303844126044735  0.0701808754160567  0.06033297630394689  1.0000
  H   H17       1.0  0.9585949659617439  0.2058212387409881  0.9644185481385249  1.0000
  H   H18       1.0  0.45859426110624196  0.2941778109769615  0.03558168639959549  1.0000
  H   H19       1.0  0.041410704840487284  0.7941801508604128  0.03558175524440793  1.0000
  H   H20       1.0  0.5414085689685137  0.7058219335416922  0.9644180143820478  1.0000
  H   H21       1.0  0.8757323657323111  0.3262412964155743  0.141606623767693  1.0000
  H   H22       1.0  0.3757316608768092  0.1737593983851298  0.8583942133717101  1.0000
  H   H23       1.0  0.12426904397869977  0.6737592706444531  0.858393378314588  1.0000
  H   H24       1.0  0.6242640673792437  0.8262411686748975  0.14160647415850747  1.0000
  H   H25       1.0  0.5363804813288198  0.2944788611211422  0.7318294632923497  1.0000
  H   H26       1.0  0.0363755153820904  0.2055218336795548  0.2681727447429409  1.0000
  H   H27       1.0  0.4636209283821984  0.7055217059388781  0.26817122423787504  1.0000
  H   H28       1.0  0.9636258943289207  0.7944770882977109  0.731825283842177  1.0000
  H   H29       1.0  0.4054982237765543  0.5140052842950169  0.2584387536748523  1.0000
  H   H30       1.0  0.9055003489958009  0.9859935099415792  0.7415591253010801  1.0000
  H   H31       1.0  0.5944989248432363  0.4859944602236297  0.741560261658847  1.0000
  H   H32       1.0  0.0944996403514722  0.014006234577067298  0.2584405754805559  1.0000
  H   H33       1.0  0.6104439281887792  0.5232654551235711  0.21008084774097568  1.0000
  H   H34       1.0  0.11044606406075268  0.9767341616543987  0.7899173325356016  1.0000
  H   H35       1.0  0.3895532204310115  0.4767342893950754  0.7899181675927237  1.0000
  H   H36       1.0  0.8895525049227755  0.0232655828642478  0.2100830536939782  1.0000
  C   C1        1.0  0.5496211121133499  0.9117081530515065  0.6006425299160867  1.0000
  C   C2        1.0  0.049626088712798784  0.5882914637264705  0.399354964912547  1.0000
  C   C3        1.0  0.4503788772339234  0.0882932365499016  0.3993591443627196  1.0000
  C   C4        1.0  0.9503710599069919  0.4117074582508025  0.6006437491205078  1.0000
  C   C5        1.0  0.570072929605999  0.0321720609004501  0.6617313071750672  1.0000
  C   C6        1.0  0.0700750654779725  0.46782534373473783  0.3382676393138198  1.0000
  C   C7        1.0  0.4299256393775365  0.9678285061595773  0.3382700658030941  1.0000
  C   C8        1.0  0.929923503505563  0.5321735782425279  0.6617317601671715  1.0000
  C   C9        1.0  0.4614236256763745  0.1222502122396492  0.6661441642650131  1.0000
  C   C10       1.0  0.961421489804401  0.3777521276438023  0.33385727547567967  1.0000
  C   C11       1.0  0.5385763636708987  0.8777503548203711  0.33385720871314817  1.0000
  C   C12       1.0  0.03857707917913439  0.6222467943334635  0.6661407531094383  1.0000
  C   C13       1.0  0.2769425220304527  0.1383942318569993  0.6235705756217484  1.0000
  C   C14       1.0  0.7769418065222169  0.36160893056784  0.3764339072113501  1.0000
  C   C15       1.0  0.7230560469530758  0.8616063352030279  0.3764314828043495  1.0000
  C   C16       1.0  0.22305534209757374  0.6383883463266783  0.623563518772478  1.0000
  C   C17       1.0  0.7362938370101304  0.17910756242201836  0.7456970223052862  1.0000
  C   C18       1.0  0.2362931321546213  0.3208898422131767  0.2543019241836006  1.0000
  C   C19       1.0  0.2637075727008806  0.8208930046380088  0.2543029797769947  1.0000
  C   C20       1.0  0.7637096979201272  0.6791099023054696  0.7456977765980353  1.0000
  C   C21       1.0  0.8984425615716061  0.252739821458313  0.7983423060148167  1.0000
  C   C22       1.0  0.3984404363523594  0.2472567606355014  0.2016570246213618  1.0000
  C   C23       1.0  0.10156026850314957  0.7472599230603407  0.20165670931888263  1.0000
  C   C24       1.0  0.6015638140861341  0.7527421613417643  0.798343060307573  1.0000
  C   C25       1.0  0.8577633440572326  0.3235491184868238  0.9070129542483086  1.0000
  C   C26       1.0  0.3577626392017307  0.1764482861483714  0.09298530679263448  1.0000
  C   C27       1.0  0.14224090638126086  0.6764506260318227  0.09298537563744695  1.0000
  C   C28       1.0  0.6422416112367628  0.8235522809116558  0.9070160661855268  1.0000
  C   C29       1.0  0.7785169899099103  0.42849388268401606  0.9356706143984752  1.0000
  C   C30       1.0  0.2785134443269257  0.0715026994097983  0.0643266598938794  1.0000
  C   C31       1.0  0.221482999437363  0.5715050392932496  0.06432741418663566  1.0000
  C   C32       1.0  0.7214879653840851  0.928497867650229  0.9356747130842819  1.0000
  C   C33       1.0  0.7350396558276842  0.4889605444311087  0.036050000806710565  1.0000
  C   C34       1.0  0.23503753060843735  0.0110385052868338  0.963947491939642  1.0000
  C   C35       1.0  0.2649617538833269  0.5110392000875379  0.9639490145269889  1.0000
  C   C36       1.0  0.764962458738836  0.9889620617731865  0.036053881038519364  1.0000
  C   C37       1.0  0.8946459292945121  0.2863612002660219  0.982493599449036  1.0000
  C   C38       1.0  0.39464380407526517  0.21363784945192774  0.017505264193196986  1.0000
  C   C39       1.0  0.10535690078023657  0.7136401893353861  0.017506018485946  1.0000
  C   C40       1.0  0.6053576056357457  0.7863635401494733  0.9824950391897287  1.0000
  C   C41       1.0  0.8482568495452296  0.3531482699582682  0.08126878868857548  1.0000
  C   C42       1.0  0.3482575650534656  0.14685077975967428  0.9187300749536644  1.0000
  C   C43       1.0  0.15174456016578117  0.6468531196431329  0.9187301437984772  1.0000
  C   C44       1.0  0.6517410039300628  0.8531489647589721  0.08127031127591515  1.0000
  N   N1        1.0  0.7383902938904114  0.0698896957684028  0.713086004682374  1.0000
  N   N2        1.0  0.23838958903490234  0.43010853140816596  0.28691324310715766  1.0000
  N   N3        1.0  0.2616111158206067  0.9301108712916246  0.28691399739990686  1.0000
  N   N4        1.0  0.7616118206761087  0.5698912131104805  0.7130864576744855  1.0000
  N   N5        1.0  0.5708683333004103  0.2136172859174863  0.7196719725434875  1.0000
  N   N6        1.0  0.0708676284449012  0.286382586341837  0.2803299341911512  1.0000
  N   N7        1.0  0.4291316560468629  0.786383281142534  0.2803287149867372  1.0000
  N   N8        1.0  0.9291337812661096  0.7136163356354359  0.7196687798418963  1.0000
  N   N9        1.0  0.7668501221493287  0.4525236064880146  0.10831337624054528  1.0000
  N   N10       1.0  0.2668508376575645  0.0474770883126823  0.8916854045550406  1.0000
  N   N11       1.0  0.2331484468341998  0.5474769605720055  0.8916852549458624  1.0000
  N   N12       1.0  0.7331463109622263  0.9525243012887187  0.10831626972376536  1.0000
  O   O1        1.0  0.6779708611171456  0.8492081690190857  0.6120400912863743  1.0000
  O   O2        1.0  0.17797299698911925  0.6507898026761296  0.3879568009409765  1.0000
  O   O3        1.0  0.3220277078663898  0.1507923980409345  0.3879605962438503  1.0000
  O   O4        1.0  0.8220241516306785  0.3492091193011433  0.6120412276441414  1.0000
  O   O5        1.0  0.4173596813695184  0.8765107849643954  0.536644631950992  1.0000
  O   O6        1.0  0.9173646473162476  0.623490476896336  0.4633555218227484  1.0000
  O   O7        1.0  0.5826374672502721  0.123489782095632  0.463357426475106  1.0000
  O   O8        1.0  0.08262966057606748  0.3765084450809368  0.5366438776582427  1.0000
  O   O9        1.0  0.1558948630141401  0.0609692345287769  0.5903832082938364  1.0000
  O   O10       1.0  0.6558955678696421  0.4390372180615643  0.409619052502137  1.0000
  O   O11       1.0  0.844105126333133  0.9390313325312433  0.40961885013226856  1.0000
  O   O12       1.0  0.3441030011138863  0.5609600588329471  0.5903797443775644  1.0000
  O   O13       1.0  0.2502709317202303  0.2330029411037913  0.6230688654677293  1.0000
  O   O14       1.0  0.7502645347570362  0.2670026889451762  0.3769358358193671  1.0000
  O   O15       1.0  0.7497262168995602  0.7669968034148553  0.3769322062097941  1.0000
  O   O16       1.0  0.24973403422649904  0.7329937654079615  0.6230592325199922  1.0000
  O   O17       1.0  0.5036297342112732  0.5665294865004  0.25319235087116  1.0000
  O   O18       1.0  0.0036318700832466996  0.9334701302775698  0.7468065148533538  1.0000
  O   O19       1.0  0.4963688347722552  0.43347025801824657  0.746807349910476  1.0000
  O   O20       1.0  0.9963681192640264  0.0665296142410767  0.2531931859282821  1.0000
