data_image0
_chemical_formula_structural       ZnSiH12C24N8O8F6
_chemical_formula_sum              "Zn1 Si1 H12 C24 N8 O8 F6"
_cell_length_a       7.69537766344993
_cell_length_b       14.032994680290303
_cell_length_c       14.033110365905092
_cell_angle_alpha    89.90903825317415
_cell_angle_beta     90.0346603532235
_cell_angle_gamma    90.03473665495774

_space_group_name_H-M_alt    "P 1"
_space_group_IT_number       1

loop_
  _space_group_symop_operation_xyz
  'x, y, z'

loop_
  _atom_site_type_symbol
  _atom_site_label
  _atom_site_symmetry_multiplicity
  _atom_site_fract_x
  _atom_site_fract_y
  _atom_site_fract_z
  _atom_site_occupancy
  Zn  Zn1       1.0  0.5000109337908185  0.501036384013858  0.4989731658003933  1.0000
  Si  Si1       1.0  1.7229569479599894e-05  0.499676629210512  0.5003272112619399  1.0000
  H   H1        1.0  0.2314630941563536  0.6654159658225964  0.5009448909675669  1.0000
  H   H2        1.0  0.22371145566336287  0.8421084744672952  0.5034528205788718  1.0000
  H   H3        1.0  0.7736488070700531  0.6629313512734994  0.4902158836952779  1.0000
  H   H4        1.0  0.22649242839617054  0.3382779249950048  0.48956411185065457  1.0000
  H   H5        1.0  0.7685606243090535  0.33557726524005466  0.5014125832352079  1.0000
  H   H6        1.0  0.776074711562643  0.1589248576244344  0.5039961144033924  1.0000
  H   H7        1.0  0.23147931708671624  0.4987379407223926  0.6644287755186652  1.0000
  H   H8        1.0  0.223954583591599  0.49608811180951307  0.8410726544458029  1.0000
  H   H9        1.0  0.7735526160616573  0.5103757767451995  0.661738077417212  1.0000
  H   H10       1.0  0.22633686581539084  0.5097915061070423  0.33706609356821815  1.0000
  H   H11       1.0  0.768527747152497  0.4989998860697895  0.3346084229911952  1.0000
  H   H12       1.0  0.7763133754119736  0.49649551580086626  0.1579130951214438  1.0000
  C   C1        1.0  0.3520022598323039  0.7061834692704138  0.5008390018098297  1.0000
  C   C2        1.0  0.3480498687544583  0.8050863135829899  0.5033772325933086  1.0000
  C   C3        1.0  0.5048126195799156  0.8568425989065033  0.5049153975547185  1.0000
  C   C4        1.0  0.6584224877415538  0.8024250846455488  0.5000376862182705  1.0000
  C   C5        1.0  0.6533707747487513  0.703693769211334  0.4949958978935243  1.0000
  C   C6        1.0  0.5041757848789885  0.9572207192145681  0.5070168909374004  1.0000
  C   C7        1.0  0.4954152188591011  0.04383944757522329  0.5069836410624333  1.0000
  C   C8        1.0  0.4949917369340043  0.14422311656670667  0.5048323644224979  1.0000
  C   C9        1.0  0.3416011553379334  0.19881472963869132  0.4995995955593883  1.0000
  C   C10       1.0  0.3467915492444149  0.2975668522335511  0.49461652418060703  1.0000
  C   C11       1.0  0.6479446120195078  0.2949348077510621  0.5010744102984503  1.0000
  C   C12       1.0  0.6517633742786021  0.19598940503071557  0.5036455380070208  1.0000
  C   C13       1.0  0.3520796630882757  0.4990291252676187  0.7050723121696052  1.0000
  C   C14       1.0  0.34826855603469653  0.4964180684866903  0.8040155082977094  1.0000
  C   C15       1.0  0.5050167054892044  0.4951600194887717  0.8557892018168616  1.0000
  C   C16       1.0  0.6584359222191554  0.5003515653144888  0.8011973056658022  1.0000
  C   C17       1.0  0.6532378634023388  0.5053510650635004  0.7024488354220749  1.0000
  C   C18       1.0  0.5045879002020399  0.49298876029245514  0.9561820347313841  1.0000
  C   C19       1.0  0.4958803705350405  0.4929626886638516  0.0427819330655197  1.0000
  C   C20       1.0  0.4952278354750774  0.4950648949687986  0.1431734750438238  1.0000
  C   C21       1.0  0.3415971240505442  0.4999653957326017  0.197579175958694  1.0000
  C   C22       1.0  0.346624037359625  0.5050057942864185  0.2963110979474876  1.0000
  C   C23       1.0  0.6480029267443115  0.49912141917575775  0.2938313148525609  1.0000
  C   C24       1.0  0.651973617274443  0.4965739120478929  0.19492786947172652  1.0000
  N   N1        1.0  0.5018326069608963  0.6560425550485149  0.49755706305256814  1.0000
  N   N2        1.0  0.49828082701132104  0.34529993799155523  0.497530196818893  1.0000
  N   N3        1.0  0.5017668668880688  0.5025142864839579  0.6547040282516079  1.0000
  N   N4        1.0  0.4981569401855453  0.5024268458309109  0.34396472540093004  1.0000
  N   N5        1.0  0.8298022148398942  0.8482287744860312  0.5012630216012397  1.0000
  N   N6        1.0  0.17007319723007439  0.15308987586914918  0.5004706443515374  1.0000
  N   N7        1.0  0.829943009930979  0.4994221240137335  0.8469367249670441  1.0000
  N   N8        1.0  0.1702213530799241  0.49876208763043917  0.1517637975920323  1.0000
  O   O1        1.0  0.8551195865031147  0.910532859915598  0.5619484102552619  1.0000
  O   O2        1.0  0.9369709524891618  0.8198578127683832  0.4417653769563684  1.0000
  O   O3        1.0  0.1438388690065651  0.09126963513197241  0.5617085548700658  1.0000
  O   O4        1.0  0.06373297950518973  0.1810600918283285  0.4401698844732564  1.0000
  O   O5        1.0  0.8561147514153405  0.43812960213434576  0.9086887799606203  1.0000
  O   O6        1.0  0.9363028595136104  0.5597397763129023  0.8190158606696797  1.0000
  O   O7        1.0  0.14488319557661097  0.43809115841025903  0.0894523797557127  1.0000
  O   O8        1.0  0.0630682503595636  0.558267308821783  0.18013598989036683  1.0000
  F   F1        1.0  0.22935571013899647  0.5003530468520552  0.5010662950235059  1.0000
  F   F2        1.0  0.7706609467572179  0.4989326553129344  0.49964998881861783  1.0000
  F   F3        1.0  1.4737138734200123e-05  0.5850469470798602  0.4149697034015247  1.0000
  F   F4        1.0  4.125861657700036e-06  0.4139825312337848  0.5860049312432878  1.0000
  F   F5        1.0  0.9982777869919559  0.5850566983828641  0.5857097661694652  1.0000
  F   F6        1.0  0.0017518675758907004  0.4143003192245657  0.4149401913442786  1.0000
