data_image0
_chemical_formula_structural       Zn12H100C168N20O52
_chemical_formula_sum              "Zn12 H100 C168 N20 O52"
_cell_length_a       10.149987556171792
_cell_length_b       22.98997095412182
_cell_length_c       26.805274350606663
_cell_angle_alpha    89.9999353270768
_cell_angle_beta     95.25079566113568
_cell_angle_gamma    90.00037214660358

_space_group_name_H-M_alt    "P 1"
_space_group_IT_number       1

loop_
  _space_group_symop_operation_xyz
  'x, y, z'

loop_
  _atom_site_type_symbol
  _atom_site_label
  _atom_site_symmetry_multiplicity
  _atom_site_fract_x
  _atom_site_fract_y
  _atom_site_fract_z
  _atom_site_occupancy
  Zn  Zn1       1.0  0.34216530276926693  0.19027110503036948  0.2718399524814785  1.0000
  Zn  Zn2       1.0  0.15783326287572663  0.6902728058319384  0.22816048218805923  1.0000
  Zn  Zn3       1.0  0.6578361672742048  0.8097291957548975  0.7281603103494163  1.0000
  Zn  Zn4       1.0  0.842170187538258  0.3097287998727083  0.7718402211107716  1.0000
  Zn  Zn5       1.0  0.03802383504234538  0.24801851576803102  0.18383866431172183  1.0000
  Zn  Zn6       1.0  0.46197063080682443  0.7480196688871246  0.3161626946070015  1.0000
  Zn  Zn7       1.0  0.9619766407783816  0.7519809150720178  0.8161604454943827  1.0000
  Zn  Zn8       1.0  0.5380308392525066  0.25198280675952117  0.6838375682233958  1.0000
  Zn  Zn9       1.0  0.3700023921811351  0.5097941238060956  0.0072809985106516975  1.0000
  Zn  Zn10      1.0  0.1299965109705212  0.0097936981337341  0.492719993812102  1.0000
  Zn  Zn11      1.0  0.6299971023317142  0.4902044370867812  0.992719943201486  1.0000
  Zn  Zn12      1.0  0.8700039713108082  0.9902061676776128  0.5072806084593182  1.0000
  H   H1        1.0  0.13384389964474508  0.4743222336832246  0.0027256376191716  1.0000
  H   H2        1.0  0.36615781782347057  0.9743233083749204  0.4972742588248664  1.0000
  H   H3        1.0  0.8661595491390203  0.5256771971602846  0.9972746925638134  1.0000
  H   H4        1.0  0.6338446399757912  0.025676557439716405  0.5027256645657232  1.0000
  H   H5        1.0  0.1584060432685277  0.5026819917207561  0.055404885846094494  1.0000
  H   H6        1.0  0.3415947316899448  0.0026839766733602003  0.4445954308861246  1.0000
  H   H7        1.0  0.8415944389969425  0.4973156992292118  0.9445957164258232  1.0000
  H   H8        1.0  0.6584047579956901  0.9973167590816345  0.5554043914764434  1.0000
  H   H9        1.0  0.30919296116832123  0.36796560340694373  0.110261990749585  1.0000
  H   H10       1.0  0.1908042369953122  0.8679667512385976  0.3897378538789127  1.0000
  H   H11       1.0  0.6908144370337652  0.6320333924710937  0.8897366085554808  1.0000
  H   H12       1.0  0.8091903042125352  0.1320344194819185  0.6102614269875062  1.0000
  H   H13       1.0  0.7291159345061117  0.3545912502205937  0.10018010061413209  1.0000
  H   H14       1.0  0.7708823622372662  0.8545908747620533  0.3998196907488207  1.0000
  H   H15       1.0  0.27089049046306707  0.6454073106813426  0.8998221961786327  1.0000
  H   H16       1.0  0.22911118958457174  0.145408556067963  0.6001795564420577  1.0000
  H   H17       1.0  0.5393266015056639  0.2414302651770656  0.1991223306972714  1.0000
  H   H18       1.0  0.960666092164267  0.7414301297515707  0.3008784976716754  1.0000
  H   H19       1.0  0.46067189716692514  0.758566990798556  0.8008770848738039  1.0000
  H   H20       1.0  0.03933044230041109  0.2585684311358919  0.6991242085944122  1.0000
  H   H21       1.0  0.7872157055531588  0.21092901342633033  0.2699451003683464  1.0000
  H   H22       1.0  0.7127755522935714  0.7109313044318597  0.2300553353209907  1.0000
  H   H23       1.0  0.21277982985522206  0.7890699824334815  0.7300553335235733  1.0000
  H   H24       1.0  0.2872278948790097  0.28906856138416975  0.7699446217455373  1.0000
  H   H25       1.0  0.6728432495931287  0.10882555075792058  0.3933653536186483  1.0000
  H   H26       1.0  0.8271445387392475  0.6088278975264814  0.1066346888467606  1.0000
  H   H27       1.0  0.32716118854810355  0.8911717052256021  0.6066350102407796  1.0000
  H   H28       1.0  0.17285000244639548  0.39117022838809845  0.8933645920203618  1.0000
  H   H29       1.0  0.0828410059810949  0.11849198177851863  0.364498584541991  1.0000
  H   H30       1.0  0.4171475987592714  0.6184967237773409  0.1354993415582086  1.0000
  H   H31       1.0  0.9171624331260444  0.8815087539832759  0.6354995069425655  1.0000
  H   H32       1.0  0.5828499009172816  0.3815092316438681  0.8644978016367943  1.0000
  H   H33       1.0  0.4779970671228496  0.8424940375408667  0.814416087058504  1.0000
  H   H34       1.0  0.021997575883318604  0.3424937060658877  0.6855811333292294  1.0000
  H   H35       1.0  0.5220024209389109  0.15750539329754082  0.1855833621880123  1.0000
  H   H36       1.0  0.9780009131253209  0.6575065947171268  0.3144160435430265  1.0000
  H   H37       1.0  0.7338341725315303  0.9562718871559145  0.7472557465718239  1.0000
  H   H38       1.0  0.7661693710843095  0.4562708632718754  0.7527441755856615  1.0000
  H   H39       1.0  0.2661672991231256  0.0437279786568325  0.2527448893755349  1.0000
  H   H40       1.0  0.23383110312840927  0.5437294375129654  0.24725456110388683  1.0000
  H   H41       1.0  0.6145432090333786  0.017324853142760305  0.8201710652217287  1.0000
  H   H42       1.0  0.8854549268709635  0.5173246611177404  0.6798302130658413  1.0000
  H   H43       1.0  0.3854602397535558  0.9826750126730277  0.1798292649611497  1.0000
  H   H44       1.0  0.1145445692657603  0.48267520469172365  0.32017110176234803  1.0000
  H   H45       1.0  0.3303350485496565  0.86219891005549  0.8594209020563852  1.0000
  H   H46       1.0  0.16965790955835303  0.3621986267056698  0.6405777343272304  1.0000
  H   H47       1.0  0.6696733503199183  0.13779921587769192  0.1405803427392982  1.0000
  H   H48       1.0  0.8303356341853527  0.637799934181011  0.3594196472820812  1.0000
  H   H49       1.0  0.2178168860679506  0.8732848372511056  0.9349770181018043  1.0000
  H   H50       1.0  0.2821811854319805  0.37328410638870235  0.5650229008810967  1.0000
  H   H51       1.0  0.7821845839660001  0.12671415861733243  0.0650232447293959  1.0000
  H   H52       1.0  0.7178182977835448  0.6267148894781513  0.4349754290164611  1.0000
  H   H53       1.0  0.4169897365677143  0.0366146232106601  0.9674316263507734  1.0000
  H   H54       1.0  0.08301925951464992  0.5366163666474506  0.5325701065763866  1.0000
  H   H55       1.0  0.5830117334820955  0.9633865475191573  0.03256863647992251  1.0000
  H   H56       1.0  0.9169831999021409  0.46338393413920914  0.46743018993044666  1.0000
  H   H57       1.0  0.5369669434507358  0.025122877094403896  0.892624078236274  1.0000
  H   H58       1.0  0.9630362466068689  0.5251243080332985  0.6073758723569752  1.0000
  H   H59       1.0  0.463031558469595  0.974876988714392  0.107376083566912  1.0000
  H   H60       1.0  0.0369672021895866  0.47487686269931817  0.3926244578255975  1.0000
  H   H61       1.0  0.21010580898383313  0.05131963392773291  0.0026105791252461993  1.0000
  H   H62       1.0  0.2898887481004452  0.5513196195992265  0.49738910625437427  1.0000
  H   H63       1.0  0.7898867567029129  0.9486811018172291  0.9973893806221028  1.0000
  H   H64       1.0  0.7101087693054993  0.44868242106882417  0.5026121412214337  1.0000
  H   H65       1.0  0.27544035552016766  0.8677518032395  0.02227315019906939  1.0000
  H   H66       1.0  0.2245588247199635  0.36775166874334536  0.47772825434594773  1.0000
  H   H67       1.0  0.7245611129152821  0.1322493674905658  0.9777267395152761  1.0000
  H   H68       1.0  0.7754406633513186  0.6322490670118909  0.5222711949002701  1.0000
  H   H69       1.0  0.17420959719343898  0.21495783194075807  0.0949062188718699  1.0000
  H   H70       1.0  0.3257912991748526  0.7149593470468362  0.4050924061450232  1.0000
  H   H71       1.0  0.8257928718999781  0.785041163927616  0.9050963163333987  1.0000
  H   H72       1.0  0.6742062069400986  0.2850439985397486  0.5949062295159989  1.0000
  H   H73       1.0  0.2329174595664441  0.12560550572751342  0.050055487915273  1.0000
  H   H74       1.0  0.26707718513764434  0.6256067932748409  0.4499426369498564  1.0000
  H   H75       1.0  0.7670810375139893  0.8743947950542861  0.9499435545387483  1.0000
  H   H76       1.0  0.7329133969911081  0.37439829219081844  0.5500561360955416  1.0000
  H   H77       1.0  0.0046583916032574  0.027511904938265306  0.1492790253814533  1.0000
  H   H78       1.0  0.49534472745668245  0.5275122384204708  0.3507220934466773  1.0000
  H   H79       1.0  0.9953430849039862  0.9724892657905855  0.8507227299146648  1.0000
  H   H80       1.0  0.5046577432701298  0.4724893672813195  0.6492808148743378  1.0000
  H   H81       1.0  0.9507707660362925  0.12254684935238203  0.18941482258453854  1.0000
  H   H82       1.0  0.5492330540007303  0.6225485648996028  0.3105861254634092  1.0000
  H   H83       1.0  0.049235660563098804  0.8774538864106916  0.8105878473240793  1.0000
  H   H84       1.0  0.45076644376938907  0.3774539107432774  0.6894155624805265  1.0000
  H   H85       1.0  0.1371859704978746  0.8257527159344561  0.2361320557764657  1.0000
  H   H86       1.0  0.36281753759738683  0.3257515198726892  0.2638680441164851  1.0000
  H   H87       1.0  0.8628234177640478  0.17424801983378302  0.7638692226945523  1.0000
  H   H88       1.0  0.6371789775045116  0.6742483459345223  0.7361301847530513  1.0000
  H   H89       1.0  0.14079029803380647  0.9129138076368336  0.18010186717371818  1.0000
  H   H90       1.0  0.35921646649423167  0.4129133974382243  0.31989975220601957  1.0000
  H   H91       1.0  0.8592151262678839  0.08708562320995128  0.8198977841284362  1.0000
  H   H92       1.0  0.6407840190031279  0.5870847284835323  0.6801015962985062  1.0000
  H   H93       1.0  0.21851561932370336  0.7952796605401035  0.0604333599322402  1.0000
  H   H94       1.0  0.2814745841032363  0.2952801746307046  0.4395666893896575  1.0000
  H   H95       1.0  0.7814828842046424  0.2047193353238939  0.9395671749875022  1.0000
  H   H96       1.0  0.7185239145883813  0.7047196911785745  0.5604327261808209  1.0000
  H   H97       1.0  0.2136341731856035  0.7142290543947357  0.1212486092592897  1.0000
  H   H98       1.0  0.2863617785857784  0.21422835762434295  0.3787528326464624  1.0000
  H   H99       1.0  0.7863692772252051  0.28577211633763266  0.8787520940396405  1.0000
  H   H100      1.0  0.7136347494373254  0.7857723781254791  0.6212483811537055  1.0000
  C   C1        1.0  0.28851465129646664  0.2782877315736556  0.1754617283358968  1.0000
  C   C2        1.0  0.21148025601006282  0.7782872846764304  0.3245396165773187  1.0000
  C   C3        1.0  0.7114848270569425  0.7217086544602721  0.8245354822132  1.0000
  C   C4        1.0  0.7885162784451012  0.22170997129421013  0.6754630896890674  1.0000
  C   C5        1.0  0.511703906348302  0.41542835893448427  0.0647357327749205  1.0000
  C   C6        1.0  0.988292307955973  0.9154281259477842  0.4352635562938758  1.0000
  C   C7        1.0  0.48830249438329787  0.5845671571651678  0.9352609672732372  1.0000
  C   C8        1.0  0.0116963002311437  0.08457173984703562  0.5647362687499182  1.0000
  C   C9        1.0  0.7738449343582658  0.26167684512115136  0.1630018267487614  1.0000
  C   C10       1.0  0.7261520040192622  0.7616759889684134  0.3369972613740444  1.0000
  C   C11       1.0  0.2261614906394627  0.7383256305312714  0.837000470043101  1.0000
  C   C12       1.0  0.27384154137051553  0.23832692164078398  0.6630004933506157  1.0000
  C   C13       1.0  0.4108039255348501  0.30194084205663774  0.1564376435775401  1.0000
  C   C14       1.0  0.089192314499499  0.8019395841143789  0.3435633509509088  1.0000
  C   C15       1.0  0.5892014955222677  0.6980564139292583  0.8435612614924038  1.0000
  C   C16       1.0  0.910802237977137  0.19805723688167381  0.6564385417309921  1.0000
  C   C17       1.0  0.4038833336799215  0.34762425318520224  0.12184720928282639  1.0000
  C   C18       1.0  0.0961145587864394  0.8476238395334833  0.378153051550477  1.0000
  C   C19       1.0  0.5961201054081825  0.6523738727429346  0.8781508822023271  1.0000
  C   C20       1.0  0.903880979853831  0.1523755912981102  0.6218481285740509  1.0000
  C   C21       1.0  0.5186329900815566  0.3666318496401431  0.1017513567390083  1.0000
  C   C22       1.0  0.9813654855009445  0.866631645480041  0.3982491752853079  1.0000
  C   C23       1.0  0.4813724293485108  0.633363666456887  0.8982471752149834  1.0000
  C   C24       1.0  0.0186300482962523  0.1333677853522843  0.6017508854901621  1.0000
  C   C25       1.0  0.6399077685823826  0.3396154513733621  0.115840390256956  1.0000
  C   C26       1.0  0.8600922933312274  0.8396149176310956  0.38416059473642855  1.0000
  C   C27       1.0  0.36009765892899276  0.6603813696392821  0.8841600072785027  1.0000
  C   C28       1.0  0.1399012601049634  0.16038451319867872  0.6158390255708072  1.0000
  C   C29       1.0  0.6464663868669902  0.29334047786732503  0.1497652735868442  1.0000
  C   C30       1.0  0.8535320107644395  0.7933399699427072  0.3502356991424946  1.0000
  C   C31       1.0  0.3535340954111703  0.7066589529717433  0.8502353286846684  1.0000
  C   C32       1.0  0.14646648794620634  0.20666250570022976  0.6497637164273726  1.0000
  C   C33       1.0  0.5323799394153708  0.2752767716888869  0.17064399889300566  1.0000
  C   C34       1.0  0.9676142356436371  0.7752748788384665  0.3293564743748121  1.0000
  C   C35       1.0  0.4676185624891004  0.7247209192585231  0.8293561629106775  1.0000
  C   C36       1.0  0.032383278505044195  0.22472324707958088  0.6706440268691907  1.0000
  C   C37       1.0  0.05195145693917169  0.18853514161360607  0.2832322262219122  1.0000
  C   C38       1.0  0.4480470817822138  0.6885381254555939  0.216767836134224  1.0000
  C   C39       1.0  0.9480500034086319  0.811463854256289  0.7167657979111652  1.0000
  C   C40       1.0  0.5519563638108946  0.311466525055721  0.7832317478148382  1.0000
  C   C41       1.0  0.5734330930431425  0.17500997149010541  0.3146717283173928  1.0000
  C   C42       1.0  0.9265606154806535  0.6750081503405952  0.1853303174862404  1.0000
  C   C43       1.0  0.4265663982473455  0.8249894593478118  0.6853284671618312  1.0000
  C   C44       1.0  0.0734388709477258  0.3249886706643892  0.8146687586445296  1.0000
  C   C45       1.0  0.920721703896923  0.0716879508494941  0.42790008111020933  1.0000
  C   C46       1.0  0.5792556458323047  0.5716905014488348  0.0720988955470006  1.0000
  C   C47       1.0  0.0792847081764236  0.9283132198880468  0.572099230751121  1.0000
  C   C48       1.0  0.4207240564091137  0.4283132790841293  0.9279002532960874  1.0000
  C   C49       1.0  0.9466742302135458  0.16791784930566683  0.31459638994477496  1.0000
  C   C50       1.0  0.5533193523089822  0.6679210462625278  0.1854004355103314  1.0000
  C   C51       1.0  0.0533282178900549  0.8320807115935978  0.68540129474799  1.0000
  C   C52       1.0  0.44668013255578387  0.33208273429912083  0.8145982675024684  1.0000
  C   C53       1.0  0.8143548463265801  0.18353230220473896  0.3023836012283141  1.0000
  C   C54       1.0  0.6856389768432222  0.6835354279452588  0.19761620193268212  1.0000
  C   C55       1.0  0.18564266459655704  0.8164662586860699  0.6976161537828817  1.0000
  C   C56       1.0  0.3143644671069837  0.3164653078158111  0.8023830089009394  1.0000
  C   C57       1.0  0.7155973827462105  0.16188618155430126  0.3305644818167011  1.0000
  C   C58       1.0  0.7843951353334333  0.6618874530079212  0.16943529768466448  1.0000
  C   C59       1.0  0.2844021020804917  0.8381123793400392  0.6694342211973066  1.0000
  C   C60       1.0  0.21560534532085274  0.33811067291456715  0.8305649314708035  1.0000
  C   C61       1.0  0.7499806601274912  0.12581047316917454  0.37171096592474123  1.0000
  C   C62       1.0  0.7500063849426226  0.625813439955934  0.1282886618891368  1.0000
  C   C63       1.0  0.2500198221411551  0.8741876527530651  0.6282896363470768  1.0000
  C   C64       1.0  0.24998914239714046  0.3741859908773649  0.8717099064209178  1.0000
  C   C65       1.0  0.8824893668769107  0.11088371135281962  0.3844677799006746  1.0000
  C   C66       1.0  0.617499431174963  0.6108880544473437  0.11553005658975482  1.0000
  C   C67       1.0  0.1175150664402764  0.8891161544650927  0.6155314646090843  1.0000
  C   C68       1.0  0.3824931232303115  0.38911529113297416  0.8844672913425171  1.0000
  C   C69       1.0  0.980300554601939  0.13142108685001833  0.35547014270654387  1.0000
  C   C70       1.0  0.519686565854208  0.6314259809515973  0.1445279900453826  1.0000
  C   C71       1.0  0.019700908984091797  0.8685792139362151  0.6445286276589429  1.0000
  C   C72       1.0  0.480308961526795  0.3685791045212951  0.8554705782633647  1.0000
  C   C73       1.0  0.5329790491564736  0.8810835574009701  0.8060559437005423  1.0000
  C   C74       1.0  0.9670164690158032  0.3810827524837704  0.6939430312830196  1.0000
  C   C75       1.0  0.4670214315136718  0.11891674338289702  0.19394428545442108  1.0000
  C   C76       1.0  0.0329800493084704  0.6189162433784077  0.3060559438194232  1.0000
  C   C77       1.0  0.6633148174917308  0.9417132471779796  0.7725925561732723  1.0000
  C   C78       1.0  0.8366806020274637  0.4417115891117335  0.7274078495459833  1.0000
  C   C79       1.0  0.3366856615608924  0.058286618633850706  0.2274072998654333  1.0000
  C   C80       1.0  0.1633159227637506  0.5582887116663001  0.2725926180215765  1.0000
  C   C81       1.0  0.604926185721972  0.9723504119950378  0.8085585319426231  1.0000
  C   C82       1.0  0.8950706635660168  0.47235114373413023  0.6914404008104782  1.0000
  C   C83       1.0  0.39507528754069915  0.027648583872910103  0.19144247712129203  1.0000
  C   C84       1.0  0.10492783673996087  0.5276487220749077  0.30855938787635034  1.0000
  C   C85       1.0  0.4458297194029798  0.942381422489589  0.8712598129332391  1.0000
  C   C86       1.0  0.05417134022186328  0.44238169314153447  0.6287405145459674  1.0000
  C   C87       1.0  0.5541717506309709  0.057617573378848895  0.1287404498979612  1.0000
  C   C88       1.0  0.945829138833929  0.5576186076425743  0.37125934149263884  1.0000
  C   C89       1.0  0.3535562247179698  0.9002359484263351  0.8831456009274845  1.0000
  C   C90       1.0  0.1464432324718032  0.4002369345665784  0.6168550854931141  1.0000
  C   C91       1.0  0.6464452453286639  0.0997647873312104  0.11685466190331789  1.0000
  C   C92       1.0  0.8535572498127024  0.5997633662170471  0.3831455167781996  1.0000
  C   C93       1.0  0.28859022001981316  0.9066664569587176  0.9262403772462307  1.0000
  C   C94       1.0  0.21140834157944968  0.40666681635667606  0.5737602725231099  1.0000
  C   C95       1.0  0.7114062999346799  0.09333471376459807  0.0737589709720652  1.0000
  C   C96       1.0  0.7885911497110312  0.5933326144812414  0.426239922956114  1.0000
  C   C97       1.0  0.3099971901776399  0.9553107215485925  0.9577294018836611  1.0000
  C   C98       1.0  0.1900040564008023  0.45531062596987937  0.5422705464967592  1.0000
  C   C99       1.0  0.6899983404003579  0.044690014201051995  0.042269912658795795  1.0000
  C   C100      1.0  0.8099934496855995  0.5446888048662188  0.4577280891651725  1.0000
  C   C101      1.0  0.39704091055736507  0.9985953819618772  0.9436182431454229  1.0000
  C   C102      1.0  0.10296295575749069  0.4985963228673498  0.556383991256503  1.0000
  C   C103      1.0  0.6029585823569903  0.0014053537926273002  0.056382325449852985  1.0000
  C   C104      1.0  0.8970375249063095  0.5014031079719601  0.4436162378986594  1.0000
  C   C105      1.0  0.46558411486576995  0.9921000672199729  0.9012447359898631  1.0000
  C   C106      1.0  0.03441965188747529  0.49210293046456854  0.5987563820680039  1.0000
  C   C107      1.0  0.5344193419929582  0.0078997985945932  0.09875745977478799  1.0000
  C   C108      1.0  0.9655778622865796  0.5078986752316936  0.40124411917518904  1.0000
  C   C109      1.0  0.16034221124930073  0.012978015253281702  0.0725210486893815  1.0000
  C   C110      1.0  0.33965377022337867  0.5129782357810485  0.42747984113218246  1.0000
  C   C111      1.0  0.8396562939029196  0.9870222855273028  0.9274798593464055  1.0000
  C   C112      1.0  0.6603417700502803  0.48702380488396824  0.5725217121080988  1.0000
  C   C113      1.0  0.20726201644615116  0.0118036887796862  0.024909424340478395  1.0000
  C   C114      1.0  0.2927378957081359  0.5118041469414436  0.47508936203004026  1.0000
  C   C115      1.0  0.7927384626159864  0.9881974819489799  0.9750904316979288  1.0000
  C   C116      1.0  0.7072596152308606  0.4881965888107516  0.5249103929806509  1.0000
  C   C117      1.0  0.24959174855013797  0.9590037410058513  0.005637032259855298  1.0000
  C   C118      1.0  0.25040876095345505  0.45900235390092786  0.49436395694588947  1.0000
  C   C119      1.0  0.7504087337438818  0.040997864694603  0.9943635700111528  1.0000
  C   C120      1.0  0.7495877638409424  0.5409983818493842  0.5056365106215636  1.0000
  C   C121      1.0  0.23908414112346324  0.9091584934257424  0.0352075070396438  1.0000
  C   C122      1.0  0.26091564302389963  0.4091584803153054  0.4647938783460432  1.0000
  C   C123      1.0  0.7609173337630821  0.09084180735879241  0.9647938751403158  1.0000
  C   C124      1.0  0.7390838434361983  0.590842690412444  0.5352051977837107  1.0000
  C   C125      1.0  0.18880578257380878  0.9134415624121321  0.0820989609256202  1.0000
  C   C126      1.0  0.31119405758512647  0.4134417553412036  0.4179009300127845  1.0000
  C   C127      1.0  0.8111956858648168  0.0865600432902056  0.917900928788626  1.0000
  C   C128      1.0  0.6888054337275591  0.5865607203026498  0.582099265465736  1.0000
  C   C129      1.0  0.1374329084764909  0.1725384058766721  0.1054547526049348  1.0000
  C   C130      1.0  0.3625624304115007  0.6725387355087875  0.3945455892422061  1.0000
  C   C131      1.0  0.8625655966693841  0.8274610249593621  0.8945461554310584  1.0000
  C   C132      1.0  0.637438050261821  0.3274620002473582  0.6054546399126509  1.0000
  C   C133      1.0  0.16903892784629448  0.12226915669344153  0.08043529899056519  1.0000
  C   C134      1.0  0.33095468365983993  0.6222693626700605  0.4195639130917002  1.0000
  C   C135      1.0  0.8309615447457191  0.8777302741470905  0.9195630645828244  1.0000
  C   C136      1.0  0.669040856613826  0.377732677994949  0.5804376401485811  1.0000
  C   C137      1.0  0.12271393143035432  0.06831468384766741  0.0959678731930467  1.0000
  C   C138      1.0  0.3772828522687206  0.5683146082763884  0.40403187167468246  1.0000
  C   C139      1.0  0.8772855598728169  0.9316864868793574  0.9040323222857722  1.0000
  C   C140      1.0  0.6227146635260398  0.4316878673641824  0.5959690026846687  1.0000
  C   C141      1.0  0.0429170990505838  0.0683767439935892  0.1360255052851471  1.0000
  C   C142      1.0  0.45708561858909047  0.5683799950163291  0.3639736953760178  1.0000
  C   C143      1.0  0.9570843758105807  0.9316200770127381  0.8639758768956156  1.0000
  C   C144      1.0  0.5429148701655323  0.4316220456554305  0.6360283993603063  1.0000
  C   C145      1.0  0.014197681211506096  0.1206255576510387  0.158763452368504  1.0000
  C   C146      1.0  0.4858008677134436  0.6206250062800011  0.3412392869013274  1.0000
  C   C147      1.0  0.9858047895089613  0.8793751781062017  0.8412394559527101  1.0000
  C   C148      1.0  0.5141986316678597  0.379377034390359  0.6587627741590582  1.0000
  C   C149      1.0  0.15658149634412408  0.8212033944946172  0.196983226529639  1.0000
  C   C150      1.0  0.3434229363904819  0.32120252620833883  0.3030172822605479  1.0000
  C   C151      1.0  0.843425913174329  0.17879777624310833  0.8030179845894025  1.0000
  C   C152      1.0  0.6565755623043118  0.6787977745732191  0.6969821333098308  1.0000
  C   C153      1.0  0.15801790489360462  0.8695009987442576  0.1658191667564211  1.0000
  C   C154      1.0  0.3419882216257832  0.36950052029586533  0.33418135336182087  1.0000
  C   C155      1.0  0.8419875258623504  0.1304979971292823  0.834181977011248  1.0000
  C   C156      1.0  0.6580142329352442  0.6304980406024258  0.6658178237963597  1.0000
  C   C157      1.0  0.18221722076660998  0.8620813095006952  0.1154953933068583  1.0000
  C   C158      1.0  0.31778286290871444  0.3620802603770414  0.38450530130539556  1.0000
  C   C159      1.0  0.8177862280203241  0.13791855631508554  0.88450493687602  1.0000
  C   C160      1.0  0.6822186087395963  0.6379187354911551  0.6154953346421621  1.0000
  C   C161      1.0  0.20201269828746146  0.8049955871215178  0.09914007818407099  1.0000
  C   C162      1.0  0.29798160271716506  0.3049953295862267  0.4008597282297472  1.0000
  C   C163      1.0  0.7979897595118005  0.1950042786931121  0.9008598452065186  1.0000
  C   C164      1.0  0.7020178885796611  0.6950049711962479  0.5991404672492706  1.0000
  C   C165      1.0  0.19945975276996816  0.7590894571468852  0.1328846505223851  1.0000
  C   C166      1.0  0.3005358606776625  0.25908881637863596  0.3671159907173375  1.0000
  C   C167      1.0  0.8005407295145373  0.24091084363674042  0.8671159517489286  1.0000
  C   C168      1.0  0.6994665971120783  0.740909744519165  0.6328839326735434  1.0000
  N   N1        1.0  0.5213743198642646  0.9333128211087003  0.8299513221294533  1.0000
  N   N2        1.0  0.9786229494358663  0.4333125159258699  0.6700476623629115  1.0000
  N   N3        1.0  0.4786281395493504  0.06668704470568798  0.1700489743774867  1.0000
  N   N4        1.0  0.0213735721234656  0.5666873498803754  0.3299520589720402  1.0000
  N   N5        1.0  0.6180277226080264  0.8849862733306043  0.7717147935112224  1.0000
  N   N6        1.0  0.8819718099755678  0.38498517908735164  0.7282843143703346  1.0000
  N   N7        1.0  0.38197275644776596  0.1150140274535048  0.2282850625273838  1.0000
  N   N8        1.0  0.11802866583881409  0.6150133818081401  0.2717147954359689  1.0000
  N   N9        1.0  0.15046419420590948  0.9647038481370133  0.10027663774562971  1.0000
  N   N10       1.0  0.349534414851945  0.46470374007655124  0.3997231621213899  1.0000
  N   N11       1.0  0.8495343077175976  0.03529645264405451  0.8997235240574568  1.0000
  N   N12       1.0  0.6504640854635397  0.5352974306493153  0.6002766265651401  1.0000
  N   N13       1.0  0.0619027526638831  0.1719297457772342  0.1441735743761754  1.0000
  N   N14       1.0  0.4380985103632895  0.6719307781600179  0.3558262235753631  1.0000
  N   N15       1.0  0.9380997067465557  0.8280696850648751  0.8558267221308641  1.0000
  N   N16       1.0  0.56190197677698  0.3280712625119833  0.6441754980446106  1.0000
  N   N17       1.0  0.1781797602110586  0.766882793103214  0.1811761178179268  1.0000
  N   N18       1.0  0.3218199243914767  0.2668818420079475  0.318824654519574  1.0000
  N   N19       1.0  0.8218236918045961  0.2331170727120835  0.8188249585976592  1.0000
  N   N20       1.0  0.6781805514229049  0.7331167188875439  0.6811744552867296  1.0000
  O   O1        1.0  0.29547648255862674  0.234344213419817  0.20426216023645338  1.0000
  O   O2        1.0  0.2045217413391427  0.7343442194180696  0.2957393397135277  1.0000
  O   O3        1.0  0.7045239900111824  0.7656521726147787  0.7957362033376468  1.0000
  O   O4        1.0  0.7954797383650956  0.26565260158752574  0.7042631618162999  1.0000
  O   O5        1.0  0.17681248086622503  0.3009461575638284  0.15951686285639968  1.0000
  O   O6        1.0  0.3231807797872648  0.8009473152439384  0.34048477733663424  1.0000
  O   O7        1.0  0.8231879755409747  0.6990476186395397  0.8404777695547666  1.0000
  O   O8        1.0  0.676814765304094  0.19905124564213142  0.6595178952535079  1.0000
  O   O9        1.0  0.4008415493851132  0.44128556729558716  0.0563209697678104  1.0000
  O   O10       1.0  0.0991616553259504  0.9412885559270234  0.4436767706159372  1.0000
  O   O11       1.0  0.59916682686125  0.5587095138350622  0.943675051399623  1.0000
  O   O12       1.0  0.9008398131253657  0.058714789664414  0.5563231190979039  1.0000
  O   O13       1.0  0.6175430878028011  0.4271510269836726  0.04453617998407109  1.0000
  O   O14       1.0  0.8824622050535424  0.9271495936637992  0.4554641529769654  1.0000
  O   O15       1.0  0.3824672768763476  0.5728440541483126  0.9554621472333692  1.0000
  O   O16       1.0  0.1175392601405036  0.07284983717764248  0.5445349905050705  1.0000
  O   O17       1.0  0.8799268716731133  0.29222249248452675  0.16000940466494737  1.0000
  O   O18       1.0  0.6200734706493874  0.7922230677748631  0.3399875316534349  1.0000
  O   O19       1.0  0.1200765674371951  0.7077786782495467  0.8399886868195026  1.0000
  O   O20       1.0  0.3799250296883088  0.20778114775693976  0.660012257032392  1.0000
  O   O21       1.0  0.7719383093704622  0.20894862497175384  0.1753483348940108  1.0000
  O   O22       1.0  0.7280628068584604  0.7089495304357101  0.3246509460059599  1.0000
  O   O23       1.0  0.22807109503821013  0.7910525457663339  0.8246566747404458  1.0000
  O   O24       1.0  0.2719297443117483  0.2910529452005477  0.6753456556937962  1.0000
  O   O25       1.0  0.1611581436267713  0.16084844044343782  0.2871459814077326  1.0000
  O   O26       1.0  0.33883999127598946  0.6608493760625221  0.21285409375980183  1.0000
  O   O27       1.0  0.8388433086619286  0.8391522953167794  0.7128501771431743  1.0000
  O   O28       1.0  0.6611664256436002  0.33915222964655817  0.7871463374504942  1.0000
  O   O29       1.0  0.0235379846846371  0.23248341325860622  0.2550621859000586  1.0000
  O   O30       1.0  0.4764631769649057  0.7324833967871245  0.2449386697060447  1.0000
  O   O31       1.0  0.9764615017754608  0.7675177574691432  0.7449368902297024  1.0000
  O   O32       1.0  0.5235343275515517  0.2675221236610811  0.7550595928381227  1.0000
  O   O33       1.0  0.5484219810802243  0.20847455275909973  0.276553423834315  1.0000
  O   O34       1.0  0.9515751868587043  0.7084718832995803  0.22344945374563  1.0000
  O   O35       1.0  0.45157652730388514  0.7915261829932734  0.7234482304340801  1.0000
  O   O36       1.0  0.0484262799433637  0.2915266775970623  0.7765500628529622  1.0000
  O   O37       1.0  0.48167936674452955  0.1518340671545175  0.33714067095937134  1.0000
  O   O38       1.0  0.018312710106790996  0.6518315386513862  0.162861445022493  1.0000
  O   O39       1.0  0.5183161702813877  0.8481653636773246  0.6628601360487991  1.0000
  O   O40       1.0  0.9816877689236206  0.3481652823545147  0.837138411016916  1.0000
  O   O41       1.0  0.0442748507994182  0.06255705302864101  0.43818356367002304  1.0000
  O   O42       1.0  0.4557060431668418  0.5625567830241354  0.0618212417921526  1.0000
  O   O43       1.0  0.9557404721102786  0.9374467275541606  0.561817543739572  1.0000
  O   O44       1.0  0.5442746742363908  0.43744134286674813  0.9381839105898423  1.0000
  O   O45       1.0  0.8279315803431543  0.05011187256173601  0.45112463664074903  1.0000
  O   O46       1.0  0.6720464360175173  0.550116025004037  0.0488725180937308  1.0000
  O   O47       1.0  0.17208472868260566  0.9498879932724622  0.5488757582129793  1.0000
  O   O48       1.0  0.327931268114483  0.4498890604458835  0.9511220860009287  1.0000
  O   O49       1.0  0.16469312501912012  0.5100143518032852  0.0198504983989594  1.0000
  O   O50       1.0  0.335307755262015  0.0100158369451577  0.48014944182426683  1.0000
  O   O51       1.0  0.8353073556319899  0.4899833391469245  0.9801497307566082  1.0000
  O   O52       1.0  0.6646877785383581  0.9899840288594389  0.5198506189511036  1.0000
