data_image0
_chemical_formula_structural       Al2H14C24N2O10F2
_chemical_formula_sum              "Al2 H14 C24 N2 O10 F2"
_cell_length_a       6.659881995995706
_cell_length_b       11.134146690171159
_cell_length_c       17.71073146596169
_cell_angle_alpha    84.43827739867564
_cell_angle_beta     78.86093720508971
_cell_angle_gamma    73.39416144467599

_space_group_name_H-M_alt    "P 1"
_space_group_IT_number       1

loop_
  _space_group_symop_operation_xyz
  'x, y, z'

loop_
  _atom_site_type_symbol
  _atom_site_label
  _atom_site_symmetry_multiplicity
  _atom_site_fract_x
  _atom_site_fract_y
  _atom_site_fract_z
  _atom_site_occupancy
  Al  Al1       1.0  0.49879152860457066  0.5164812454425485  0.49977143081136427  1.0000
  Al  Al2       1.0  0.9984129691289921  0.518660675632269  0.49944057280158927  1.0000
  H   H1        1.0  0.20844700209053002  0.6599742600463756  0.4457200638534217  1.0000
  H   H2        1.0  0.7898278956952964  0.37804769362973184  0.556867136930606  1.0000
  H   H3        1.0  0.7540677646232937  0.14399074173076087  0.45633164357941786  1.0000
  H   H4        1.0  0.23996366319451565  0.8911786251154866  0.5409784795655171  1.0000
  H   H5        1.0  0.5927652905356877  0.418584363314892  0.2807920441873435  1.0000
  H   H6        1.0  0.6654672906888666  0.3879229006996781  0.13864042385385034  1.0000
  H   H7        1.0  0.17575801800283858  0.5224958658994793  0.26007339704850807  1.0000
  H   H8        1.0  0.7917113716159891  0.5624826320757704  0.7342783336607965  1.0000
  H   H9        1.0  0.4671930160569176  0.4385964029239915  0.7296510256374447  1.0000
  H   H10       1.0  0.4051545798926028  0.4029597031457398  0.8730515072024757  1.0000
  H   H11       1.0  0.28243691411486094  0.5162556445782227  0.04943670457403471  1.0000
  H   H12       1.0  0.36069147155440384  0.5559723025631483  0.12846994527757258  1.0000
  H   H13       1.0  0.6662913842857351  0.5456309140874467  0.945171839121393  1.0000
  H   H14       1.0  0.5617492061990319  0.5909302915834189  0.8621043989005628  1.0000
  C   C1        1.0  0.8336516135099715  0.4969464345589642  0.3615755939351715  1.0000
  C   C2        1.0  0.6352260088264717  0.7441249212678896  0.4997427725266376  1.0000
  C   C3        1.0  0.16916710814883365  0.5179987608208664  0.6388176768970979  1.0000
  C   C4        1.0  0.3607021475345817  0.2907951652102269  0.4987350866439472  1.0000
  C   C5        1.0  0.5686119691883962  0.8843770243157039  0.4983383097536205  1.0000
  C   C6        1.0  0.4256442528935053  0.15066165483054308  0.4990263470808074  1.0000
  C   C7        1.0  0.7093079742203302  0.9591959403086889  0.47441664243748966  1.0000
  C   C8        1.0  0.2847425990992036  0.07595630626310165  0.522618020298772  1.0000
  C   C9        1.0  0.6406677804301849  0.0888485327857182  0.4747881748646209  1.0000
  C   C10       1.0  0.35344583232365795  0.9462390473418267  0.5223487307995356  1.0000
  C   C11       1.0  0.8796749072028973  0.47413364885251497  0.2775548829042549  1.0000
  C   C12       1.0  0.7343075330972086  0.4355448626191532  0.2442084060385952  1.0000
  C   C13       1.0  0.7744749721641354  0.41952685335916595  0.1654946504497659  1.0000
  C   C14       1.0  0.9544243579960751  0.4458562022797421  0.11809754898184376  1.0000
  C   C15       1.0  0.10395158081119157  0.4825654255465395  0.1523655593153919  1.0000
  C   C16       1.0  0.06451844472131545  0.4942639569694904  0.23239822409295388  1.0000
  C   C17       1.0  0.9866343545606783  0.44352933929220467  0.037044668963325526  1.0000
  C   C18       1.0  0.027492380268896065  0.45143628670169267  0.9664968225958219  1.0000
  C   C19       1.0  0.06319937809027466  0.46606068251943356  0.8853769180934278  1.0000
  C   C20       1.0  0.8857840150109978  0.5124203410540531  0.8462867009843222  1.0000
  C   C21       1.0  0.924265612566991  0.5289404565015872  0.7657712912420109  1.0000
  C   C22       1.0  0.13195715413475992  0.5032644533575449  0.7245823439650181  1.0000
  C   C23       1.0  0.30684887421605844  0.45885989743830163  0.7630528421531935  1.0000
  C   C24       1.0  0.2714897999066324  0.43931610502222895  0.8424248854278105  1.0000
  N   N1        1.0  0.28401729156295386  0.5041744533362829  0.10690210315517128  1.0000
  N   N2        1.0  0.6818819890599811  0.5361827737890792  0.8877420776019989  1.0000
  O   O1        1.0  0.6397073234145979  0.5173482884779688  0.39454954436157413  1.0000
  O   O2        1.0  0.832760513799251  0.6895640382453079  0.49271560826767313  1.0000
  O   O3        1.0  0.008211341866236071  0.5380607543288817  0.6055998843316175  1.0000
  O   O4        1.0  0.5105298472120198  0.34320898190212284  0.4905083156449308  1.0000
  O   O5        1.0  0.3609855150109738  0.5060585629417886  0.6050751801645475  1.0000
  O   O6        1.0  0.16350226799084316  0.346789253747005  0.5067946085557011  1.0000
  O   O7        1.0  0.9894971525452974  0.49686328185311623  0.3936085447602338  1.0000
  O   O8        1.0  0.4870435790334967  0.6902255315912027  0.5080967479829042  1.0000
  O   O9        1.0  0.2402458750904871  0.5734706137202394  0.46533039548440064  1.0000
  O   O10       1.0  0.7577621106543048  0.46248583933952164  0.5339113543718312  1.0000
  F   F1        1.0  0.9197985881703944  0.9069694423179795  0.4487120148483896  1.0000
  F   F2        1.0  0.07416378942607342  0.1284471798277664  0.5480437654799957  1.0000
