data_image0
_chemical_formula_structural       MnH12C18N6
_chemical_formula_sum              "Mn1 H12 C18 N6"
_cell_length_a       5.37532685813732
_cell_length_b       9.286281616896773
_cell_length_c       11.844790253112066
_cell_angle_alpha    96.90943737843112
_cell_angle_beta     95.92120180872287
_cell_angle_gamma    98.25421688999364

_space_group_name_H-M_alt    "P 1"
_space_group_IT_number       1

loop_
  _space_group_symop_operation_xyz
  'x, y, z'

loop_
  _atom_site_type_symbol
  _atom_site_label
  _atom_site_symmetry_multiplicity
  _atom_site_fract_x
  _atom_site_fract_y
  _atom_site_fract_z
  _atom_site_occupancy
  Mn  Mn1       1.0  2.299141331719803e-05  4.620738268809996e-05  0.999652284069015  1.0000
  H   H1        1.0  0.18205486759401873  0.2978651142420857  0.8984266373015262  1.0000
  H   H2        1.0  0.3712548561449081  0.5560052520201565  0.8953547808598332  1.0000
  H   H3        1.0  0.3293512331761476  0.8952715261529889  0.7936785277854671  1.0000
  H   H4        1.0  0.31767596400445086  0.877753218346548  0.5848485646614777  1.0000
  H   H5        1.0  0.7317829976733208  0.1303550466500809  0.7953845753415083  1.0000
  H   H6        1.0  0.6972036844302777  0.12912479268742058  0.5855145941115014  1.0000
  H   H7        1.0  0.8179083601366273  0.7021502530930589  0.10157927376094734  1.0000
  H   H8        1.0  0.6287124862031277  0.44398014187810025  0.10464226745443742  1.0000
  H   H9        1.0  0.670629627318398  0.10473008945493939  0.20635593299613936  1.0000
  H   H10       1.0  0.68229941991477  0.12222932202917042  0.4151689411801059  1.0000
  H   H11       1.0  0.26820854944286754  0.8696387839449499  0.20465151851181676  1.0000
  H   H12       1.0  0.3027382753637652  0.8708716294445934  0.414513255383696  1.0000
  C   C1        1.0  0.10094581005996162  0.3863179549283516  0.9424425537459131  1.0000
  C   C2        1.0  0.5601321222557586  0.1713842304018272  0.026218557664108702  1.0000
  C   C3        1.0  0.20695935053987563  0.5316942072532385  0.9408004683600456  1.0000
  C   C4        1.0  0.005170095387207101  0.0022482859578402954  0.5629437892250452  1.0000
  C   C5        1.0  0.8918693539085679  0.35200702521859745  0.0017005008021086924  1.0000
  C   C6        1.0  0.18852592872173077  0.9439542926078129  0.7443428040000769  1.0000
  C   C7        1.0  0.18179427195803996  0.935699232536187  0.6260384494030831  1.0000
  C   C8        1.0  0.8575190263625669  0.0754119434716216  0.744452122088781  1.0000
  C   C9        1.0  0.8399276568156963  0.07358543485192111  0.6263483348573474  1.0000
  C   C10       1.0  0.8990607351458522  0.6136995896307199  0.05758262812718582  1.0000
  C   C11       1.0  0.439998280928229  0.8286046996161714  0.9738217180735875  1.0000
  C   C12       1.0  0.7930506049147964  0.4683101459581067  0.0592264013496262  1.0000
  C   C13       1.0  0.994785434715055  0.9977298180947968  0.4370630701477368  1.0000
  C   C14       1.0  0.10814918890429934  0.6480002912215284  0.9983177475457625  1.0000
  C   C15       1.0  0.8114772931712082  0.056028189127495395  0.2556854087215968  1.0000
  C   C16       1.0  0.8181666397096876  0.06427409133257808  0.37399787182251754  1.0000
  C   C17       1.0  0.1424296218427514  0.9245875303179789  0.2555695492744548  1.0000
  C   C18       1.0  0.16001287760356314  0.9263947464025222  0.3736883198999551  1.0000
  N   N1        1.0  0.029553292393721592  0.0126562060220934  0.8039184178899393  1.0000
  N   N2        1.0  0.3540314802860535  0.1308215575962279  0.05021979301170631  1.0000
  N   N3        1.0  0.7867018435923754  0.20301881809374578  0.0015426161026752987  1.0000
  N   N4        1.0  0.9704548790727684  0.9873634103283634  0.19606140584386372  1.0000
  N   N5        1.0  0.6460840086673088  0.8692311484288169  0.9498550521152824  1.0000
  N   N6        1.0  0.2133509623371309  0.7969660831421024  0.9983928917784727  1.0000
