data_image0
_chemical_formula_structural       Ag4P4H24C28O20
_chemical_formula_sum              "Ag4 P4 H24 C28 O20"
_cell_length_a       4.5642610778126524
_cell_length_b       5.61259962003326
_cell_length_c       33.13093005357203
_cell_angle_alpha    89.99996703009116
_cell_angle_beta     95.28163670896302
_cell_angle_gamma    90.00041436452818

_space_group_name_H-M_alt    "P 1"
_space_group_IT_number       1

loop_
  _space_group_symop_operation_xyz
  'x, y, z'

loop_
  _atom_site_type_symbol
  _atom_site_label
  _atom_site_symmetry_multiplicity
  _atom_site_fract_x
  _atom_site_fract_y
  _atom_site_fract_z
  _atom_site_occupancy
  Ag  Ag1       1.0  0.5564724199605352  0.3162880405416857  0.2648507391902868  1.0000
  Ag  Ag2       1.0  0.943538496905049  0.8162625717480624  0.2351529262689596  1.0000
  Ag  Ag3       1.0  0.44352763194761036  0.6837426137019521  0.7351500925965411  1.0000
  Ag  Ag4       1.0  0.056468000720130404  0.18373601181694718  0.764846165789443  1.0000
  P   P1        1.0  0.5042553874411908  0.8409431058423992  0.3139459768090802  1.0000
  P   P2        1.0  0.9957469885555668  0.3409055178115424  0.18605819470970178  1.0000
  P   P3        1.0  0.4957512391138438  0.15909289353844966  0.6860546259421696  1.0000
  P   P4        1.0  0.004242062555938679  0.6590859388757907  0.8139425152390699  1.0000
  H   H1        1.0  0.37843838674365327  0.8611507366117979  0.39962572234890814  1.0000
  H   H2        1.0  0.12157063937707592  0.3611003234279693  0.1003800309482301  1.0000
  H   H3        1.0  0.6215484900787301  0.13886031882981345  0.6003752653705234  1.0000
  H   H4        1.0  0.8784404386157262  0.6388590626264731  0.8996212248170039  1.0000
  H   H5        1.0  0.8413548672075778  0.12612545269235653  0.512951005053587  1.0000
  H   H6        1.0  0.6586497925620308  0.6260995038190631  0.9870507924519102  1.0000
  H   H7        1.0  0.1586669283739965  0.8738945113876826  0.4870470490238716  1.0000
  H   H8        1.0  0.3413615687289139  0.37385988223292094  0.012953786838828299  1.0000
  H   H9        1.0  0.10507848759293381  0.21430170244522637  0.3843462069806378  1.0000
  H   H10       1.0  0.3949004652544517  0.7142743919636844  0.1156565147373243  1.0000
  H   H11       1.0  0.8949212294330947  0.7857111347456325  0.6156506970035878  1.0000
  H   H12       1.0  0.6050798626603823  0.28572775492936137  0.8843450041564153  1.0000
  H   H13       1.0  0.0656137985672274  0.005899110976962202  0.31737821220178825  1.0000
  H   H14       1.0  0.434380738070125  0.505871909473285  0.1826216893861741  1.0000
  H   H15       1.0  0.9344014481594414  0.9941244164934986  0.6826203730497938  1.0000
  H   H16       1.0  0.5656060099051601  0.49412132891375654  0.8173777876401189  1.0000
  H   H17       1.0  0.9521916483865881  0.4729884222752575  0.3258286639755141  1.0000
  H   H18       1.0  0.5478029648041202  0.972955291039  0.1741744996550239  1.0000
  H   H19       1.0  0.047805997330222276  0.5270351051411383  0.6741697263342343  1.0000
  H   H20       1.0  0.45217285986331046  0.027052200958131305  0.8258257619484509  1.0000
  H   H21       1.0  0.5409503815005722  0.6027700188795394  0.4581907051236058  1.0000
  H   H22       1.0  0.9590434861098774  0.10273783914650643  0.0418146090637279  1.0000
  H   H23       1.0  0.4590407409728031  0.39722321952124434  0.5418085184994581  1.0000
  H   H24       1.0  0.040981050138952896  0.8972108567128317  0.9581898142948617  1.0000
  C   C1        1.0  0.5381838408420236  0.7203412597124199  0.39612615686433367  1.0000
  C   C2        1.0  0.9618130651498974  0.22032144444937535  0.10387736529581558  1.0000
  C   C3        1.0  0.4618204309627245  0.27967157749061045  0.6038726086874391  1.0000
  C   C4        1.0  0.03819568408771091  0.7796717940052466  0.896122355407762  1.0000
  C   C5        1.0  0.8278842649808382  0.3897466558293061  0.4245821081220882  1.0000
  C   C6        1.0  0.6721139684450251  0.889739432999612  0.0754202003498463  1.0000
  C   C7        1.0  0.17213740179123962  0.6102643997240096  0.5754144352620898  1.0000
  C   C8        1.0  0.3278817345539196  0.11025202370755241  0.9245811869794807  1.0000
  C   C9        1.0  0.6471842147422392  0.6804278653306995  0.3584694725302526  1.0000
  C   C10       1.0  0.8528231744924284  0.18038592208127824  0.1415320577075505  1.0000
  C   C11       1.0  0.3528024303058004  0.31958675352406374  0.641528795940985  1.0000
  C   C12       1.0  0.1471766969319859  0.8195966261135652  0.8584666591092258  1.0000
  C   C13       1.0  0.9452969039884563  0.35530668641756347  0.3873931944897819  1.0000
  C   C14       1.0  0.5546834117808146  0.8552772845889509  0.1126086179455754  1.0000
  C   C15       1.0  0.0547029675939186  0.6447132775942352  0.6126055223264331  1.0000
  C   C16       1.0  0.4453012648401258  0.14471595379021102  0.887392345406397  1.0000
  C   C17       1.0  0.9134372616562628  0.22265319241297027  0.45822220802510566  1.0000
  C   C18       1.0  0.5865727100413595  0.7226223475091303  0.0417796474394407  1.0000
  C   C19       1.0  0.0865843793388663  0.7773525180238609  0.5417740332204701  1.0000
  C   C20       1.0  0.4134299022534123  0.2773370385153698  0.9582254386577488  1.0000
  C   C21       1.0  0.8566216365327294  0.5001234746882731  0.3545413673978572  1.0000
  C   C22       1.0  0.6433796755449138  9.270428522970003e-05  0.1454583067357831  1.0000
  C   C23       1.0  0.14336736319037163  0.4998964892886094  0.6454587382731205  1.0000
  C   C24       1.0  0.35659819468487813  0.9999058791921628  0.85454016640346  1.0000
  C   C25       1.0  0.6286069544354973  0.5755850547106861  0.429085785462938  1.0000
  C   C26       1.0  0.8714128534555314  0.07557543842394672  0.0709171027124071  1.0000
  C   C27       1.0  0.37139734303336525  0.4244064020252978  0.5709132822278419  1.0000
  C   C28       1.0  0.12860694785428708  0.9244017647138848  0.9290833441074184  1.0000
  O   O1        1.0  0.3495397045914714  0.6696904656175564  0.2831723835259226  1.0000
  O   O2        1.0  0.15046315026397392  0.16967206760860884  0.2168315140047739  1.0000
  O   O3        1.0  0.6504712191759552  0.3303401886609906  0.7168270594061352  1.0000
  O   O4        1.0  0.8495259523713231  0.830322952489411  0.7831698002213088  1.0000
  O   O5        1.0  0.7819199779662327  0.25743520966802447  0.4915716885235497  1.0000
  O   O6        1.0  0.7180684921570234  0.757396333897141  0.008432339319327303  1.0000
  O   O7        1.0  0.21809736592933862  0.7426025714546403  0.5084257125408129  1.0000
  O   O8        1.0  0.2819560698536989  0.24255414366754022  0.9915723861779214  1.0000
  O   O9        1.0  0.0941510526981091  0.058568059924986905  0.4542760139763189  1.0000
  O   O10       1.0  0.40581972726126037  0.5585391754021816  0.0457236179706726  1.0000
  O   O11       1.0  0.9058486128492549  0.9414519040885955  0.5457202857304323  1.0000
  O   O12       1.0  0.5941716784651235  0.4414433727627199  0.9542789291780595  1.0000
  O   O13       1.0  0.2824150315849677  0.031898415956654  0.3283227732350866  1.0000
  O   O14       1.0  0.21757985339263541  0.5318805900547475  0.17167863825831375  1.0000
  O   O15       1.0  0.7175825882947252  0.9681055126987064  0.671675314936273  1.0000
  O   O16       1.0  0.7824048232583821  0.46811977514669684  0.828322325093552  1.0000
  O   O17       1.0  0.7606069924566513  0.9804532405154945  0.2973035964456443  1.0000
  O   O18       1.0  0.739378883324008  0.480435419085417  0.2026994694875484  1.0000
  O   O19       1.0  0.2393907819869128  0.019559596666368907  0.7026963045576764  1.0000
  O   O20       1.0  0.260594741179581  0.5195631643771181  0.7973007677483323  1.0000
