data_image0
_chemical_formula_structural       Na2H14C8O12
_chemical_formula_sum              "Na2 H14 C8 O12"
_cell_length_a       6.039295403145066
_cell_length_b       6.411159343599968
_cell_length_c       9.210907809349662
_cell_angle_alpha    96.44578516426465
_cell_angle_beta     95.98790079098097
_cell_angle_gamma    115.39098910002704

_space_group_name_H-M_alt    "P 1"
_space_group_IT_number       1

loop_
  _space_group_symop_operation_xyz
  'x, y, z'

loop_
  _atom_site_type_symbol
  _atom_site_label
  _atom_site_symmetry_multiplicity
  _atom_site_fract_x
  _atom_site_fract_y
  _atom_site_fract_z
  _atom_site_occupancy
  Na  Na1       1.0  0.7557397357405408  0.48182845084155457  0.10030897322749872  1.0000
  Na  Na2       1.0  0.24425621747921872  0.5181686717831724  0.8996940478948616  1.0000
  H   H1        1.0  0.1311658344647881  0.2629742751989212  0.4255790622190219  1.0000
  H   H2        1.0  0.8688393258298389  0.7370316502693866  0.574429566724625  1.0000
  H   H3        1.0  0.024842653166032784  0.19635107931229354  0.113231450967632  1.0000
  H   H4        1.0  0.9751583064831663  0.8036529186766329  0.8867658894184276  1.0000
  H   H5        1.0  0.8215167477822121  0.08978336811146898  0.9658778139346185  1.0000
  H   H6        1.0  0.17848924763812576  0.9102276484932756  0.03412145804212227  1.0000
  H   H7        1.0  0.36364217026088147  0.6371325488970357  0.2073027758711632  1.0000
  H   H8        1.0  0.636356246343226  0.3628661276404657  0.7926907559064489  1.0000
  H   H9        1.0  0.543457062245551  0.8494900168060082  0.1507107994206507  1.0000
  H   H10       1.0  0.4565372082048356  0.1505069982908225  0.8492855809780623  1.0000
  H   H11       1.0  0.5072683311275412  0.29862576538861424  0.522179527134476  1.0000
  H   H12       1.0  0.4927258806014195  0.7013642057792993  0.47781635676467005  1.0000
  H   H13       1.0  0.7445201157700723  0.020369225238241  0.3732471052814219  1.0000
  H   H14       1.0  0.255478317600705  0.9796295331573218  0.6267507763973299  1.0000
  C   C1        1.0  0.3666847930124036  0.1424624047552072  0.29535915139297947  1.0000
  C   C2        1.0  0.6333177823014039  0.8575346159036668  0.7046421582665872  1.0000
  C   C3        1.0  0.47049077744950546  0.13453581725453737  0.45122544717824553  1.0000
  C   C4        1.0  0.5295110047313756  0.865469831764436  0.5487666378922569  1.0000
  C   C5        1.0  0.6936452669336503  0.0765417756158655  0.47580229074658587  1.0000
  C   C6        1.0  0.30635651101752615  0.9234570955129089  0.5242034350030451  1.0000
  C   C7        1.0  0.9163859398050105  0.2676406264885642  0.5782959104657975  1.0000
  C   C8        1.0  0.08362924169380655  0.7323723332114936  0.4217182601102182  1.0000
  O   O1        1.0  0.46613603772791384  0.11628768513880769  0.18548756071118797  1.0000
  O   O2        1.0  0.5338690554809703  0.8837145341843994  0.81451103270512  1.0000
  O   O3        1.0  0.17127974950966526  0.17800013738506243  0.28580073943539475  1.0000
  O   O4        1.0  0.8287287596140872  0.8220160574194963  0.7141947288227968  1.0000
  O   O5        1.0  0.13339875459567452  0.34400862897761897  0.5343330070283656  1.0000
  O   O6        1.0  0.8666029227173624  0.6559829935770835  0.4656613474688456  1.0000
  O   O7        1.0  0.8988811549497485  0.3528990761833768  0.7020272100094402  1.0000
  O   O8        1.0  0.10110729492285492  0.6470894534482312  0.2979822813917039  1.0000
  O   O9        1.0  0.9550178043314903  0.23622997912667643  0.024139254068771328  1.0000
  O   O10       1.0  0.04498063742263969  0.7637688201979242  0.975860802560547  1.0000
  O   O11       1.0  0.49820690812566687  0.6819428088694011  0.1476137893872078  1.0000
  O   O12       1.0  0.501785725682744  0.31805770252206134  0.8523805484387807  1.0000
