data_image0
_chemical_formula_structural       Cd8H80C124N24O36
_chemical_formula_sum              "Cd8 H80 C124 N24 O36"
_cell_length_a       13.719137145402422
_cell_length_b       13.74635204924847
_cell_length_c       21.161703581665925
_cell_angle_alpha    89.99971548366368
_cell_angle_beta     103.39398237154653
_cell_angle_gamma    90.00007477052792

_space_group_name_H-M_alt    "P 1"
_space_group_IT_number       1

loop_
  _space_group_symop_operation_xyz
  'x, y, z'

loop_
  _atom_site_type_symbol
  _atom_site_label
  _atom_site_symmetry_multiplicity
  _atom_site_fract_x
  _atom_site_fract_y
  _atom_site_fract_z
  _atom_site_occupancy
  Cd  Cd1       1.0  0.32771881876832504  0.4723670357636822  0.35230561867534493  1.0000
  Cd  Cd2       1.0  0.6722958715434475  0.9723807807109283  0.14770490946335713  1.0000
  Cd  Cd3       1.0  0.6722920879626457  0.5276342815661155  0.6476994476994307  1.0000
  Cd  Cd4       1.0  0.3277090700402354  0.027637995816356006  0.8522998624802794  1.0000
  Cd  Cd5       1.0  0.026666208988622504  0.3203115968669224  0.7176899841676345  1.0000
  Cd  Cd6       1.0  0.9733378956539627  0.820311613707709  0.7823079343007251  1.0000
  Cd  Cd7       1.0  0.9733336249203505  0.6796744437230869  0.2823027830846243  1.0000
  Cd  Cd8       1.0  0.026665471303523702  0.17967588179899963  0.21769521673383  1.0000
  H   H1        1.0  0.9430683206054553  0.4272197872656848  0.788590317686527  1.0000
  H   H2        1.0  0.0569382893559052  0.9272186951275715  0.7114110588320486  1.0000
  H   H3        1.0  0.0569368321095993  0.5727764378261426  0.211404552095523  1.0000
  H   H4        1.0  0.9430682266163403  0.0727680729019653  0.2885953341815508  1.0000
  H   H5        1.0  0.930751850987214  0.49778765937134045  0.7251365026233714  1.0000
  H   H6        1.0  0.06925224228927361  0.9977893587735454  0.7748631776110813  1.0000
  H   H7        1.0  0.0692540761840945  0.5022092931834621  0.2748589395908354  1.0000
  H   H8        1.0  0.9307556178009763  0.002203956443807401  0.22514055128918634  1.0000
  H   H9        1.0  0.166001774464327  0.39507065648604117  0.524425604752139  1.0000
  H   H10       1.0  0.8339897706661363  0.8950729499894693  0.9755768656660706  1.0000
  H   H11       1.0  0.8339907758138454  0.6049350257021616  0.4755700082807124  1.0000
  H   H12       1.0  0.16600329166521993  0.10493782445441015  0.024428269765579103  1.0000
  H   H13       1.0  0.8523632832846674  0.33589630680698696  0.5013841672909578  1.0000
  H   H14       1.0  0.1476273054736836  0.8359039025169467  0.9986090815570988  1.0000
  H   H15       1.0  0.14763340158496163  0.6640839140686412  0.4986053579989047  1.0000
  H   H16       1.0  0.8523587098643405  0.16407850078896052  0.0013894736788700366  1.0000
  H   H17       1.0  0.9681929286213348  0.40857197576364274  0.33412254005126835  1.0000
  H   H18       1.0  0.0318079632700403  0.9085739872835462  0.165875724363417  1.0000
  H   H19       1.0  0.0318046843830544  0.5914271592168348  0.6658704143480421  1.0000
  H   H20       1.0  0.968193829241514  0.09143023994062822  0.8341258056400136  1.0000
  H   H21       1.0  0.6895209061658321  0.25305822565641733  0.2213492699752564  1.0000
  H   H22       1.0  0.31047788986336416  0.7530604928786959  0.2786463559464636  1.0000
  H   H23       1.0  0.3104746138277719  0.7469234501528563  0.7786462522517041  1.0000
  H   H24       1.0  0.6895274933052633  0.24694591673133465  0.7213527988949835  1.0000
  H   H25       1.0  0.5350151032606618  0.31602089232734454  0.2511706077616154  1.0000
  H   H26       1.0  0.46498447281802413  0.8160294183692758  0.24883041147555926  1.0000
  H   H27       1.0  0.4649819400573989  0.6839658757367462  0.7488255831998245  1.0000
  H   H28       1.0  0.5350164428769021  0.18398644831017924  0.7511686415819341  1.0000
  H   H29       1.0  0.7145641809678269  0.4328956133697092  0.4281140039034668  1.0000
  H   H30       1.0  0.2854406634753772  0.9329076223437839  0.07188509450688939  1.0000
  H   H31       1.0  0.28544009487050204  0.567096246931385  0.5718783889733244  1.0000
  H   H32       1.0  0.7145520404212107  0.06710024224027221  0.9281133752439387  1.0000
  H   H33       1.0  0.4720389843453818  0.6016284487767936  0.47538599955857563  1.0000
  H   H34       1.0  0.5279715586608092  0.10163537518553771  0.024614890304334818  1.0000
  H   H35       1.0  0.5279688245469175  0.3983663213724571  0.5246167770968171  1.0000
  H   H36       1.0  0.4720178618565143  0.898385583790301  0.975391668016684  1.0000
  H   H37       1.0  0.20889963071580556  0.6951101669017493  0.34247758212654844  1.0000
  H   H38       1.0  0.7911042025936651  0.1951261710153105  0.15752329765979306  1.0000
  H   H39       1.0  0.791109855143951  0.30489842508972503  0.6575287199646525  1.0000
  H   H40       1.0  0.2088956826580173  0.8048969703263752  0.8424704217393284  1.0000
  H   H41       1.0  0.26176713343245694  0.834352723252373  0.43769881741911826  1.0000
  H   H42       1.0  0.7382317802825541  0.3343698622585336  0.0623010600386067  1.0000
  H   H43       1.0  0.7382572270541206  0.16565514122365954  0.5623075064599306  1.0000
  H   H44       1.0  0.26174971652039863  0.6656598263350946  0.9376964410760635  1.0000
  H   H45       1.0  0.5817726653244151  0.7295216349661333  0.5257932508934431  1.0000
  H   H46       1.0  0.4182340602264176  0.22953485948998062  0.9742112278376709  1.0000
  H   H47       1.0  0.41824366256209095  0.27047459008431224  0.47421582253230105  1.0000
  H   H48       1.0  0.5817461692936946  0.7704962840381738  0.02579036573175844  1.0000
  H   H49       1.0  0.5686052530042219  0.9134591595597288  0.6890886589890641  1.0000
  H   H50       1.0  0.43139436036887  0.41346365916391653  0.8109090639329963  1.0000
  H   H51       1.0  0.43140296549894686  0.08653124579161901  0.3109217356068186  1.0000
  H   H52       1.0  0.5685995596153433  0.5865449328832357  0.18908436111635749  1.0000
  H   H53       1.0  0.296128118943713  0.8308643777141784  0.5523716792402453  1.0000
  H   H54       1.0  0.7038745160837722  0.33087716294812713  0.9476250406750565  1.0000
  H   H55       1.0  0.7038848807079107  0.16913039241779879  0.44763081936790167  1.0000
  H   H56       1.0  0.2961117041853356  0.6691365213823134  0.0523773234460947  1.0000
  H   H57       1.0  0.7358394619822591  0.8115014111191173  0.540656345315412  1.0000
  H   H58       1.0  0.26416168351405395  0.31150476193116117  0.9593431371660229  1.0000
  H   H59       1.0  0.2641632841592383  0.1884933590462978  0.45934908999016943  1.0000
  H   H60       1.0  0.7358286202441633  0.6885103773190907  0.04065218690254108  1.0000
  H   H61       1.0  0.9258471288750487  0.8045127167566977  0.6236657094681135  1.0000
  H   H62       1.0  0.07415610825641751  0.30450720020145666  0.8763321930257888  1.0000
  H   H63       1.0  0.0741606288111143  0.19548132592726836  0.3763361149479607  1.0000
  H   H64       1.0  0.9258363395848905  0.6954904798646169  0.12366151554505932  1.0000
  H   H65       1.0  0.7092938587955118  0.8046785431838049  0.7366001337263626  1.0000
  H   H66       1.0  0.2907147751625985  0.30467528052443543  0.7634012988361576  1.0000
  H   H67       1.0  0.29072241787392983  0.1953140445384421  0.2634079874674526  1.0000
  H   H68       1.0  0.7092838171144038  0.6953253093829802  0.23659603695815426  1.0000
  H   H69       1.0  0.44488993614355377  0.8934666127565482  0.7584326862305701  1.0000
  H   H70       1.0  0.5551043619334664  0.39346886985059376  0.7415658925114244  1.0000
  H   H71       1.0  0.5551188520705281  0.10654270670274003  0.24157447178654218  1.0000
  H   H72       1.0  0.44489213744200384  0.6065433595147381  0.2584340110365702  1.0000
  H   H73       1.0  0.18044421216549716  0.054802832162941705  0.6886763902931675  1.0000
  H   H74       1.0  0.8195521447073163  0.5548060428563489  0.811312681464841  1.0000
  H   H75       1.0  0.8195483124180996  0.945178116190725  0.3113187466819696  1.0000
  H   H76       1.0  0.18045716187769764  0.4451858174249282  0.1886902878247909  1.0000
  H   H77       1.0  0.2520839838272195  0.9909666284529026  0.5833931791454319  1.0000
  H   H78       1.0  0.7479152835417653  0.4909798643651231  0.9166007205323224  1.0000
  H   H79       1.0  0.747916285261546  0.009006317750248601  0.4166076821900973  1.0000
  H   H80       1.0  0.2520872577970295  0.5090178156649686  0.08340090580117018  1.0000
  C   C1        1.0  0.0757432954824964  0.404595694797898  0.4261538065052832  1.0000
  C   C2        1.0  0.9242554224035332  0.9045983403838562  0.07384609366614112  1.0000
  C   C3        1.0  0.9242521221889675  0.595408532449824  0.5738398111819976  1.0000
  C   C4        1.0  0.0757427538629116  0.09540734178332143  0.9261573353694317  1.0000
  C   C5        1.0  0.091088826659913  0.3889012788782723  0.49318720704842184  1.0000
  C   C6        1.0  0.908904557006082  0.8889026101602513  0.006812574846790751  1.0000
  C   C7        1.0  0.9089050933051794  0.6111022209087837  0.5068062180138782  1.0000
  C   C8        1.0  0.09108842849558133  0.11110161709274283  0.993191132239744  1.0000
  C   C9        1.0  0.010191850623499494  0.3650181143554506  0.5198907328142893  1.0000
  C   C10       1.0  0.9897992128151855  0.8650200912824533  0.9801071291924117  1.0000
  C   C11       1.0  0.9898042902652977  0.6349773833012335  0.4801025050880128  1.0000
  C   C12       1.0  0.010189202729492303  0.13497322400045422  0.0198945716795933  1.0000
  C   C13       1.0  0.913943042098538  0.3560789163958021  0.4793911940164648  1.0000
  C   C14       1.0  0.0860506135488635  0.8560850125441847  0.020604565970685905  1.0000
  C   C15       1.0  0.0860537964140846  0.64391003406724  0.5206011879747265  1.0000
  C   C16       1.0  0.9139399205372885  0.14390684780078544  0.9793950432423343  1.0000
  C   C17       1.0  0.8975864451018154  0.3698921093712856  0.41218426098853195  1.0000
  C   C18       1.0  0.10241327948256183  0.8698973305672981  0.0878117231583602  1.0000
  C   C19       1.0  0.10241261437548843  0.6300997509472952  0.5878079338149291  1.0000
  C   C20       1.0  0.8975831942420456  0.13010180441515473  0.9121877043023332  1.0000
  C   C21       1.0  0.9793292798572184  0.39597876455936654  0.3861777163159985  1.0000
  C   C22       1.0  0.020670743020289702  0.8959823349891993  0.1138200396872975  1.0000
  C   C23       1.0  0.020667584295353005  0.6040203704236403  0.6138151417698907  1.0000
  C   C24       1.0  0.9793280540785362  0.10402043731364333  0.8861811050661572  1.0000
  C   C25       1.0  0.7973785341094839  0.3539856910279511  0.3686298954255989  1.0000
  C   C26       1.0  0.20262331758986116  0.8539924000858369  0.1313664585294063  1.0000
  C   C27       1.0  0.20262062775824322  0.6460018044953773  0.631364203871307  1.0000
  C   C28       1.0  0.7973761003495313  0.1460096447498458  0.868632401936388  1.0000
  C   C29       1.0  0.7884389784122663  0.3007868962187956  0.3103556030912245  1.0000
  C   C30       1.0  0.2115616481277058  0.8007891476663789  0.1896394966739976  1.0000
  C   C31       1.0  0.21155726483691242  0.699196234519626  0.6896395393248653  1.0000
  C   C32       1.0  0.7884399651528116  0.19920998729924116  0.8103587004982699  1.0000
  C   C33       1.0  0.6948075398860143  0.2911984956483878  0.2671359231394916  1.0000
  C   C34       1.0  0.3051923170091229  0.7912022791160426  0.23286008129908  1.0000
  C   C35       1.0  0.3051894522149822  0.7087846350875041  0.7328593155900193  1.0000
  C   C36       1.0  0.6948100451505256  0.20880413050433336  0.7671382121681134  1.0000
  C   C37       1.0  0.6088404648340244  0.3263382829014746  0.28328758439036505  1.0000
  C   C38       1.0  0.3911605328109148  0.8263458656987696  0.21671071829668878  1.0000
  C   C39       1.0  0.3911572249317673  0.6736492126266996  0.7167067984002884  1.0000
  C   C40       1.0  0.6088395828151293  0.17366636365501623  0.7832872862154545  1.0000
  C   C41       1.0  0.6156287041298683  0.3745932275458373  0.3425050963785665  1.0000
  C   C42       1.0  0.3843735071512456  0.8746052541086017  0.1574949617544874  1.0000
  C   C43       1.0  0.38437120659787644  0.6253964503721504  0.6574890992262111  1.0000
  C   C44       1.0  0.6156251363755914  0.12540770271574792  0.842503326249563  1.0000
  C   C45       1.0  0.7100096533601389  0.3908248432007683  0.3837444945675442  1.0000
  C   C46       1.0  0.289993326251043  0.890836069095734  0.11625367287359718  1.0000
  C   C47       1.0  0.2899909550132804  0.6091641072493987  0.6162488451113219  1.0000
  C   C48       1.0  0.7100038451574805  0.10917252293909031  0.8837448986352995  1.0000
  C   C49       1.0  0.163701920375523  0.42545767099246495  0.3978965078359877  1.0000
  C   C50       1.0  0.8362992263341199  0.9254623434048171  0.10210405132436762  1.0000
  C   C51       1.0  0.8362965183049198  0.5745465562449185  0.6020979712255539  1.0000
  C   C52       1.0  0.163701996556668  0.07454697608044111  0.8979007151968048  1.0000
  C   C53       1.0  0.025494756185253195  0.34643565841135177  0.5912488170708271  1.0000
  C   C54       1.0  0.9744931723027221  0.8464370506618125  0.9087487541608823  1.0000
  C   C55       1.0  0.9745050521302119  0.6535525645760603  0.40874347405529926  1.0000
  C   C56       1.0  0.0254848360806363  0.15354535266993713  0.0912530267127849  1.0000
  C   C57       1.0  0.8743866236648117  0.2440326471138549  0.2949367555395028  1.0000
  C   C58       1.0  0.12561349988202153  0.744034009378183  0.20505720441698116  1.0000
  C   C59       1.0  0.1256120197500437  0.7559504836156566  0.7050615325403697  1.0000
  C   C60       1.0  0.8743879597746159  0.2559614882601197  0.7949381360410115  1.0000
  C   C61       1.0  0.5209546921554064  0.40683554753140083  0.35997057039260477  1.0000
  C   C62       1.0  0.479050212631563  0.906852770895796  0.1400334217053185  1.0000
  C   C63       1.0  0.4790483164000819  0.59315776770422  0.6400259149389385  1.0000
  C   C64       1.0  0.5209492053542704  0.09316164085726096  0.8599654387290343  1.0000
  C   C65       1.0  0.40981205866701503  0.6464310955984375  0.45048653156965907  1.0000
  C   C66       1.0  0.590195825377734  0.14644050181053106  0.04951374524702602  1.0000
  C   C67       1.0  0.5901972735442841  0.35356731187416574  0.5495169138239148  1.0000
  C   C68       1.0  0.4097956624831198  0.8535804571592609  0.9504897691701331  1.0000
  C   C69       1.0  0.27262092363024953  0.6964812151354708  0.38371334157025666  1.0000
  C   C70       1.0  0.7273822223308386  0.1964983960437507  0.116288387170151  1.0000
  C   C71       1.0  0.7273899831143781  0.30352373952296585  0.6162917247952606  1.0000
  C   C72       1.0  0.2726126769833428  0.8035269277106282  0.8837094192353732  1.0000
  C   C73       1.0  0.2967690947712001  0.7657678667866821  0.4310699547670608  1.0000
  C   C74       1.0  0.7032308272230311  0.2657845085238081  0.06893094013945965  1.0000
  C   C75       1.0  0.7032477259855983  0.23423781531790416  0.5689344537421945  1.0000
  C   C76       1.0  0.2967530441384341  0.7342437251296732  0.9310692305221052  1.0000
  C   C77       1.0  0.4344405548016255  0.7810557980899305  0.5308910847044359  1.0000
  C   C78       1.0  0.5655634087162441  0.2810687681782725  0.9691098900394053  1.0000
  C   C79       1.0  0.5655733473147678  0.21893969950392744  0.4691143669387969  1.0000
  C   C80       1.0  0.43442139069530583  0.7189558281424911  0.03089370978892701  1.0000
  C   C81       1.0  0.5382940529234191  0.7732075446418706  0.552334505546014  1.0000
  C   C82       1.0  0.4617099284645931  0.2732204936138488  0.9476679374618512  1.0000
  C   C83       1.0  0.4617200027977333  0.2267864980192017  0.4476738028244398  1.0000
  C   C84       1.0  0.5382747685456054  0.7268055576392531  0.05233375788044011  1.0000
  C   C85       1.0  0.5850898078891476  0.8191031845884781  0.610254830782722  1.0000
  C   C86       1.0  0.41491296922086474  0.3191121144301834  0.8897462340240806  1.0000
  C   C87       1.0  0.41492058037255936  0.1808894031531311  0.3897544243861049  1.0000
  C   C88       1.0  0.5850774625568036  0.6809059346818744  0.11025147064001571  1.0000
  C   C89       1.0  0.5304958673723874  0.8736952950268847  0.6458882945708666  1.0000
  C   C90       1.0  0.4695042986786149  0.37370460764329755  0.8541116313027289  1.0000
  C   C91       1.0  0.46951382323544527  0.12629583778534942  0.35412181652941394  1.0000
  C   C92       1.0  0.530487528382217  0.62630980413595  0.1458843615151082  1.0000
  C   C93       1.0  0.4264224643768344  0.8785231116788527  0.6238406955514079  1.0000
  C   C94       1.0  0.5735777123342558  0.3785346259957194  0.8761587296503491  1.0000
  C   C95       1.0  0.5735877958763566  0.12146947606385791  0.37616617901448274  1.0000
  C   C96       1.0  0.4264128218392926  0.621480513252543  0.12384087950349  1.0000
  C   C97       1.0  0.37760428934861073  0.8322084580222016  0.5666602893153794  1.0000
  C   C98       1.0  0.622398534991433  0.33222325090049776  0.9333397566053351  1.0000
  C   C99       1.0  0.6224088895094727  0.16778485717677685  0.4333455421405715  1.0000
  C   C100      1.0  0.37758768530498804  0.6677977080872283  0.0666626074973209  1.0000
  C   C101      1.0  0.7592955312792853  0.8103628339754964  0.5931262087968179  1.0000
  C   C102      1.0  0.24070707775609185  0.31036273401284836  0.9068729959884081  1.0000
  C   C103      1.0  0.2407116567697187  0.18963193617518215  0.4068788521480968  1.0000
  C   C104      1.0  0.759283949230394  0.6896465855092729  0.09312194828777362  1.0000
  C   C105      1.0  0.8521266633509228  0.8058456773406137  0.634284074476497  1.0000
  C   C106      1.0  0.1478766093982102  0.3058418564416813  0.8657142973566252  1.0000
  C   C107      1.0  0.1478811711403551  0.19414836534268431  0.3657191783013403  1.0000
  C   C108      1.0  0.8521158640529977  0.6941580060213542  0.1342798873292566  1.0000
  C   C109      1.0  0.7436686508526337  0.8073569688023244  0.6953857814088308  1.0000
  C   C110      1.0  0.25633770547141677  0.3073568223974235  0.8046143963466504  1.0000
  C   C111      1.0  0.2563438047471394  0.19263416400178102  0.3046204298598383  1.0000
  C   C112      1.0  0.7436578402058275  0.6926466773834647  0.19538160194542092  1.0000
  C   C113      1.0  0.3828547198168692  0.9303427944185432  0.7262976275565123  1.0000
  C   C114      1.0  0.6171412760741006  0.4303453460802089  0.7736995279633945  1.0000
  C   C115      1.0  0.6171517194076301  0.06965925039194332  0.2737073370564929  1.0000
  C   C116      1.0  0.3828567721892995  0.5696617910195272  0.2263015204655474  1.0000
  C   C117      1.0  0.2464557822268674  0.011998528388218703  0.6877010434972135  1.0000
  C   C118      1.0  0.753542653380187  0.5120014522921397  0.8122913915515468  1.0000
  C   C119      1.0  0.7535429124050527  0.9879882396694841  0.312298196814588  1.0000
  C   C120      1.0  0.24646288336315086  0.48799550026210886  0.187710620037457  1.0000
  C   C121      1.0  0.28058505482284357  0.9811988361875664  0.6351430939841762  1.0000
  C   C122      1.0  0.7194133903294784  0.48120792718045646  0.8648507590522385  1.0000
  C   C123      1.0  0.7194152398976784  0.01878211213837489  0.364858243451593  1.0000
  C   C124      1.0  0.2805884021684193  0.5187926627150788  0.1351507709604363  1.0000
  N   N1        1.0  0.3435474888149486  0.6232295404945846  0.39635029750222367  1.0000
  N   N2        1.0  0.6564609954677536  0.12324211038626494  0.10365066970209821  1.0000
  N   N3        1.0  0.6564596224535181  0.3767717768483011  0.603653335064287  1.0000
  N   N4        1.0  0.3435384737460581  0.8767788485579046  0.8963491429567796  1.0000
  N   N5        1.0  0.384242036766743  0.7335895709134309  0.4733080833830599  1.0000
  N   N6        1.0  0.615762085481677  0.23360172903404933  0.02669260077553299  1.0000
  N   N7        1.0  0.6157740351163808  0.26641029146786377  0.5266962288275677  1.0000
  N   N8        1.0  0.38422049298158356  0.7664243222255395  0.9733111862294379  1.0000
  N   N9        1.0  0.6906375126011853  0.8120536827016666  0.6322121394493649  1.0000
  N   N10       1.0  0.30936590919852597  0.3120567833158248  0.8677881052856832  1.0000
  N   N11       1.0  0.3093720244018884  0.18793890504335314  0.3677951149236947  1.0000
  N   N12       1.0  0.6906266667031957  0.687954718597979  0.1322079838529646  1.0000
  N   N13       1.0  0.8410088324479333  0.8034348750881649  0.6976835880007144  1.0000
  N   N14       1.0  0.15899664315136872  0.30343101584195864  0.8023146089091994  1.0000
  N   N15       1.0  0.159002746291506  0.19655625771957838  0.3023201463515974  1.0000
  N   N16       1.0  0.840998825693454  0.6965652092823194  0.19767996103959715  1.0000
  N   N17       1.0  0.368083604805392  0.9295593819615325  0.6601561474167781  1.0000
  N   N18       1.0  0.6319138573286978  0.42956834454594883  0.8398407285761207  1.0000
  N   N19       1.0  0.6319220855290483  0.0704324783312913  0.339848720908698  1.0000
  N   N20       1.0  0.36808266763208763  0.5704395200247988  0.1601596511035552  1.0000
  N   N21       1.0  0.31031347592085723  0.9790410425976149  0.744002953224637  1.0000
  N   N22       1.0  0.6896827576359001  0.47903948209348374  0.7559915741104604  1.0000
  N   N23       1.0  0.6896883165770474  0.020959547297920298  0.2559985767880377  1.0000
  N   N24       1.0  0.3103205581673407  0.5209611077967723  0.2440106246496327  1.0000
  O   O1        1.0  0.15065818418295146  0.4474904862699632  0.33733757423792804  1.0000
  O   O2        1.0  0.8493469234206331  0.947489944858525  0.1626643067243947  1.0000
  O   O3        1.0  0.8493432498992989  0.552512286025838  0.6626572900809791  1.0000
  O   O4        1.0  0.1506565972017029  0.052512099961418805  0.8373417009966958  1.0000
  O   O5        1.0  0.25155548327566635  0.4184555094132421  0.43430768233476863  1.0000
  O   O6        1.0  0.7484441899919005  0.9184702467800038  0.06569414813542808  1.0000
  O   O7        1.0  0.7484408368578316  0.5815487178306284  0.5656888883894595  1.0000
  O   O8        1.0  0.2515554840491987  0.08155434949103584  0.9343094734789048  1.0000
  O   O9        1.0  0.1121598611602082  0.35193281656177094  0.6289993451254148  1.0000
  O   O10       1.0  0.8878274109341079  0.8519275348683311  0.8709990541022918  1.0000
  O   O11       1.0  0.8878391727563583  0.6480699557429547  0.3709923735297238  1.0000
  O   O12       1.0  0.11215292089722341  0.14807814735846855  0.129004444014214  1.0000
  O   O13       1.0  0.947093475242447  0.32478319236981434  0.6119789790036165  1.0000
  O   O14       1.0  0.05289651162759411  0.8247907565688313  0.8880185151178424  1.0000
  O   O15       1.0  0.05291157496200331  0.6751853890252306  0.38801398636636014  1.0000
  O   O16       1.0  0.9470740337081766  0.17515672843305913  0.1119827788309991  1.0000
  O   O17       1.0  0.9065832584269276  0.17206943711855163  0.3308325807517676  1.0000
  O   O18       1.0  0.09341627352405621  0.6720710349633879  0.16916079283931398  1.0000
  O   O19       1.0  0.09341548740566452  0.8279166034729857  0.6691676118030543  1.0000
  O   O20       1.0  0.9065843092831756  0.32792737254146703  0.8308320706949246  1.0000
  O   O21       1.0  0.9038710562982291  0.2706039761295856  0.2442614073838669  1.0000
  O   O22       1.0  0.09612854352028681  0.7706025968595188  0.2557327972924313  1.0000
  O   O23       1.0  0.09613060812834111  0.7293798820553122  0.7557377420684119  1.0000
  O   O24       1.0  0.9038714696197376  0.22938853598903827  0.7442633027909976  1.0000
  O   O25       1.0  0.5226435936324165  0.4658606430640831  0.4059937511727796  1.0000
  O   O26       1.0  0.4773620104471093  0.9658880883487273  0.0940147020088062  1.0000
  O   O27       1.0  0.4773624103248793  0.5341312172299626  0.5940031194161363  1.0000
  O   O28       1.0  0.5226374587475817  0.034127778335346214  0.9059851106630177  1.0000
  O   O29       1.0  0.4388575719739265  0.37112672173151406  0.32469044453746676  1.0000
  O   O30       1.0  0.5611468854343045  0.8711390115278167  0.17531039628021014  1.0000
  O   O31       1.0  0.5611432412377084  0.628868775908437  0.6753067040894577  1.0000
  O   O32       1.0  0.4388524557382213  0.12887321782871916  0.8246870357979218  1.0000
  O   O33       1.0  0.9795942186921353  0.4628633115613995  0.7600496025522077  1.0000
  O   O34       1.0  0.0204103099766613  0.9628653572472533  0.7399493993164796  1.0000
  O   O35       1.0  0.020410082747901  0.5371285487394746  0.23994326644517366  1.0000
  O   O36       1.0  0.9795976525040117  0.0371235931748473  0.2600562340772328  1.0000
