data_image0
_chemical_formula_structural       Zn4H42C64N4O25
_chemical_formula_sum              "Zn4 H42 C64 N4 O25"
_cell_length_a       11.137122105856747
_cell_length_b       14.079754235709887
_cell_length_c       26.620380563167295
_cell_angle_alpha    90.02260546809262
_cell_angle_beta     89.76736901398857
_cell_angle_gamma    89.90650510824979

_space_group_name_H-M_alt    "P 1"
_space_group_IT_number       1

loop_
  _space_group_symop_operation_xyz
  'x, y, z'

loop_
  _atom_site_type_symbol
  _atom_site_label
  _atom_site_symmetry_multiplicity
  _atom_site_fract_x
  _atom_site_fract_y
  _atom_site_fract_z
  _atom_site_occupancy
  Zn  Zn1       1.0  0.503088753950358  0.39990605612865693  0.4989170640778865  1.0000
  Zn  Zn2       1.0  0.5015905634992707  0.598049869909417  0.500007659190416  1.0000
  Zn  Zn3       1.0  0.5033610143394965  0.6015012655696593  0.080414817619598  1.0000
  Zn  Zn4       1.0  0.5025885350031273  0.40353323491063264  0.08121195435192868  1.0000
  H   H1        1.0  0.6314815992026368  0.2474280224521621  0.4437602261416344  1.0000
  H   H2        1.0  0.3682128716323021  0.7500847382697485  0.5542620905468566  1.0000
  H   H3        1.0  0.6345782321027114  0.7513056654423381  0.4456916325235553  1.0000
  H   H4        1.0  0.6372558985461579  0.9260724015391019  0.4434181764873273  1.0000
  H   H5        1.0  0.3688803672571694  0.2471668379449525  0.55395728355478  1.0000
  H   H6        1.0  0.36439744142424496  0.07224787190151719  0.5558742032694894  1.0000
  H   H7        1.0  0.5009784725623162  0.6551110503419579  0.2431343084739623  1.0000
  H   H8        1.0  0.4216826417545789  0.27986748609659173  0.242512791181035  1.0000
  H   H9        1.0  0.5818899115909416  0.27861428150101364  0.2422728539397312  1.0000
  H   H10       1.0  0.5822337102521118  0.28040934465224865  0.3367891269946881  1.0000
  H   H11       1.0  0.4219448524887143  0.28121357252950224  0.3372980320946155  1.0000
  H   H12       1.0  0.4977988996072114  0.3472503335990923  0.6597488513911571  1.0000
  H   H13       1.0  0.4995282052542009  0.6519274796502686  0.9201294830579626  1.0000
  H   H14       1.0  0.5000585251622737  0.34811583787846706  0.9193607225147529  1.0000
  H   H15       1.0  0.4998346314172437  0.3493050600378638  0.8275288048838689  1.0000
  H   H16       1.0  0.5000643287205833  0.651176064142632  0.6608229000847956  1.0000
  H   H17       1.0  0.5005611752730276  0.6496190121409742  0.7525900157737624  1.0000
  H   H18       1.0  0.8902002429616187  0.3450107494203892  0.4997926146308485  1.0000
  H   H19       1.0  0.8881228454024422  0.7208831028728185  0.46607408692617713  1.0000
  H   H20       1.0  0.8855628072759743  0.7210303228160839  0.5331480634121064  1.0000
  H   H21       1.0  0.1116106574726103  0.7194819982298954  0.5341229573910623  1.0000
  H   H22       1.0  0.11426635984312129  0.7198859487332355  0.46703508804154825  1.0000
  H   H23       1.0  0.6318814237832626  0.7528789546158022  0.1344347027866917  1.0000
  H   H24       1.0  0.3702434621578803  0.25245064113099863  0.026010344246280695  1.0000
  H   H25       1.0  0.6341527909163885  0.24946121908759977  0.13456019951100728  1.0000
  H   H26       1.0  0.6383624424412702  0.07424664409264642  0.13565301416899436  1.0000
  H   H27       1.0  0.3694496300532251  0.7553468859748733  0.025136934826924993  1.0000
  H   H28       1.0  0.3660002990890944  0.9303160612337964  0.0234533812912758  1.0000
  H   H29       1.0  0.8901216085880678  0.6556454030186389  0.0798673278447737  1.0000
  H   H30       1.0  0.8890331206681096  0.2800428002334954  0.1142797827243314  1.0000
  H   H31       1.0  0.8876956698945904  0.2793820060802759  0.047244828691781  1.0000
  H   H32       1.0  0.11380965557857789  0.2811384042122497  0.04618419618297759  1.0000
  H   H33       1.0  0.1153381451428288  0.28075588308863086  0.11324594082448407  1.0000
  H   H34       1.0  0.7008022959092627  0.11424066135444377  0.41647282332503005  1.0000
  H   H35       1.0  0.2998781083733348  0.883200313859703  0.5822965032498288  1.0000
  H   H36       1.0  0.49984755794637437  0.2768040635111859  0.7289520477099245  1.0000
  H   H37       1.0  0.5016408625663189  0.7221934465530423  0.8509598681861303  1.0000
  H   H38       1.0  0.7014235799860202  0.8852910318487375  0.16187963510408568  1.0000
  H   H39       1.0  0.3021414008167582  0.1198912009723543  0.997649754513823  1.0000
  H   H40       1.0  0.4982996382215674  0.6585925431993117  0.3759696281963655  1.0000
  H   H41       1.0  0.20764425001082287  0.34244356566212986  0.49830575887867906  1.0000
  H   H42       1.0  0.20778487125922854  0.6580346642914777  0.0816715571797175  1.0000
  C   C1        1.0  0.49735066668701927  0.4988417314096835  0.5977250545692812  1.0000
  C   C2        1.0  0.26303988364254854  0.499536719714719  0.4993526863881569  1.0000
  C   C3        1.0  0.5016898364733892  0.50112007934856  0.3994820449647491  1.0000
  C   C4        1.0  0.7368979923758732  0.49606770622744284  0.4985630927907748  1.0000
  C   C5        1.0  0.49839863170509363  0.5011553310555782  0.9823308337396738  1.0000
  C   C6        1.0  0.26355772419803  0.5010536178152661  0.0805656217646984  1.0000
  C   C7        1.0  0.5024199840879717  0.5033580784346867  0.17919651696377767  1.0000
  C   C8        1.0  0.7377450766753384  0.5044346885685229  0.08055401142059539  1.0000
  C   C9        1.0  0.5730532995846005  0.20547227747173472  0.4683036880571335  1.0000
  C   C10       1.0  0.5777254030610592  0.10624656642694671  0.4669787147375998  1.0000
  C   C11       1.0  0.4272312671507664  0.7923160484279491  0.530097887942702  1.0000
  C   C12       1.0  0.42296133688424215  0.891548100051999  0.5318211354154981  1.0000
  C   C13       1.0  0.5750000817589722  0.7929772166954264  0.46965359317535865  1.0000
  C   C14       1.0  0.5757214380364816  0.8913346051961639  0.4689659650363963  1.0000
  C   C15       1.0  0.4269578764679451  0.20526078690620864  0.5294616977514082  1.0000
  C   C16       1.0  0.4258199453641183  0.10687630702068422  0.5302108675925012  1.0000
  C   C17       1.0  0.5014413218561486  0.051666024710868896  0.4989184309368539  1.0000
  C   C18       1.0  0.499533998399265  0.9463402765468842  0.5001063931419836  1.0000
  C   C19       1.0  0.5027633287395973  0.502645790642795  0.23538651364385285  1.0000
  C   C20       1.0  0.5023485132675347  0.5021689733688176  0.3440391541254257  1.0000
  C   C21       1.0  0.5029732348159613  0.41835879819026195  0.2631658391676551  1.0000
  C   C22       1.0  0.5018947952924009  0.5885754132924107  0.31584502522346  1.0000
  C   C23       1.0  0.5028579092919188  0.41901706560179963  0.31539425887469  1.0000
  C   C24       1.0  0.5022518641054318  0.587501196780835  0.26299362219303646  1.0000
  C   C25       1.0  0.5020697103868413  0.3108391716246146  0.2598097520554887  1.0000
  C   C26       1.0  0.5020649769452986  0.31163074362113724  0.3192659483755946  1.0000
  C   C27       1.0  0.4977565941317223  0.4990052160272144  0.6538149111242075  1.0000
  C   C28       1.0  0.4986947589797808  0.5002888732493318  0.9261580794110102  1.0000
  C   C29       1.0  0.49779836492713514  0.4141318401900733  0.6806537078726861  1.0000
  C   C30       1.0  0.49855085994836656  0.4123271060103805  0.7330542435224601  1.0000
  C   C31       1.0  0.4990950796236007  0.585033098415465  0.899239620172338  1.0000
  C   C32       1.0  0.49958648621776547  0.5867095193866803  0.8468527503922302  1.0000
  C   C33       1.0  0.49921099751154685  0.41527206499636554  0.899094107233118  1.0000
  C   C34       1.0  0.49941199043870194  0.41671253217131016  0.8470014103870368  1.0000
  C   C35       1.0  0.49891519279002244  0.5839115224512169  0.68098236851889  1.0000
  C   C36       1.0  0.49947877285757153  0.5822808664583476  0.7330590836137816  1.0000
  C   C37       1.0  0.49909178015653316  0.49780867820304314  0.7621041685980501  1.0000
  C   C38       1.0  0.49935643044149447  0.501141328704243  0.8178950672806308  1.0000
  C   C39       1.0  0.8709723100648786  0.4975050739412837  0.49941182720311866  1.0000
  C   C40       1.0  0.130473927555208  0.4984230788523901  0.49984411600660644  1.0000
  C   C41       1.0  0.9368777342328799  0.5819286391058683  0.49983300258870134  1.0000
  C   C42       1.0  0.0635472003180766  0.41187844948996144  0.49967681882516496  1.0000
  C   C43       1.0  0.061731035006559395  0.5814522462901123  0.5001526774941282  1.0000
  C   C44       1.0  0.9372787342177346  0.4127372867034822  0.49965225017407977  1.0000
  C   C45       1.0  0.9284993268194625  0.6894503810871342  0.49983308151244177  1.0000
  C   C46       1.0  0.0705891046442133  0.6888438196538617  0.5002652381122772  1.0000
  C   C47       1.0  0.5738185802538355  0.7954104187700822  0.11013024734894827  1.0000
  C   C48       1.0  0.5789516472276119  0.8946024871554383  0.1116413468271062  1.0000
  C   C49       1.0  0.4289361792521403  0.20976032108079323  0.049967351077817995  1.0000
  C   C50       1.0  0.42492023938731893  0.1105630060694409  0.047800378150014894  1.0000
  C   C51       1.0  0.5755886509886992  0.20798311011697018  0.11035641786401129  1.0000
  C   C52       1.0  0.5768491630841054  0.1095893669939585  0.11047237078756209  1.0000
  C   C53       1.0  0.42788988971805236  0.7968050537673291  0.04943220036913229  1.0000
  C   C54       1.0  0.4273047124425347  0.8951905686674594  0.04882376667212179  1.0000
  C   C55       1.0  0.5030599053545188  0.9498092302288086  0.08000613072124449  1.0000
  C   C56       1.0  0.5012121027760799  0.055144779731712404  0.07916214050731438  1.0000
  C   C57       1.0  0.8717820177656322  0.503175624216169  0.0803047179585192  1.0000
  C   C58       1.0  0.1310617677231818  0.5022812112000422  0.08024698142218507  1.0000
  C   C59       1.0  0.9379575274767901  0.41873106241952474  0.0802663467964848  1.0000
  C   C60       1.0  0.0638585217651837  0.5888321312465408  0.08032902019890288  1.0000
  C   C61       1.0  0.06275832228175199  0.4192271430552735  0.0800871599762587  1.0000
  C   C62       1.0  0.937622904502703  0.5879736617326403  0.080153244107052  1.0000
  C   C63       1.0  0.9299894897899605  0.3112287672770647  0.0804565478191179  1.0000
  C   C64       1.0  0.07209181381420392  0.3118291847671841  0.0800453318606387  1.0000
  N   N1        1.0  0.49988011907046825  0.25413066864771133  0.4986498182464202  1.0000
  N   N2        1.0  0.5010836311177016  0.7438679685255918  0.4999156003688298  1.0000
  N   N3        1.0  0.5004871837040242  0.7473580900156518  0.0799311532464273  1.0000
  N   N4        1.0  0.5019941457847069  0.25761436559919554  0.0803892272480269  1.0000
  O   O1        1.0  0.49683851624595116  0.4184723563933516  0.5755405323213337  1.0000
  O   O2        1.0  0.4977162471675881  0.5796679524358198  0.5760698630954266  1.0000
  O   O3        1.0  0.31666040355502634  0.5789520605669553  0.49985518712894356  1.0000
  O   O4        1.0  0.31702139410517555  0.41800209351159623  0.4982540088797407  1.0000
  O   O5        1.0  0.4993323491093661  0.5825569393750811  0.42213109275594  1.0000
  O   O6        1.0  0.5031670752117846  0.4216057669871632  0.4219576133865103  1.0000
  O   O7        1.0  0.6854312470621905  0.41524641356619435  0.4983608583284606  1.0000
  O   O8        1.0  0.6839151602526101  0.5765050131325323  0.4980880480336224  1.0000
  O   O9        1.0  0.49742059305345515  0.5820859118693774  0.0039312427043043  1.0000
  O   O10       1.0  0.4991646315992853  0.420863525943119  0.0043670926428945  1.0000
  O   O11       1.0  0.31711858298231727  0.4215414841631286  0.0800490112876631  1.0000
  O   O12       1.0  0.3172575662641036  0.5825740039959159  0.08144803166170789  1.0000
  O   O13       1.0  0.5006807577150525  0.42241011309339166  0.1576592358921616  1.0000
  O   O14       1.0  0.5036460243913297  0.5837236438306378  0.15717161407420824  1.0000
  O   O15       1.0  0.6858666606294648  0.5852407792500711  0.08022749784305458  1.0000
  O   O16       1.0  0.6854936349661428  0.4239063426860881  0.08104700201707259  1.0000
  O   O17       1.0  0.6570336510544621  0.06468257790304928  0.4344164104901793  1.0000
  O   O18       1.0  0.3437647731797994  0.932954381008173  0.5645541278116539  1.0000
  O   O19       1.0  0.49892995660820827  0.3241291278949915  0.7556593828812552  1.0000
  O   O20       1.0  0.5003827178737694  0.6749212290638907  0.8242306304119535  1.0000
  O   O21       1.0  0.6583400879449144  0.9354058274114578  0.14412678267991197  1.0000
  O   O22       1.0  0.3462394344038984  0.06975282806308059  0.014933225463600798  1.0000
  O   O23       1.0  0.5007661965191943  0.6742588472757235  0.33910073097655397  1.0000
  O   O24       1.0  0.11952602593812858  0.3263552496098967  0.49934933528852804  1.0000
  O   O25       1.0  0.1196079839819149  0.6742942394514414  0.08062994389583618  1.0000
