data_image0
_chemical_formula_structural       Mg6H6C36O30
_chemical_formula_sum              "Mg6 H6 C36 O30"
_cell_length_a       6.974956198522386
_cell_length_b       15.110933121492
_cell_length_c       15.109219678343178
_cell_angle_alpha    117.68061170689147
_cell_angle_beta     98.84766271455645
_cell_angle_gamma    98.84627909566954

_space_group_name_H-M_alt    "P 1"
_space_group_IT_number       1

loop_
  _space_group_symop_operation_xyz
  'x, y, z'

loop_
  _atom_site_type_symbol
  _atom_site_label
  _atom_site_symmetry_multiplicity
  _atom_site_fract_x
  _atom_site_fract_y
  _atom_site_fract_z
  _atom_site_occupancy
  Mg  Mg1       1.0  0.38013410138769643  0.6731097765094135  0.4099463015235897  1.0000
  Mg  Mg2       1.0  0.9702581698384023  0.5901467690128188  0.2632446474694703  1.0000
  Mg  Mg3       1.0  0.7070669880235056  0.7368520673102381  0.32695387274935667  1.0000
  Mg  Mg4       1.0  0.6198645541394894  0.3268894665084119  0.5900560045916663  1.0000
  Mg  Mg5       1.0  0.02974086950501232  0.4098532472316806  0.7367560595549278  1.0000
  Mg  Mg6       1.0  0.2929327290719641  0.26314640216954643  0.6730461634420377  1.0000
  H   H1        1.0  0.13500562702014207  0.4491634113666407  0.977841067727489  1.0000
  H   H2        1.0  0.15722239495331541  0.022252166169224104  0.4713922296428449  1.0000
  H   H3        1.0  0.6852917818638815  0.528152899782363  0.550491034076579  1.0000
  H   H4        1.0  0.8649974739979883  0.5508389248695169  0.022161004606324853  1.0000
  H   H5        1.0  0.842776255941253  0.9777470766261304  0.5286067668030299  1.0000
  H   H6        1.0  0.3147051287838281  0.4718486632712598  0.44951024119227867  1.0000
  C   C1        1.0  0.32108988478225337  0.5698231000388959  0.17361490728234938  1.0000
  C   C2        1.0  0.14753785715974027  0.8264611260341825  0.39628045815778984  1.0000
  C   C3        1.0  0.7510888915427145  0.6036482884432887  0.43009982784808887  1.0000
  C   C4        1.0  0.6789080911398385  0.4301776896546555  0.8263867457981532  1.0000
  C   C5        1.0  0.8524538329523706  0.17353579699180705  0.603718953603213  1.0000
  C   C6        1.0  0.2489093699764737  0.39635018085842705  0.5698967960853878  1.0000
  C   C7        1.0  0.4194679081116136  0.5390221791325731  0.08700831467646002  1.0000
  C   C8        1.0  0.33247293306789766  0.9130423590698201  0.45204625398416437  1.0000
  C   C9        1.0  0.8801643874567944  0.5477899735318204  0.4608461583630187  1.0000
  C   C10       1.0  0.5805337419628672  0.46098015714798646  0.9129936550688101  1.0000
  C   C11       1.0  0.6675289127232774  0.08695456360084111  0.547953213962785  1.0000
  C   C12       1.0  0.1198342652908266  0.4522092693525225  0.5391541619506128  1.0000
  C   C13       1.0  0.2959594525054143  0.4711716898963943  0.9871222945104137  1.0000
  C   C14       1.0  0.30885903306377566  0.012918764338181203  0.4840973506971267  1.0000
  C   C15       1.0  0.8244332140945615  0.5156345133311645  0.5286051346636141  1.0000
  C   C16       1.0  0.7040436457331509  0.5288306462062807  0.012877792021768532  1.0000
  C   C17       1.0  0.6911406821786484  0.987079705052608  0.5159013616265183  1.0000
  C   C18       1.0  0.17556360296664048  0.48436395632641194  0.4713960202184424  1.0000
  C   C19       1.0  0.3680375410504624  0.42954932234442117  0.8983256596886945  1.0000
  C   C20       1.0  0.46972505663210024  0.1016571340856061  0.5312199085170874  1.0000
  C   C21       1.0  0.9385288512744124  0.46875217525185076  0.5704383982778011  1.0000
  C   C22       1.0  0.6319680734061279  0.570452240353781  0.10167490724369087  1.0000
  C   C23       1.0  0.5302768818190559  0.8983428819366  0.46877901788277393  1.0000
  C   C24       1.0  0.061469028281599974  0.5312455209121796  0.4295611486142761  1.0000
  C   C25       1.0  0.3460447895057328  0.7437860804081639  0.5881731869930035  1.0000
  C   C26       1.0  0.7580986391441228  0.41195455069775727  0.1556537466986042  1.0000
  C   C27       1.0  0.6023674105228238  0.844444578496031  0.25631039157456564  1.0000
  C   C28       1.0  0.6539644073697986  0.25621393557000266  0.41182890008509787  1.0000
  C   C29       1.0  0.24191142636256296  0.5880501054857419  0.844350558055595  1.0000
  C   C30       1.0  0.3976303708140634  0.1555500240494894  0.7436857252613365  1.0000
  C   C31       1.0  0.835910524472254  0.8707166992015515  0.6542318141833049  1.0000
  C   C32       1.0  0.18389545629928253  0.34544322697240665  0.21697650357548776  1.0000
  C   C33       1.0  0.9655463953744459  0.7829118689975588  0.12911676988936444  1.0000
  C   C34       1.0  0.16408008554109443  0.1292809964725947  0.3457566288240201  1.0000
  C   C35       1.0  0.8161018381646555  0.6545591093078827  0.7830231726025118  1.0000
  C   C36       1.0  0.034481178748706015  0.217095880227106  0.870891534049683  1.0000
  O   O1        1.0  0.43362650336173664  0.6263663820966133  0.2666177836456427  1.0000
  O   O2        1.0  0.16712566540424237  0.7334652269285656  0.35982714155070983  1.0000
  O   O3        1.0  0.8072773833675768  0.6402489261426255  0.37369541459084127  1.0000
  O   O4        1.0  0.5663739887783876  0.37363363419246554  0.7333843498350561  1.0000
  O   O5        1.0  0.832875119745175  0.26653246932463764  0.6401752582539686  1.0000
  O   O6        1.0  0.19272117486701032  0.3597472233011843  0.6263041234021145  1.0000
  O   O7        1.0  0.13188677412082944  0.5390091184656856  0.15555691580664904  1.0000
  O   O8        1.0  0.9763342089035091  0.8444839938924247  0.38353228160482883  1.0000
  O   O9        1.0  0.5926573950365466  0.6163953216209493  0.4609109923415956  1.0000
  O   O10       1.0  0.8681137161662491  0.4609908977344048  0.8444438938063001  1.0000
  O   O11       1.0  0.023662993826974323  0.15551524908081404  0.6164685980541266  1.0000
  O   O12       1.0  0.40734087204178593  0.3836031479477313  0.5390896031951299  1.0000
  O   O13       1.0  0.23577460242889  0.36393931410397334  0.8065031324909029  1.0000
  O   O14       1.0  0.4292716322125329  0.19346676166200893  0.5573593902755718  1.0000
  O   O15       1.0  0.8719172899564924  0.4425996841038612  0.6360954451566769  1.0000
  O   O16       1.0  0.7642262735274626  0.6360614754117789  0.1934974018989378  1.0000
  O   O17       1.0  0.5707280830298913  0.8065317077287875  0.4426393220480733  1.0000
  O   O18       1.0  0.12807981640791877  0.5573964653398563  0.363903328313853  1.0000
  O   O19       1.0  0.3448383517382539  0.7739500446118658  0.6725663267035172  1.0000
  O   O20       1.0  0.6731353976519471  0.32750509193810007  0.10131410049194041  1.0000
  O   O21       1.0  0.5709412846661267  0.8987319088412139  0.2262225400125146  1.0000
  O   O22       1.0  0.6551591449280564  0.22604687836998494  0.32743548121329974  1.0000
  O   O23       1.0  0.32688404385653763  0.6724980168583059  0.898684853489513  1.0000
  O   O24       1.0  0.429057459814949  0.10127042735017971  0.7737765768201539  1.0000
  O   O25       1.0  0.9921574022138556  0.8781188583241217  0.6395429031822245  1.0000
  O   O26       1.0  0.3550160926289506  0.3610533321014273  0.23913009101973862  1.0000
  O   O27       1.0  0.11513456171281439  0.7615460360900246  0.122240004501819  1.0000
  O   O28       1.0  0.007813298788079202  0.12187961217722432  0.36045706703988145  1.0000
  O   O29       1.0  0.6449843948785483  0.6389466839651802  0.7608687327915787  1.0000
  O   O30       1.0  0.8848721031937713  0.23845475253621376  0.8777503493001859  1.0000
