data_image0
_chemical_formula_structural       Cu2H32C26S2N8O8
_chemical_formula_sum              "Cu2 H32 C26 S2 N8 O8"
_cell_length_a       5.21454813536789
_cell_length_b       8.59174495222093
_cell_length_c       16.64341474656025
_cell_angle_alpha    80.35049654237359
_cell_angle_beta     87.54303442441453
_cell_angle_gamma    78.72488147001474

_space_group_name_H-M_alt    "P 1"
_space_group_IT_number       1

loop_
  _space_group_symop_operation_xyz
  'x, y, z'

loop_
  _atom_site_type_symbol
  _atom_site_label
  _atom_site_symmetry_multiplicity
  _atom_site_fract_x
  _atom_site_fract_y
  _atom_site_fract_z
  _atom_site_occupancy
  Cu  Cu1       1.0  0.48877331444312955  0.3437538228369875  0.6556825335753658  1.0000
  Cu  Cu2       1.0  0.5112253484564775  0.6562504568557513  0.34431586026375527  1.0000
  H   H1        1.0  0.6048970244914499  0.7460824780161562  0.6981021938096601  1.0000
  H   H2        1.0  0.3950860958285818  0.25389903227662813  0.3018909772856445  1.0000
  H   H3        1.0  0.5207335578396268  0.7881728052118292  0.84257811395517  1.0000
  H   H4        1.0  0.47925017735871484  0.21183024579859486  0.1574193349217197  1.0000
  H   H5        1.0  0.8583928369480209  0.6566875575575182  0.9473154447298664  1.0000
  H   H6        1.0  0.1416215445125459  0.34333364626062496  0.05268082629461188  1.0000
  H   H7        1.0  0.2568116225209495  0.4733641574965831  0.9087407412073814  1.0000
  H   H8        1.0  0.7432004236245929  0.5266521818946543  0.09125774678580706  1.0000
  H   H9        1.0  0.7866385970249185  0.19114986983414892  0.04017430788577059  1.0000
  H   H10       1.0  0.2133235440252649  0.8088421363100692  0.959830263545484  1.0000
  H   H11       1.0  0.49955041050309756  0.19937161359766983  0.9814357574928745  1.0000
  H   H12       1.0  0.500419791635636  0.8006252498956103  0.018567738556022558  1.0000
  H   H13       1.0  0.6394300298845582  0.373213452737275  0.9773162705905631  1.0000
  H   H14       1.0  0.36053704148943677  0.6267809248459744  0.02269046223140238  1.0000
  H   H15       1.0  0.10305030471162265  0.898754161632077  0.7591078415581334  1.0000
  H   H16       1.0  0.8969579637318718  0.10124414439351882  0.24089032770682187  1.0000
  H   H17       1.0  0.1728248204291774  0.9864648728630032  0.8446209919308314  1.0000
  H   H18       1.0  0.8271703911826835  0.013526137107462003  0.15537910190676738  1.0000
  H   H19       1.0  0.2752945290298144  0.06079637226974913  0.7456731914489863  1.0000
  H   H20       1.0  0.7246883322156921  0.9392089765370885  0.25432888992945374  1.0000
  H   H21       1.0  0.9320952572518238  0.9402830243456538  0.652086877114513  1.0000
  H   H22       1.0  0.0679060850509927  0.05971282291081082  0.34791276433894314  1.0000
  H   H23       1.0  0.026853266775731303  0.12274096134265733  0.6046365759058147  1.0000
  H   H24       1.0  0.9731760195071572  0.8772513164999156  0.39536545830625147  1.0000
  H   H25       1.0  0.7413066376266716  0.043829622083222816  0.5121527823422554  1.0000
  H   H26       1.0  0.25870853798235055  0.9561771494269498  0.48784403489828765  1.0000
  H   H27       1.0  0.5044395147554114  0.017928113646725304  0.5905586151980555  1.0000
  H   H28       1.0  0.495586009511804  0.9820702518658214  0.4094393661287441  1.0000
  H   H29       1.0  0.35380744676008646  0.2738216807266626  0.5182063926819962  1.0000
  H   H30       1.0  0.6461973455292167  0.7261753824609586  0.48179311479340453  1.0000
  H   H31       1.0  0.6398272058968716  0.32500211201315915  0.511428103721755  1.0000
  H   H32       1.0  0.360178213053331  0.6750044515544077  0.488576645439444  1.0000
  C   C1        1.0  0.97456502280162  0.5877274173070647  0.7231756696770473  1.0000
  C   C2        1.0  0.02541900545076455  0.41227433681766723  0.27682608622724547  1.0000
  C   C3        1.0  0.7454519321715622  0.687072426261132  0.745558147450616  1.0000
  C   C4        1.0  0.2545803789039809  0.3129101760731103  0.25444703293838694  1.0000
  C   C5        1.0  0.6990023078111846  0.7106559489276096  0.8259106264384426  1.0000
  C   C6        1.0  0.3009930477230469  0.2893352090303481  0.1740828441209743  1.0000
  C   C7        1.0  0.8869061289502654  0.6351366047166779  0.884501454731321  1.0000
  C   C8        1.0  0.11309379384444905  0.3648762282589075  0.11549083279985688  1.0000
  C   C9        1.0  0.11206396157328408  0.5342141119947713  0.863226242236635  1.0000
  C   C10       1.0  0.8879586942255031  0.4657985177751841  0.13677843915050394  1.0000
  C   C11       1.0  0.16068261802657696  0.504094853591525  0.7826397327674497  1.0000
  C   C12       1.0  0.8393367696583881  0.49590469480387617  0.21735821899138583  1.0000
  C   C13       1.0  0.7473854425681951  0.21764422219241206  0.8316770914367309  1.0000
  C   C14       1.0  0.25260785172991973  0.7823467811684  0.16832302328288046  1.0000
  C   C15       1.0  0.8657799159821522  0.19394505831461836  0.914015596552353  1.0000
  C   C16       1.0  0.1341922237467443  0.8060578588639872  0.08598619243002044  1.0000
  C   C17       1.0  0.6846707231301256  0.24135904046865872  0.9828455549295396  1.0000
  C   C18       1.0  0.3153033849466594  0.7586318833421333  0.01715537072644217  1.0000
  C   C19       1.0  0.8653352217102467  0.13039618957707697  0.767132402892251  1.0000
  C   C20       1.0  0.13466497975339553  0.8696032792683115  0.2328663598029478  1.0000
  C   C21       1.0  0.11763401485855243  0.010585177367843802  0.7807174081819283  1.0000
  C   C22       1.0  0.8823580934575403  0.9894154273905117  0.2192831521759117  1.0000
  C   C23       1.0  0.8603174915013982  0.0688756660189966  0.6310507015287781  1.0000
  C   C24       1.0  0.13969803538837064  0.9311238422502657  0.36894849622648707  1.0000
  C   C25       1.0  0.6530025142570112  0.08915458785899943  0.5668759437215696  1.0000
  C   C26       1.0  0.3470111155954213  0.9108509608762675  0.433121588731211  1.0000
  S   S1        1.0  0.009919016633261894  0.5760812354797338  0.6173997311867436  1.0000
  S   S2        1.0  0.9900800237147964  0.4239158078789061  0.3825998389347091  1.0000
  N   N1        1.0  0.3870924502692787  0.39211286223482494  0.7641448163058511  1.0000
  N   N2        1.0  0.6129172985115401  0.6078865992986452  0.2358556483278632  1.0000
  N   N3        1.0  0.5262030313552729  0.3259657495135287  0.827753259542426  1.0000
  N   N4        1.0  0.47377652252485797  0.6740264775585347  0.17224389855629593  1.0000
  N   N5        1.0  0.7465596035657499  0.1531842846222631  0.6973672092666376  1.0000
  N   N6        1.0  0.2534394891177172  0.8468128125500058  0.3026299523900206  1.0000
  N   N7        1.0  0.5250034093241212  0.2595063103875149  0.549513387541772  1.0000
  N   N8        1.0  0.47500361360937393  0.7404955095997398  0.4504887198945155  1.0000
  O   O1        1.0  0.10210422361865311  0.1434521397304352  0.9268554526696702  1.0000
  O   O2        1.0  0.8978904371659056  0.8565760594308858  0.07314767840323096  1.0000
  O   O3        1.0  0.2989192991850089  0.5602064117783174  0.6014175091324601  1.0000
  O   O4        1.0  0.7010835568153981  0.43979665151508845  0.3985821393890489  1.0000
  O   O5        1.0  0.9154958371409165  0.4335272375049613  0.6034672386724224  1.0000
  O   O6        1.0  0.0845173936853881  0.5664674466976366  0.3965323697029531  1.0000
  O   O7        1.0  0.8714050077626893  0.7284477339332159  0.5731388234175084  1.0000
  O   O8        1.0  0.1285893632565944  0.2715516343627371  0.4268636146209345  1.0000
