data_image0
_chemical_formula_structural       Fe4H16C32O20
_chemical_formula_sum              "Fe4 H16 C32 O20"
_cell_length_a       12.220133932714855
_cell_length_b       12.375746694676618
_cell_length_c       12.374259516698155
_cell_angle_alpha    75.8863402405958
_cell_angle_beta     60.41563348692383
_cell_angle_gamma    60.41360814071533

_space_group_name_H-M_alt    "P 1"
_space_group_IT_number       1

loop_
  _space_group_symop_operation_xyz
  'x, y, z'

loop_
  _atom_site_type_symbol
  _atom_site_label
  _atom_site_symmetry_multiplicity
  _atom_site_fract_x
  _atom_site_fract_y
  _atom_site_fract_z
  _atom_site_occupancy
  Fe  Fe1       1.0  0.18854587009234092  0.9999447267331403  0.6229701800210138  1.0000
  Fe  Fe2       1.0  0.9385376904687986  0.12299202564940971  0.4999769703781355  1.0000
  Fe  Fe3       1.0  0.561516642884442  0.8770074665559375  0.5000064492086055  1.0000
  Fe  Fe4       1.0  0.8115075221823744  0.9999943179288946  0.3770281897974075  1.0000
  H   H1        1.0  0.37495784576032076  0.0635722113669246  0.43652898728485223  1.0000
  H   H2        1.0  0.8750558620775806  0.9364829754772258  0.5635355260752493  1.0000
  H   H3        1.0  0.18855802997783389  0.9364669209627225  0.4364197645816645  1.0000
  H   H4        1.0  0.5614355191633323  0.06351755393748698  0.5635157873858747  1.0000
  H   H5        1.0  0.11904310701307731  9.774000525909998e-05  0.9999405579738225  1.0000
  H   H6        1.0  0.6309404550441756  0.4999387654297179  0.500098838314301  1.0000
  H   H7        1.0  0.8809236318350245  3.4532304923100035e-05  0.9999978323461535  1.0000
  H   H8        1.0  0.8689485134656895  0.5000040319100376  0.5001511211024908  1.0000
  H   H9        1.0  0.5474486035395221  0.9436006055857221  0.807298560193104  1.0000
  H   H10       1.0  0.45158020560750606  0.30724988126864616  0.44382690631958616  1.0000
  H   H11       1.0  0.6453944312096312  0.056229656912187  0.8071776245127112  1.0000
  H   H12       1.0  0.10458909776978945  0.6927419496150762  0.443743465247586  1.0000
  H   H13       1.0  0.24118023966924798  0.30719548829067383  0.5561930693491491  1.0000
  H   H14       1.0  0.5088715401511054  0.9437702620067225  0.19275932847863708  1.0000
  H   H15       1.0  0.2027164648023856  0.692840998336699  0.5560413093577949  1.0000
  H   H16       1.0  0.29830362805484617  0.05637595279246449  0.19276545512447293  1.0000
  C   C1        1.0  0.34575685420905716  0.94879250926229  0.7724451087257975  1.0000
  C   C2        1.0  0.6828884059492848  0.27239447846877596  0.44897769241712404  1.0000
  C   C3        1.0  0.8818584563420727  0.05108172220722909  0.7724127652795122  1.0000
  C   C4        1.0  0.8681575081374934  0.7275570092770707  0.4488941640924509  1.0000
  C   C5        1.0  0.044638700636248495  0.2724055592417471  0.5511454144007147  1.0000
  C   C6        1.0  0.7053659249547692  0.9489332169014161  0.22757582494714515  1.0000
  C   C7        1.0  0.4043144624272375  0.7275915551852206  0.5509838501185983  1.0000
  C   C8        1.0  0.06699234334412552  0.051231287300268505  0.22752615730792772  1.0000
  C   C9        1.0  0.3339179016562215  0.9729464217883642  0.8913068147747228  1.0000
  C   C10       1.0  0.5518083426488688  0.39129361782458005  0.47301476026387246  1.0000
  C   C11       1.0  0.7748132133195753  0.027012597464924695  0.8912769349873462  1.0000
  C   C12       1.0  0.9752003737077642  0.6086653169922228  0.4729665491978847  1.0000
  C   C13       1.0  0.05685017014325675  0.39129085544836767  0.5271006480059912  1.0000
  C   C14       1.0  0.6930996746790683  0.9730384704186716  0.10871320826948523  1.0000
  C   C15       1.0  0.41614256092518787  0.6086988092729512  0.5269591729072474  1.0000
  C   C16       1.0  0.19814399587931317  0.027109074049420197  0.10869458896348767  1.0000
  C   C17       1.0  0.208120457432301  6.019270435329997e-05  0.9999917599164693  1.0000
  C   C18       1.0  0.5418826999154761  0.4999707391927969  0.5000194997376468  1.0000
  C   C19       1.0  0.7918483411468316  2.9274243004799983e-05  6.2134349720542405e-06  1.0000
  C   C20       1.0  0.9580855480276612  0.49999065056919517  0.5000767580809938  1.0000
  C   C21       1.0  0.449237793697577  0.9702621240940915  0.8923045695506322  1.0000
  C   C22       1.0  0.4381582568194915  0.39227388164581356  0.4703795525997237  1.0000
  C   C23       1.0  0.6585259464679182  0.0296568272429383  0.8922391643499666  1.0000
  C   C24       1.0  0.09148468234150202  0.6077055940833203  0.4703160578039275  1.0000
  C   C25       1.0  0.16954599499040046  0.39226188654461686  0.5296851613327647  1.0000
  C   C26       1.0  0.5804414799224844  0.970376226813272  0.10773950162967344  1.0000
  C   C27       1.0  0.30082798752818735  0.6077469908535774  0.5295835722159056  1.0000
  C   C28       1.0  0.3117723503598811  0.029737977810221097  0.10774699586188771  1.0000
  C   C29       1.0  0.4394958487522089  1.3996672947799998e-05  2.842773083238646e-05  1.0000
  C   C30       1.0  0.3104543584646535  0.500018732904138  0.5000177218073958  1.0000
  C   C31       1.0  0.5604765649563749  1.78595549798e-05  0.9999928941514753  1.0000
  C   C32       1.0  0.18951137979757254  0.4999796219100005  0.5000211584075062  1.0000
  O   O1        1.0  0.37503199262668124  0.9996823583855773  0.5003310164233951  1.0000
  O   O2        1.0  0.8751157011917171  0.00026319056929940005  0.4996212458427323  1.0000
  O   O3        1.0  0.12472732070219196  0.000317822405691  0.5002527554282069  1.0000
  O   O4        1.0  0.6253422989239256  0.9996350568841091  0.4997194380032683  1.0000
  O   O5        1.0  0.2319262042057134  0.9913966926803891  0.7640006867816428  1.0000
  O   O6        1.0  0.7625083677932878  0.2639080547306634  0.4916625700208358  1.0000
  O   O7        1.0  0.004123755054465229  0.008494102004483802  0.7639801890166353  1.0000
  O   O8        1.0  0.7458482452976511  0.7360217829062847  0.4916270813984911  1.0000
  O   O9        1.0  0.9733678992775411  0.26398005767447325  0.5085652928426115  1.0000
  O   O10       1.0  0.7764718863604898  0.9916599570313379  0.23606486790539813  1.0000
  O   O11       1.0  0.5181495808128885  0.7360723563857616  0.5082798720450017  1.0000
  O   O12       1.0  0.9873287372979433  0.0086189961885523  0.23597451312129178  1.0000
  O   O13       1.0  0.4690518874202848  0.8893621185231452  0.6881894171574247  1.0000
  O   O14       1.0  0.703229701905144  0.18814094238565093  0.3895855359101787  1.0000
  O   O15       1.0  0.8428498456055423  0.11045771721948935  0.6881115330146487  1.0000
  O   O16       1.0  0.9071752337966644  0.811823901198984  0.38945841951000665  1.0000
  O   O17       1.0  0.10866315509392886  0.18808141611062004  0.6104229847111854  1.0000
  O   O18       1.0  0.6416123366666256  0.8894147095006629  0.3118171837245001  1.0000
  O   O19       1.0  0.28102146410452594  0.8118400946171253  0.6104031575809331  1.0000
  O   O20       1.0  0.046579844380595065  0.11063229226641616  0.31181293987418013  1.0000
