data_image0
_chemical_formula_structural       Cu4H28C28N4Cl4O4
_chemical_formula_sum              "Cu4 H28 C28 N4 Cl4 O4"
_cell_length_a       3.7435164976487405
_cell_length_b       12.971201305830876
_cell_length_c       15.74613948908324
_cell_angle_alpha    89.99965586641885
_cell_angle_beta     89.99992754472136
_cell_angle_gamma    98.48163043564574

_space_group_name_H-M_alt    "P 1"
_space_group_IT_number       1

loop_
  _space_group_symop_operation_xyz
  'x, y, z'

loop_
  _atom_site_type_symbol
  _atom_site_label
  _atom_site_symmetry_multiplicity
  _atom_site_fract_x
  _atom_site_fract_y
  _atom_site_fract_z
  _atom_site_occupancy
  Cu  Cu1       1.0  0.7547816065228615  0.504532846586791  0.5608897972671655  1.0000
  Cu  Cu2       1.0  0.7452185393274318  0.9954716561151357  0.060888577499888186  1.0000
  Cu  Cu3       1.0  0.24521282758438187  0.495473571371889  0.43911019369971166  1.0000
  Cu  Cu4       1.0  0.25477192778816976  0.004526188608224398  0.9391088731833361  1.0000
  H   H1        1.0  0.3449583292098879  0.5825489162549431  0.0133865698203977  1.0000
  H   H2        1.0  0.15504991889419267  0.9174469262731223  0.5133838832445292  1.0000
  H   H3        1.0  0.6550399593394258  0.41744273733618076  0.9866153264111188  1.0000
  H   H4        1.0  0.8449809062544703  0.08255730745121777  0.4866110271126587  1.0000
  H   H5        1.0  0.9664902590707386  0.6414772769631794  0.97911512081221  1.0000
  H   H6        1.0  0.5335252757168902  0.8585201632108976  0.4791114519047497  1.0000
  H   H7        1.0  0.03352126047025189  0.35851987628957  0.020889950785616  1.0000
  H   H8        1.0  0.4665001961694415  0.14148404853708735  0.5208809181479808  1.0000
  H   H9        1.0  0.40448672855660556  0.7048710133827639  0.9574849733665969  1.0000
  H   H10       1.0  0.0955277439629042  0.7951214182752437  0.4574854102203147  1.0000
  H   H11       1.0  0.5955242219070556  0.29511913640210696  0.04251692286699439  1.0000
  H   H12       1.0  0.904502359896192  0.20488125666489052  0.5425126755222891  1.0000
  H   H13       1.0  0.03379434964482892  0.4770810497988761  0.7310853244478679  1.0000
  H   H14       1.0  0.4662048065105894  0.022918045293806696  0.23108636748465725  1.0000
  H   H15       1.0  0.9661938014699558  0.5229175633172928  0.2689121262337721  1.0000
  H   H16       1.0  0.5337990437928964  0.9770798543951497  0.7689110831967199  1.0000
  H   H17       1.0  0.15576468394543494  0.7787823578546521  0.8523333356120728  1.0000
  H   H18       1.0  0.3442128641273498  0.7212154032723888  0.35232581566008037  1.0000
  H   H19       1.0  0.8442220245710034  0.22121313767827638  0.14767427629819  1.0000
  H   H20       1.0  0.6558052990845339  0.27879033424091654  0.6476735402291353  1.0000
  H   H21       1.0  0.940126591892266  0.8505758354458166  0.7163803705184151  1.0000
  H   H22       1.0  0.5598675048548359  0.6494235497264211  0.2163739106687927  1.0000
  H   H23       1.0  0.05987746680691689  0.14942828829050814  0.2836291465973559  1.0000
  H   H24       1.0  0.4401383007934641  0.3505728021689833  0.7836273504739351  1.0000
  H   H25       1.0  0.7732422202572022  0.729640046242963  0.5952925957987246  1.0000
  H   H26       1.0  0.726764013567994  0.7703665489720778  0.09529058033972149  1.0000
  H   H27       1.0  0.22675365638110634  0.2703694892470736  0.40471057054181603  1.0000
  H   H28       1.0  0.27323376217718487  0.22962976995138007  0.9047087755752157  1.0000
  C   C1        1.0  0.2355580348378083  0.5702277575602608  0.8796814928232379  1.0000
  C   C2        1.0  0.2644306650171158  0.9297713935373648  0.3796793204356916  1.0000
  C   C3        1.0  0.7644183277971379  0.4297684734108174  0.12031976832354727  1.0000
  C   C4        1.0  0.7355771523100714  0.07023507941161707  0.6203143197663508  1.0000
  C   C5        1.0  0.24024386712171258  0.6273347791216038  0.9625911980758629  1.0000
  C   C6        1.0  0.259765200592767  0.8726575908307833  0.46259057733350767  1.0000
  C   C7        1.0  0.7597567374348203  0.3726561060816492  0.03740942800464349  1.0000
  C   C8        1.0  0.7402645426391815  0.1273443047308405  0.5374056031821579  1.0000
  C   C9        1.0  0.014800238137368565  0.5601066093037089  0.7303135054262596  1.0000
  C   C10       1.0  0.4851899692397408  0.9398937037963858  0.23030995679280855  1.0000
  C   C11       1.0  0.985180964958978  0.4398943089785303  0.2696871206321063  1.0000
  C   C12       1.0  0.5148172789876853  0.060105765667429985  0.7696849535790803  1.0000
  C   C13       1.0  0.11098336850574947  0.6213171783524629  0.8022046151190663  1.0000
  C   C14       1.0  0.38899612801965594  0.8786840902717543  0.3022020265622629  1.0000
  C   C15       1.0  0.8889894440314805  0.37868292755707966  0.1977979161712611  1.0000
  C   C16       1.0  0.6110072094764831  0.12131847474706345  0.6977935188788393  1.0000
  C   C17       1.0  0.08277254310362983  0.7277260533506292  0.798249102402522  1.0000
  C   C18       1.0  0.41721697863348334  0.7722737312561774  0.298243853511579  1.0000
  C   C19       1.0  0.9172159685998623  0.2722733391144132  0.20175787442164506  1.0000
  C   C20       1.0  0.5827982994906477  0.22772577117464718  0.7017542322407093  1.0000
  C   C21       1.0  0.9637162864814925  0.7682731310067225  0.7231231745479646  1.0000
  C   C22       1.0  0.5362654409214115  0.7317284848917539  0.22311949216300767  1.0000
  C   C23       1.0  0.03627438904902649  0.23173093777882764  0.27688253211185543  1.0000
  C   C24       1.0  0.46373037945652124  0.2682693818079613  0.7768804988246812  1.0000
  C   C25       1.0  0.8706753693396152  0.7016075598658561  0.6550406304090544  1.0000
  C   C26       1.0  0.6293238262893152  0.7983962104026926  0.15503786719772708  1.0000
  C   C27       1.0  0.1293233361100475  0.2983965419039904  0.3449638060970628  1.0000
  C   C28       1.0  0.3706746707294002  0.20160166729261414  0.8449614887132881  1.0000
  N   N1        1.0  0.8930326254983925  0.5983679458641474  0.6582473811389349  1.0000
  N   N2        1.0  0.6069676196852497  0.9016381376223989  0.1582428467830184  1.0000
  N   N3        1.0  0.10695913194884099  0.4016384610841257  0.3417570553624144  1.0000
  N   N4        1.0  0.39303731253495766  0.09836210022928778  0.8417533337398878  1.0000
  Cl  Cl1       1.0  0.7827266912829032  0.6099476247775752  0.4361472131607442  1.0000
  Cl  Cl2       1.0  0.7172609160423276  0.890052366881434  0.9361471854517163  1.0000
  Cl  Cl3       1.0  0.21727309609308773  0.3900588151624048  0.5638540479579959  1.0000
  Cl  Cl4       1.0  0.2827325883476135  0.10994626822097331  0.06385026522917771  1.0000
  O   O1        1.0  0.32931501059844953  0.48293441993666153  0.8742473471650597  1.0000
  O   O2        1.0  0.1706753357697082  0.017053418434578294  0.37424658925171866  1.0000
  O   O3        1.0  0.6706627383103837  0.5170532597779243  0.12575327892623278  1.0000
  O   O4        1.0  0.8293163654524063  0.9829413197505371  0.6257476860574727  1.0000
