data_image0
_chemical_formula_structural       Cu2H36C34I2N12
_chemical_formula_sum              "Cu2 H36 C34 I2 N12"
_cell_length_a       9.304271082340101
_cell_length_b       10.268156555926756
_cell_length_c       10.36814484421168
_cell_angle_alpha    82.87615411607293
_cell_angle_beta     81.9586076665261
_cell_angle_gamma    63.91017408381669

_space_group_name_H-M_alt    "P 1"
_space_group_IT_number       1

loop_
  _space_group_symop_operation_xyz
  'x, y, z'

loop_
  _atom_site_type_symbol
  _atom_site_label
  _atom_site_symmetry_multiplicity
  _atom_site_fract_x
  _atom_site_fract_y
  _atom_site_fract_z
  _atom_site_occupancy
  Cu  Cu1       1.0  0.9097169631081599  0.11137008809693327  0.08825597785492792  1.0000
  Cu  Cu2       1.0  0.09028352992259413  0.8886280942959602  0.9117430570878186  1.0000
  H   H1        1.0  0.6513160779983594  0.312020156093311  0.8597838705552621  1.0000
  H   H2        1.0  0.34867904084021717  0.6879801778009523  0.1402175070853602  1.0000
  H   H3        1.0  0.4864833086152489  0.5408280814148654  0.7282312676821122  1.0000
  H   H4        1.0  0.5135144973194202  0.45917117672870944  0.2717689386095685  1.0000
  H   H5        1.0  0.4801457580525225  0.7751604146115767  0.7628086958448037  1.0000
  H   H6        1.0  0.5198515241968098  0.22483993014346026  0.2371904778574248  1.0000
  H   H7        1.0  0.6378801454764585  0.7974554184355825  0.9277651866763109  1.0000
  H   H8        1.0  0.36211877930795583  0.20254602510181025  0.07223364346071293  1.0000
  H   H9        1.0  0.8802946802129343  0.7136356463187922  0.06818287209323874  1.0000
  H   H10       1.0  0.11970473017589008  0.2863625302070004  0.9318163004978217  1.0000
  H   H11       1.0  0.957647650073689  0.5821624357690709  0.20029050141416596  1.0000
  H   H12       1.0  0.04235500730437287  0.4178357579212957  0.7997072939110624  1.0000
  H   H13       1.0  0.7243872561494554  0.8289087744775117  0.25612016690957523  1.0000
  H   H14       1.0  0.2756143204597805  0.17108941421918897  0.7438796947057257  1.0000
  H   H15       1.0  0.5982448216945148  0.7807055767029849  0.18129569652420938  1.0000
  H   H16       1.0  0.4017567549147216  0.21929261199371547  0.8187041650910915  1.0000
  H   H17       1.0  0.7969144268915617  0.6050686486476805  0.4086804328171851  1.0000
  H   H18       1.0  0.20308554432696727  0.3949306212300954  0.5913194981778674  1.0000
  H   H19       1.0  0.6613957447997266  0.5592132420993536  0.34399043447736233  1.0000
  H   H20       1.0  0.3386042273553471  0.4407860282151361  0.6560104608385657  1.0000
  H   H21       1.0  0.5623994209672816  0.6889513566205493  0.5572740518095074  1.0000
  H   H22       1.0  0.4376000265659172  0.3110489998686816  0.44272484659608585  1.0000
  H   H23       1.0  0.5663904072956502  0.8457992942756364  0.4693086706355983  1.0000
  H   H24       1.0  0.43361012194292675  0.1542010676439673  0.5306891258008051  1.0000
  H   H25       1.0  0.35665411319757134  0.8535128648020631  0.3300545975947601  1.0000
  H   H26       1.0  0.6433442888380655  0.1464896657834913  0.6699441642736943  1.0000
  H   H27       1.0  0.3591112413048876  0.6944090899417577  0.42025144110640167  1.0000
  H   H28       1.0  0.6408876825429746  0.3055923531589215  0.5797464247097395  1.0000
  H   H29       1.0  0.18698911859836903  0.11465214631018482  0.3132641018882794  1.0000
  H   H30       1.0  0.8130119742795618  0.8853493102715361  0.686737345914743  1.0000
  H   H31       1.0  0.9943357583907397  0.3628408098832806  0.36916838361911186  1.0000
  H   H32       1.0  0.005668062473866137  0.637161752658038  0.6308354759330257  1.0000
  H   H33       1.0  0.8677482833495915  0.41668843201051686  0.5960281383633728  1.0000
  H   H34       1.0  0.13225225057174594  0.5833119320926557  0.40397447967742295  1.0000
  H   H35       1.0  0.928441461851968  0.21703900896908826  0.7752703442621968  1.0000
  H   H36       1.0  0.07156011756691794  0.7829591810377534  0.22473241031574537  1.0000
  C   C1        1.0  0.7379904951606026  0.4286177308597914  0.965799218624497  1.0000
  C   C2        1.0  0.26200839060634007  0.5713815318407428  0.03419795705623588  1.0000
  C   C3        1.0  0.650496941955666  0.4163338216196735  0.8716542732275627  1.0000
  C   C4        1.0  0.349501461016523  0.5836687094025945  0.12834545296176714  1.0000
  C   C5        1.0  0.5606668342294017  0.5430767361122548  0.7997815455555046  1.0000
  C   C6        1.0  0.43933261236724525  0.4569236199402555  0.20021638852921342  1.0000
  C   C7        1.0  0.5565117191932601  0.6787735159712086  0.8193418766474709  1.0000
  C   C8        1.0  0.44348664476144983  0.32122683421420817  0.18065619508556097  1.0000
  C   C9        1.0  0.6418902508661548  0.6930264883693694  0.9115471867622986  1.0000
  C   C10       1.0  0.3581108029942969  0.3069727873754998  0.08845260658443273  1.0000
  C   C11       1.0  0.7316007747057753  0.5650331917918122  0.9843930339115233  1.0000
  C   C12       1.0  0.26840024201030843  0.43496390398962603  0.015607033620668228  1.0000
  C   C13       1.0  0.8518442426828445  0.6432766684535024  0.14598914704228597  1.0000
  C   C14       1.0  0.14815733392639177  0.356721520243198  0.8540107145730147  1.0000
  C   C15       1.0  0.7058899354633044  0.7352342748433003  0.2351866863256832  1.0000
  C   C16       1.0  0.29411164114593197  0.2647639138534005  0.7648131752896249  1.0000
  C   C17       1.0  0.6832336275054516  0.6521192590955492  0.3628497328481901  1.0000
  C   C18       1.0  0.3167663446496223  0.3478800112189404  0.6371511624677383  1.0000
  C   C19       1.0  0.5507432145968213  0.7470436800667954  0.460202312284963  1.0000
  C   C20       1.0  0.4492562329363708  0.2529566764224284  0.5397965861206302  1.0000
  C   C21       1.0  0.38054436553520105  0.7907430963330738  0.42485717288052877  1.0000
  C   C22       1.0  0.6194545592492134  0.2092583472043188  0.5751416572564949  1.0000
  C   C23       1.0  0.1671382191934185  0.027399357815831096  0.5153971030184722  1.0000
  C   C24       1.0  0.8328633954967446  0.9726010112810142  0.4846034487322441  1.0000
  C   C25       1.0  0.13511144343193854  0.1370161645069317  0.4135956579001175  1.0000
  C   C26       1.0  0.864890173131322  0.8629842054633413  0.5864068224923571  1.0000
  C   C27       1.0  0.02642642855522582  0.2758152604566178  0.4465490143547585  1.0000
  C   C28       1.0  0.9735762697134124  0.724185114944042  0.5534523640685195  1.0000
  C   C29       1.0  0.9529285231170805  0.3057166154100841  0.5754496704041188  1.0000
  C   C30       1.0  0.047073093446186966  0.6942837545601819  0.42455280998835593  1.0000
  C   C31       1.0  0.984412204712882  0.19689622490819397  0.6758508030752708  1.0000
  C   C32       1.0  0.015588851957225905  0.8031030521468098  0.3241518832341016  1.0000
  C   C33       1.0  0.092859509154593  0.05597930077178148  0.6438288627044813  1.0000
  C   C34       1.0  0.9071431510331252  0.9440188942287266  0.3561718255833811  1.0000
  I   I1        1.0  0.7688550096567185  0.010426634423069498  0.9505389121812868  1.0000
  I   I2        1.0  0.23114496062525794  0.989572635017993  0.049460054492882856  1.0000
  N   N1        1.0  0.8362696471500543  0.32798836842776075  0.05434602893625848  1.0000
  N   N2        1.0  0.16372923955343305  0.6720108947094874  0.9456521110653496  1.0000
  N   N3        1.0  0.8868177390617336  0.3950666809060692  0.1251661343544157  1.0000
  N   N4        1.0  0.11317793686033899  0.6049347445933221  0.8748321444066818  1.0000
  N   N5        1.0  0.8251749011846315  0.5374373463174535  0.08382623344318321  1.0000
  N   N6        1.0  0.1748250681607858  0.46256192268688767  0.9161717689101111  1.0000
  N   N7        1.0  0.26148571587768293  0.8806075993420706  0.5225485479549263  1.0000
  N   N8        1.0  0.7385142924852135  0.11939385049913649  0.4774511088546589  1.0000
  N   N9        1.0  0.24839254623608312  0.8219477076347772  0.6454697302198938  1.0000
  N   N10       1.0  0.7516085066878233  0.17805156767337846  0.35452909880596206  1.0000
  N   N11       1.0  0.14739139855640096  0.9260020499094425  0.719236311283986  1.0000
  N   N12       1.0  0.8526107379459875  0.07399723170252058  0.28076334441443157  1.0000
