data_image0
_chemical_formula_structural       Tl4H56C40S4N4O8
_chemical_formula_sum              "Tl4 H56 C40 S4 N4 O8"
_cell_length_a       8.692165149015118
_cell_length_b       10.565054174018364
_cell_length_c       13.398844151005365
_cell_angle_alpha    89.99992575071865
_cell_angle_beta     89.99992879035909
_cell_angle_gamma    89.99979916208638

_space_group_name_H-M_alt    "P 1"
_space_group_IT_number       1

loop_
  _space_group_symop_operation_xyz
  'x, y, z'

loop_
  _atom_site_type_symbol
  _atom_site_label
  _atom_site_symmetry_multiplicity
  _atom_site_fract_x
  _atom_site_fract_y
  _atom_site_fract_z
  _atom_site_occupancy
  Tl  Tl1       1.0  0.4689315984879628  0.22550264610961782  0.5959003492114763  1.0000
  Tl  Tl2       1.0  0.0310687727173971  0.7744956684138418  0.09590040046869325  1.0000
  Tl  Tl3       1.0  0.968931381076857  0.2744966233879397  0.40409999534978186  1.0000
  Tl  Tl4       1.0  0.5310701110104503  0.7255025791835265  0.9040990406237203  1.0000
  H   H1        1.0  0.46252114420587276  0.46434419940048577  0.15145144480793252  1.0000
  H   H2        1.0  0.0374814219869535  0.5356597030882142  0.6514514255606587  1.0000
  H   H3        1.0  0.9625187932121193  0.03565792818793059  0.8485489049456449  1.0000
  H   H4        1.0  0.5374793534123086  0.96434231203672  0.34854801033650784  1.0000
  H   H5        1.0  0.659829585281983  0.543439483043727  0.270227987682553  1.0000
  H   H6        1.0  0.8401733125272058  0.45656088565915093  0.7702278042031454  1.0000
  H   H7        1.0  0.15983201706802672  0.9565631247816452  0.7297758271001273  1.0000
  H   H8        1.0  0.3401727007025315  0.043441595732467385  0.22977189832680275  1.0000
  H   H9        1.0  0.6654622812325145  0.44802666511709077  0.44380793215849945  1.0000
  H   H10       1.0  0.8345414360641925  0.5519715257923323  0.9438084019045123  1.0000
  H   H11       1.0  0.16546446212451832  0.05197348194746349  0.5561941508987546  1.0000
  H   H12       1.0  0.3345405866260265  0.948031523326911  0.05619079335226471  1.0000
  H   H13       1.0  0.11680326742361298  0.36220242040789685  0.0025559579422278003  1.0000
  H   H14       1.0  0.3831949808344035  0.637800779832908  0.5025570467479882  1.0000
  H   H15       1.0  0.6168048003827877  0.13779597433623536  0.9974461645333863  1.0000
  H   H16       1.0  0.8831942127968945  0.8622011820715225  0.4974443480956411  1.0000
  H   H17       1.0  0.09334681795159132  0.2016694099421485  0.0383979472079758  1.0000
  H   H18       1.0  0.40665366288765636  0.798334678015827  0.5383958673459903  1.0000
  H   H19       1.0  0.593346586704442  0.2983299991531183  0.9616034479361704  1.0000
  H   H20       1.0  0.9066513443554811  0.7016672160543179  0.46160401582906746  1.0000
  H   H21       1.0  0.34596870434764065  0.29657178426218417  0.894042497512331  1.0000
  H   H22       1.0  0.15402994789950952  0.7034298272275022  0.3940425219113878  1.0000
  H   H23       1.0  0.8459716583120597  0.203427840813923  0.10595869298902733  1.0000
  H   H24       1.0  0.6540281013412611  0.79657090434452  0.6059583122399632  1.0000
  H   H25       1.0  0.17089743917284042  0.22348015608859834  0.8577752984054928  1.0000
  H   H26       1.0  0.3291012822304893  0.776520568381535  0.3577743598302448  1.0000
  H   H27       1.0  0.6709011638876062  0.2765199752581892  0.14222454124919182  1.0000
  H   H28       1.0  0.8290996770750283  0.7234787104032918  0.6422255861686994  1.0000
  H   H29       1.0  0.30938779632209185  0.13578986226793424  0.9257617485445383  1.0000
  H   H30       1.0  0.19061194590535993  0.8642126437033322  0.4257593397228165  1.0000
  H   H31       1.0  0.8093889771653835  0.36420892207922856  0.07423872525802722  1.0000
  H   H32       1.0  0.6906108429718216  0.6357889285984085  0.5742392257947275  1.0000
  H   H33       1.0  0.2510016327126792  0.3551368540955692  0.6996302141170859  1.0000
  H   H34       1.0  0.2489973902435665  0.6448603437434597  0.19963096787265044  1.0000
  H   H35       1.0  0.7510021638929557  0.14486209909408387  0.3003695606495  1.0000
  H   H36       1.0  0.7489983755227952  0.8551372736484665  0.8003690430158487  1.0000
  H   H37       1.0  0.2756249249603115  0.4246566752219322  0.5781771550279518  1.0000
  H   H38       1.0  0.22437317911568042  0.575341668379103  0.07817799989526722  1.0000
  H   H39       1.0  0.7756266704001292  0.07534220676039638  0.4218225997915966  1.0000
  H   H40       1.0  0.7243736374325139  0.9246569667384817  0.9218220309402557  1.0000
  H   H41       1.0  0.41372499471007274  0.45590091100393704  0.6758832721753905  1.0000
  H   H42       1.0  0.08627292306128001  0.5440982188273933  0.17588351456385717  1.0000
  H   H43       1.0  0.9137270592048027  0.04409851813662159  0.32411711710607  1.0000
  H   H44       1.0  0.5862734349277544  0.9559017621647211  0.8241166281418162  1.0000
  H   H45       1.0  0.48527112736672956  0.9735309385276663  0.6325165510135379  1.0000
  H   H46       1.0  0.0147268730958956  0.026468262447508595  0.13251588857576024  1.0000
  H   H47       1.0  0.9852697326939008  0.5264688351614238  0.3674840148096196  1.0000
  H   H48       1.0  0.5147283778281277  0.4735304274839434  0.8674825849235648  1.0000
  H   H49       1.0  0.6747541357791179  0.03197943244889959  0.6065288936275763  1.0000
  H   H50       1.0  0.8252433218662888  0.968018365260768  0.10652850847795042  1.0000
  H   H51       1.0  0.1747537087491153  0.4680197412338102  0.39347168923811904  1.0000
  H   H52       1.0  0.325244944590132  0.5319809246770503  0.8934699479788366  1.0000
  H   H53       1.0  0.541720694788914  0.0035709559165014  0.5056501112513134  1.0000
  H   H54       1.0  0.958278105668704  0.9964279537999372  0.005649589253273701  1.0000
  H   H55       1.0  0.0417188042392311  0.49642860247404735  0.4943505793811554  1.0000
  H   H56       1.0  0.4582785062898154  0.5035700049133709  0.9943487594372159  1.0000
  C   C1        1.0  0.3764967473107603  0.27946200105245816  0.3540205398872234  1.0000
  C   C2        1.0  0.1235054326347225  0.7205387295712099  0.8540210080305644  1.0000
  C   C3        1.0  0.8764939970357943  0.22053658923552882  0.6459791332210686  1.0000
  C   C4        1.0  0.6235045358480348  0.7794611437540766  0.14597910451480092  1.0000
  C   C5        1.0  0.3642834323367267  0.3316861570570778  0.2558426465520399  1.0000
  C   C6        1.0  0.1357212357274378  0.6683175741734856  0.7558439045925526  1.0000
  C   C7        1.0  0.8642761149049604  0.16831436159052518  0.7441555437846861  1.0000
  C   C8        1.0  0.6357199298583041  0.8316822638273746  0.24415545172430345  1.0000
  C   C9        1.0  0.468485146834233  0.42543188190765585  0.22660048178056516  1.0000
  C   C10       1.0  0.031516125611297206  0.5745690577507077  0.7266004275332066  1.0000
  C   C11       1.0  0.96848162334026  0.07456928191970749  0.7733991168096923  1.0000
  C   C12       1.0  0.5315178170402106  0.9254301350691773  0.2733990131961904  1.0000
  C   C13       1.0  0.5783402399423779  0.47071965201926236  0.29320615934315003  1.0000
  C   C14       1.0  0.9216660654327172  0.5292816254978945  0.7932080744077938  1.0000
  C   C15       1.0  0.07833877870409371  0.0292826400250235  0.7067937552903276  1.0000
  C   C16       1.0  0.4216648324288172  0.9707202251578619  0.20679179660574223  1.0000
  C   C17       1.0  0.5818514712280204  0.41726693279245797  0.38791435455927126  1.0000
  C   C18       1.0  0.9181512021871329  0.5827304032966651  0.887913232421653  1.0000
  C   C19       1.0  0.08185226438841652  0.0827325095423106  0.6120885425625389  1.0000
  C   C20       1.0  0.4181503768669828  0.9172695644900201  0.11208589510694374  1.0000
  C   C21       1.0  0.2405595133397257  0.2951754598364573  0.18476867424310237  1.0000
  C   C22       1.0  0.2594383874871866  0.7048255484534565  0.6847668093556791  1.0000
  C   C23       1.0  0.7405461529458961  0.2048263631204179  0.8152303626534521  1.0000
  C   C24       1.0  0.7594497562960214  0.7951691991826164  0.3152302077400151  1.0000
  C   C25       1.0  0.1772383360944545  0.2714408408342379  0.012007541454558205  1.0000
  C   C26       1.0  0.32275989414102213  0.7285632904191884  0.5120070936404633  1.0000
  C   C27       1.0  0.6772395014393737  0.22855832566175846  0.9879937857311564  1.0000
  C   C28       1.0  0.8227606802223164  0.7714397927669123  0.4879928574925432  1.0000
  C   C29       1.0  0.25682647719552415  0.2296967043411868  0.9175819117222235  1.0000
  C   C30       1.0  0.24317213016690423  0.7703058150501078  0.4175803027852966  1.0000
  C   C31       1.0  0.7568291918999464  0.27030317851711055  0.08241860465750511  1.0000
  C   C32       1.0  0.7431706126382309  0.7296956052582358  0.5824189664881061  1.0000
  C   C33       1.0  0.3344376776975296  0.3865857425027954  0.6437447466808524  1.0000
  C   C34       1.0  0.16556145181883153  0.6134124935341633  0.14374410755209516  1.0000
  C   C35       1.0  0.8344393864014066  0.11341296940504009  0.3562549604963508  1.0000
  C   C36       1.0  0.6655610464536394  0.8865863116574814  0.8562544782592313  1.0000
  C   C37       1.0  0.5542019117886953  0.033778007570958786  0.5832142439027808  1.0000
  C   C38       1.0  0.9457955903124997  0.966219828386478  0.08321376293854141  1.0000
  C   C39       1.0  0.0542014479420061  0.4662224612410598  0.4167864366179901  1.0000
  C   C40       1.0  0.4457971609407423  0.5337781664214276  0.9167853421962067  1.0000
  S   S1        1.0  0.26454096871160704  0.15714661475106337  0.3993499309584366  1.0000
  S   S2        1.0  0.23546112479989026  0.8428540415086944  0.8993516758652762  1.0000
  S   S3        1.0  0.764540086087031  0.34285324580552856  0.6006483401743808  1.0000
  S   S4        1.0  0.7354596836935556  0.6571445615475469  0.10064834598902914  1.0000
  N   N1        1.0  0.4869236241999675  0.3243882041703614  0.4167191639731486  1.0000
  N   N2        1.0  0.0130807371194663  0.6756105305588063  0.9167205138927702  1.0000
  N   N3        1.0  0.98692463574816  0.17561006678006658  0.5832804196802999  1.0000
  N   N4        1.0  0.5130786185297893  0.8243896620940561  0.08327968810464632  1.0000
  O   O1        1.0  0.1052664299565009  0.2757739384823025  0.20679750478735315  1.0000
  O   O2        1.0  0.3947394821000286  0.7242251406244192  0.7067955104400596  1.0000
  O   O3        1.0  0.6052714365081756  0.22422827568449577  0.7932061196966135  1.0000
  O   O4        1.0  0.8947222138116545  0.7757644832020602  0.29320662139775083  1.0000
  O   O5        1.0  0.29352800604394247  0.2897850486290494  0.08983210836046852  1.0000
  O   O6        1.0  0.2064712262470607  0.7102246340514995  0.5898317735243099  1.0000
  O   O7        1.0  0.793528247265357  0.210213781582766  0.9101683782899957  1.0000
  O   O8        1.0  0.7064709323307525  0.7897835180021816  0.4101690181415167  1.0000
