data_image0
_chemical_formula_structural       Ag2H8C12N6O16
_chemical_formula_sum              "Ag2 H8 C12 N6 O16"
_cell_length_a       3.7764824263615044
_cell_length_b       11.931492044326792
_cell_length_c       11.931554246823563
_cell_angle_alpha    117.09654613553575
_cell_angle_beta     92.25091243055095
_cell_angle_gamma    92.25088422233478

_space_group_name_H-M_alt    "P 1"
_space_group_IT_number       1

loop_
  _space_group_symop_operation_xyz
  'x, y, z'

loop_
  _atom_site_type_symbol
  _atom_site_label
  _atom_site_symmetry_multiplicity
  _atom_site_fract_x
  _atom_site_fract_y
  _atom_site_fract_z
  _atom_site_occupancy
  Ag  Ag1       1.0  0.5000030605563239  0.5000009263260311  0.500000514517538  1.0000
  Ag  Ag2       1.0  9.504373508688289e-06  0.9999986996924831  5.906123306214403e-07  1.0000
  H   H1        1.0  0.5662377607601172  0.7750454610683236  0.8509143676445209  1.0000
  H   H2        1.0  0.43377161641538464  0.1490869043197094  0.22495622331990012  1.0000
  H   H3        1.0  0.4337763841587972  0.22495647644114314  0.14908844623848694  1.0000
  H   H4        1.0  0.5662371027989862  0.8509140548562754  0.7750461111497061  1.0000
  H   H5        1.0  0.7620772549555639  0.3848832400541581  0.9185019568812008  1.0000
  H   H6        1.0  0.23790600093425243  0.08150074040223389  0.6151147792058113  1.0000
  H   H7        1.0  0.23789646559695402  0.6151137017029383  0.08149745834790416  1.0000
  H   H8        1.0  0.7621114208986339  0.9185068253175643  0.3848880311544961  1.0000
  C   C1        1.0  0.9999935117764595  0.36801048675283  0.6319859078946025  1.0000
  C   C2        1.0  4.070075838992874e-06  0.6319874926318789  0.36801082251440687  1.0000
  C   C3        1.0  0.8659286675996257  0.41470783819021767  0.7579705020038647  1.0000
  C   C4        1.0  0.1340634221312982  0.24202506944515528  0.5852911694937293  1.0000
  C   C5        1.0  0.134066448436819  0.5852910986889484  0.242028305529992  1.0000
  C   C6        1.0  0.8659337979340407  0.7579700806355306  0.41470430981156187  1.0000
  C   C7        1.0  0.8666294849879035  0.3462186925958902  0.8255087441504403  1.0000
  C   C8        1.0  0.1333453697550269  0.17448945843525368  0.653784020208285  1.0000
  C   C9        1.0  0.1333499024604663  0.6537811136973702  0.1744919845612074  1.0000
  C   C10       1.0  0.866647401061215  0.8255113790397101  0.34621728148499636  1.0000
  C   C11       1.0  0.9999813055294525  0.22697024181699277  0.7730292570534304  1.0000
  C   C12       1.0  0.9999980426594773  0.7730261108363193  0.22696679841024558  1.0000
  N   N1        1.0  0.7206009404474826  0.5378078562224005  0.8202406739549348  1.0000
  N   N2        1.0  0.27939869355262203  0.17975649435290814  0.4621902041590432  1.0000
  N   N3        1.0  0.27939619209367084  0.46218636676154273  0.1797552339556319  1.0000
  N   N4        1.0  0.7206098058517015  0.8202434737079541  0.5378091763564542  1.0000
  N   N5        1.0  0.9999868845945059  0.1556823276101795  0.8443189292212099  1.0000
  N   N6        1.0  0.999999140017188  0.8443235713116478  0.1556855871662465  1.0000
  O   O1        1.0  1.1295102879988792e-06  0.43012872976102995  0.5698706953209723  1.0000
  O   O2        1.0  4.087477826415258e-06  0.5698699268078257  0.4301295508005296  1.0000
  O   O3        1.0  0.33157251970896345  0.24020277796994086  0.401129532089911  1.0000
  O   O4        1.0  0.6684365720228059  0.5988732192413977  0.7598001793302843  1.0000
  O   O5        1.0  0.668446381793288  0.7597953903571265  0.5988699847539395  1.0000
  O   O6        1.0  0.33156418952823685  0.40112768708637236  0.24020206157108254  1.0000
  O   O7        1.0  0.6479227285717498  0.577658385686945  0.9322519008025127  1.0000
  O   O8        1.0  0.3520816695107172  0.0677503064914688  0.4223433430932034  1.0000
  O   O9        1.0  0.3520723213217635  0.42234051918303084  0.06774521545164454  1.0000
  O   O10       1.0  0.6479271702993117  0.9322515957858567  0.5776594084109804  1.0000
  O   O11       1.0  0.8452524244091749  0.1981533316852264  0.9442634310143562  1.0000
  O   O12       1.0  0.1547411763816982  0.05573929265326431  0.8018492164866445  1.0000
  O   O13       1.0  0.15474839159458745  0.8018484857346947  0.05573753564188879  1.0000
  O   O14       1.0  0.8452731766570594  0.9442645150542929  0.1981535858256578  1.0000
  O   O15       1.0  0.5423985652923163  0.8607965875832444  0.8607977083082476  1.0000
  O   O16       1.0  0.4576128395479698  0.13920440521341246  0.13920550299062745  1.0000
