data_image0
_chemical_formula_structural       Cu2H12C4N24O12
_chemical_formula_sum              "Cu2 H12 C4 N24 O12"
_cell_length_a       7.986360935143353
_cell_length_b       8.123014645305481
_cell_length_c       8.953744956000499
_cell_angle_alpha    90.00002248947904
_cell_angle_beta     90.00002320490981
_cell_angle_gamma    107.62334949046907

_space_group_name_H-M_alt    "P 1"
_space_group_IT_number       1

loop_
  _space_group_symop_operation_xyz
  'x, y, z'

loop_
  _atom_site_type_symbol
  _atom_site_label
  _atom_site_symmetry_multiplicity
  _atom_site_fract_x
  _atom_site_fract_y
  _atom_site_fract_z
  _atom_site_occupancy
  Cu  Cu1       1.0  0.9999976026639604  0.9999981235591805  1.4798269490000009e-06  1.0000
  Cu  Cu2       1.0  0.500000412805619  0.4999998654950845  0.49999990473264705  1.0000
  H   H1        1.0  0.5753278074879091  0.8625530637986858  0.944960168464924  1.0000
  H   H2        1.0  0.9246737131511368  0.6374516607163514  0.44495934969945244  1.0000
  H   H3        1.0  0.4246692570773123  0.13744665202266051  0.05504187470192081  1.0000
  H   H4        1.0  0.07532829103343627  0.36255194532255075  0.5550426934689912  1.0000
  H   H5        1.0  0.6274495859573437  0.8850031574818972  0.5099087013384036  1.0000
  H   H6        1.0  0.8725508681616033  0.6149987177328102  0.009906738779193304  1.0000
  H   H7        1.0  0.3725507716874504  0.11499915181782681  0.490093341829507  1.0000
  H   H8        1.0  0.12744995744890997  0.3850010132566766  0.9900908369838888  1.0000
  H   H9        1.0  0.418926304547597  0.8221006325270539  0.4394677359770328  1.0000
  H   H10       1.0  0.0810742501505501  0.677901030570716  0.939467372145522  1.0000
  H   H11       1.0  0.5810724065574108  0.17790038003348488  0.5605343071903448  1.0000
  H   H12       1.0  0.9189282220008225  0.3220999971589862  0.06053355417142113  1.0000
  C   C1        1.0  0.6122233674282286  0.8682799911114502  0.06180569285840681  1.0000
  C   C2        1.0  0.8877708517788464  0.6317218905461248  0.561811006347675  1.0000
  C   C3        1.0  0.387770646692843  0.13172616289457303  0.9381874155001882  1.0000
  C   C4        1.0  0.11222879525904265  0.36827396539531787  0.43818656941448353  1.0000
  N   N1        1.0  0.49817671890792786  0.8228820493835799  0.17451716131838427  1.0000
  N   N2        1.0  0.0018199037314445645  0.6771194365885904  0.6745190024716977  1.0000
  N   N3        1.0  0.501819484831515  0.17711895306293002  0.8254815312952106  1.0000
  N   N4        1.0  0.9981804539126246  0.3228828727104514  0.32548080699399423  1.0000
  N   N5        1.0  0.6052730494539136  0.8533281727286167  0.2919049389706602  1.0000
  N   N6        1.0  0.8947288403631009  0.646673879919753  0.7919057930408118  1.0000
  N   N7        1.0  0.39472816901449914  0.1466728499439043  0.7080937536438372  1.0000
  N   N8        1.0  0.1052723781056741  0.353327142753102  0.20809401642479494  1.0000
  N   N9        1.0  0.7740429983533447  0.9118001043477122  0.2622179606019658  1.0000
  N   N10       1.0  0.7259597331268425  0.5882006435276422  0.7622187326566492  1.0000
  N   N11       1.0  0.22596033462273377  0.08819963675580311  0.7377829657148995  1.0000
  N   N12       1.0  0.2740398388028709  0.41179908240670937  0.23778331051064341  1.0000
  N   N13       1.0  0.7789766576016323  0.9225626053915478  0.11307701667903564  1.0000
  N   N14       1.0  0.7210263704728281  0.5774393430008687  0.6130777830119173  1.0000
  N   N15       1.0  0.22102746108988217  0.07743971907768812  0.8869250264895501  1.0000
  N   N16       1.0  0.27897108694993733  0.4225616645031636  0.3869242601552331  1.0000
  N   N17       1.0  0.8523153431668435  0.12072715687090614  0.7267095052705985  1.0000
  N   N18       1.0  0.6476854677586701  0.37926945190783107  0.22670755909141604  1.0000
  N   N19       1.0  0.1476846967296695  0.8792699907542458  0.2732914210451938  1.0000
  N   N20       1.0  0.3523149649950241  0.6207289873996586  0.7732922503735724  1.0000
  N   N21       1.0  0.5424977747792995  0.8069127305634041  0.43359311851008203  1.0000
  N   N22       1.0  0.957502167092905  0.6930868202727326  0.933592895292563  1.0000
  N   N23       1.0  0.4575017971496963  0.19308699537027252  0.5664066909549917  1.0000
  N   N24       1.0  0.04249865851797102  0.3069129107170951  0.06640579732162882  1.0000
  O   O1        1.0  0.8487522463681503  0.9879180856601624  0.808040995447968  1.0000
  O   O2        1.0  0.6512480073235383  0.5120826801119805  0.3080400325586652  1.0000
  O   O3        1.0  0.1512493649585238  0.0120842286957199  0.19195993086906077  1.0000
  O   O4        1.0  0.34875195746263193  0.48791833750403407  0.6919586600556046  1.0000
  O   O5        1.0  0.9301062175159914  0.26992986430863664  0.7694570228849927  1.0000
  O   O6        1.0  0.5698987749059371  0.23006807745329644  0.2694572277125929  1.0000
  O   O7        1.0  0.06989507606277102  0.7300672883730144  0.2305439034310268  1.0000
  O   O8        1.0  0.4301070654342639  0.7699316737628906  0.7305425817536106  1.0000
  O   O9        1.0  0.774905823737335  0.09106645839262481  0.6020298121848813  1.0000
  O   O10       1.0  0.7250948316034994  0.40893394416416845  0.10202678781659102  1.0000
  O   O11       1.0  0.22509414105027772  0.9089345592247541  0.3979733478338333  1.0000
  O   O12       1.0  0.27490599400736937  0.5910657868256662  0.8979719047975938  1.0000
