data_image0
_chemical_formula_structural       Hf6H46C66N6O32
_chemical_formula_sum              "Hf6 H46 C66 N6 O32"
_cell_length_a       14.012720467806247
_cell_length_b       14.024494084632336
_cell_length_c       14.1118857659856
_cell_angle_alpha    87.99867475435319
_cell_angle_beta     86.02224394886368
_cell_angle_gamma    89.12596003042763

_space_group_name_H-M_alt    "P 1"
_space_group_IT_number       1

loop_
  _space_group_symop_operation_xyz
  'x, y, z'

loop_
  _atom_site_type_symbol
  _atom_site_label
  _atom_site_symmetry_multiplicity
  _atom_site_fract_x
  _atom_site_fract_y
  _atom_site_fract_z
  _atom_site_occupancy
  Hf  Hf1       1.0  0.8144547544465369  0.19338949220065155  0.9526301870942218  1.0000
  Hf  Hf2       1.0  0.7163838873868829  0.9917484867159772  0.8552682728233234  1.0000
  Hf  Hf3       1.0  0.03419395678331231  0.07560240172828972  0.9594935717099842  1.0000
  Hf  Hf4       1.0  0.9245525680274014  0.09719830892444038  0.7433910986189287  1.0000
  Hf  Hf5       1.0  0.8270028926044192  0.9677522406795518  0.06800012959770639  1.0000
  Hf  Hf6       1.0  0.9394726894863581  0.8748873301364031  0.8581807524539967  1.0000
  H   H1        1.0  0.1664952111629816  0.4433889666892199  0.20489380286691264  1.0000
  H   H2        1.0  0.15450040051458563  0.6306433849532308  0.21767926911072513  1.0000
  H   H3        1.0  0.5917650460786846  0.6248440565560357  0.6122377661442825  1.0000
  H   H4        1.0  0.6073203981145029  0.4365899060504788  0.6031752744699046  1.0000
  H   H5        1.0  0.213025136968426  0.7397891864731109  0.48791797136440335  1.0000
  H   H6        1.0  0.19145046986916733  0.7515456740858183  0.3028213755998337  1.0000
  H   H7        1.0  0.5435408034351212  0.31790068436463054  0.3239986608813368  1.0000
  H   H8        1.0  0.5655483260975345  0.301730182549356  0.509651162177512  1.0000
  H   H9        1.0  0.43010395001128643  0.7248839102638129  0.19532727771736086  1.0000
  H   H10       1.0  0.24568250205462766  0.7198342474597224  0.16858702070705786  1.0000
  H   H11       1.0  0.31746401148792114  0.3457291825156544  0.6247277077911519  1.0000
  H   H12       1.0  0.5027860919396191  0.3489307387937472  0.651479001159302  1.0000
  H   H13       1.0  0.738806915926361  0.17651349385219103  0.7736046601135128  1.0000
  H   H14       1.0  0.9084847049407402  0.13297870942185602  0.11678504382446418  1.0000
  H   H15       1.0  0.09279414887746643  0.9970910629236442  0.7917444510282434  1.0000
  H   H16       1.0  0.7717615441468126  0.8189101029192473  0.9510219288916699  1.0000
  H   H17       1.0  0.2083666999512559  0.33401403402458396  0.8854863810449486  1.0000
  H   H18       1.0  0.1665297157298156  0.3068140813991604  0.6762973030138039  1.0000
  H   H19       1.0  0.5719596846456484  0.39625936833160574  0.8987733248499266  1.0000
  H   H20       1.0  0.4877962272650933  0.2283506494617953  0.7963247091576874  1.0000
  H   H21       1.0  0.18489888173167662  0.6713274923711195  0.915055566352187  1.0000
  H   H22       1.0  0.2462811734278318  0.8354073013168204  0.037791301890756315  1.0000
  H   H23       1.0  0.5743507318150736  0.7725843955305078  0.14246947402848778  1.0000
  H   H24       1.0  0.5385868904951394  0.7352287608807232  0.9334707828921649  1.0000
  H   H25       1.0  0.2767677621433648  0.487133860858222  0.9422389995176699  1.0000
  H   H26       1.0  0.47183121114070303  0.5801179386956293  0.8789894214677003  1.0000
  H   H27       1.0  0.5523984551242549  0.045218116386948295  0.2617413297072203  1.0000
  H   H28       1.0  0.6030227276669393  0.25129343335706983  0.1943539925907345  1.0000
  H   H29       1.0  0.5270258377718591  0.05006437145832619  0.6215242902357828  1.0000
  H   H30       1.0  0.693957584081261  0.1645454611332511  0.5204853246732597  1.0000
  H   H31       1.0  0.0630238962948795  0.877819161958172  0.2759662809123213  1.0000
  H   H32       1.0  0.22505461225114942  0.009624407468642498  0.19262520722161006  1.0000
  H   H33       1.0  0.20194778983438513  0.0156366334106579  0.5484240777108268  1.0000
  H   H34       1.0  0.12976933514914893  0.8115311431352551  0.5974831462737311  1.0000
  H   H35       1.0  0.326874182893377  0.07541852856366657  0.317838248274704  1.0000
  H   H36       1.0  0.4250323644817797  0.9821147520898562  0.48954614591347917  1.0000
  H   H37       1.0  0.6551247159635383  0.7572968534509031  0.6620571624884874  1.0000
  H   H38       1.0  0.8631750248506834  0.7008086479613664  0.6001615446383324  1.0000
  H   H39       1.0  0.862560410017835  0.342092867512271  0.5463061059135653  1.0000
  H   H40       1.0  0.7469616663925932  0.4266441663441682  0.7192058486428934  1.0000
  H   H41       1.0  0.029627881370991805  0.6586018864388237  0.0968136196045606  1.0000
  H   H42       1.0  0.8907919111006495  0.7209236409702909  0.2639516882552329  1.0000
  H   H43       1.0  0.8923811595719615  0.3693359570735312  0.20955271348298507  1.0000
  H   H44       1.0  0.1002501830550315  0.32831854062096977  0.1333939762887795  1.0000
  H   H45       1.0  0.8366844658095476  0.44726403880276433  0.3591230874704863  1.0000
  H   H46       1.0  0.9192722569708424  0.6235618473222786  0.45099557283307223  1.0000
  C   C1        1.0  0.014057748206298001  0.44553921105966765  0.2574026624516677  1.0000
  C   C2        1.0  0.1056498143492632  0.48213780948361057  0.23700226649616235  1.0000
  C   C3        1.0  0.09966679253873421  0.5815667013809643  0.24482748234414936  1.0000
  C   C4        1.0  0.0058637993539463  0.6072576328834028  0.2730294767010477  1.0000
  C   C5        1.0  0.741796279479999  0.6249177475749474  0.5524481399763558  1.0000
  C   C6        1.0  0.6517210668519554  0.5865073587166663  0.577964913279871  1.0000
  C   C7        1.0  0.6596159854012457  0.4869412435437538  0.5726697971511354  1.0000
  C   C8        1.0  0.752972425859916  0.46288570445703664  0.5407985547850132  1.0000
  C   C9        1.0  0.2551052056212839  0.891104945618551  0.4706469504752845  1.0000
  C   C10       1.0  0.2342199425843603  0.799907782455179  0.44109118918728274  1.0000
  C   C11       1.0  0.2219429671790039  0.8063468656693757  0.3432739563872075  1.0000
  C   C12       1.0  0.2397570740342871  0.8996861524620098  0.31035884670766467  1.0000
  C   C13       1.0  0.4964256809240268  0.1681056300153401  0.33881441832372156  1.0000
  C   C14       1.0  0.5203462394173854  0.257907362117848  0.37005572177481827  1.0000
  C   C15       1.0  0.5335898446795184  0.24901948915717037  0.46760798429946243  1.0000
  C   C16       1.0  0.5139976735475003  0.15546020811237335  0.4985649043437944  1.0000
  C   C17       1.0  0.44945118296796244  0.6707081985993284  0.050040549694322985  1.0000
  C   C18       1.0  0.39942347179245274  0.6920982982529084  0.13615690386781407  1.0000
  C   C19       1.0  0.3016545612576422  0.6879114788099513  0.12291276789063228  1.0000
  C   C20       1.0  0.2894603135205784  0.659932206840061  0.030719476825808608  1.0000
  C   C21       1.0  0.2985818985377477  0.39899235086144097  0.7701832825562674  1.0000
  C   C22       1.0  0.3486520153961834  0.377491796986348  0.6841981359362208  1.0000
  C   C23       1.0  0.44665870909614114  0.3798611631968214  0.6979052404363415  1.0000
  C   C24       1.0  0.4587466158144268  0.40684700118455197  0.7904170047986554  1.0000
  C   C25       1.0  0.9875661954160793  0.2751722914183005  0.05697859040790828  1.0000
  C   C26       1.0  0.604854036288522  0.19866549713040632  0.886257212129152  1.0000
  C   C27       1.0  0.8440530057702276  0.3073558234612293  0.7431102080100656  1.0000
  C   C28       1.0  0.6980620716380271  0.1402381014200671  0.1480830817015999  1.0000
  C   C29       1.0  0.7663687352426294  0.8015144128419536  0.7457683073033291  1.0000
  C   C30       1.0  0.1422974676307831  0.8671068720405799  0.9353055996913466  1.0000
  C   C31       1.0  0.7200789411629672  0.0722202207939375  0.6436327118965081  1.0000
  C   C32       1.0  0.628856453896006  0.8704340384332595  0.03260067108244868  1.0000
  C   C33       1.0  0.0342675163301038  0.9827125259379912  0.16434649681764307  1.0000
  C   C34       1.0  0.11502483713980642  0.2045820867328629  0.7837604759662112  1.0000
  C   C35       1.0  0.04457271381464521  0.9250124258721754  0.6539278366023777  1.0000
  C   C36       1.0  0.9198771196501526  0.7646424220894159  0.06993550437222497  1.0000
  C   C37       1.0  0.21582666901903744  0.3468466979469794  0.8084103507299074  1.0000
  C   C38       1.0  0.1642629270741978  0.2928904589215477  0.7529542026693077  1.0000
  C   C39       1.0  0.5299085949228513  0.35985430283516  0.8490140907804429  1.0000
  C   C40       1.0  0.5358556198084088  0.2636992536537548  0.8410985219348461  1.0000
  C   C41       1.0  0.21868014851543902  0.706184220535583  0.9718235806703814  1.0000
  C   C42       1.0  0.2054985093206767  0.8008850674620048  0.9859504208019485  1.0000
  C   C43       1.0  0.5780657477071856  0.7837302582529516  0.0653948817625718  1.0000
  C   C44       1.0  0.5300230214876649  0.7254264974761355  0.010824742405041794  1.0000
  C   C45       1.0  0.345920922957717  0.4963922813329519  0.9026841202287554  1.0000
  C   C46       1.0  0.4027475708826529  0.5707530550693889  0.9185969493455204  1.0000
  C   C47       1.0  0.5480401970445001  0.12315883307884691  0.2590317651097108  1.0000
  C   C48       1.0  0.6095056133679863  0.1736607496585734  0.19860269511228518  1.0000
  C   C49       1.0  0.5621246358888143  0.10310869187866699  0.5729210019414097  1.0000
  C   C50       1.0  0.6577258001447461  0.11737633312125693  0.5740566853426613  1.0000
  C   C51       1.0  0.0981539679142642  0.9313370767748026  0.22830975434944628  1.0000
  C   C52       1.0  0.19203879532304313  0.9508016730077814  0.23520586315270717  1.0000
  C   C53       1.0  0.19949354129809652  0.9378292478140793  0.5471193490034522  1.0000
  C   C54       1.0  0.1297308294563209  0.8892380716260321  0.5992252316452777  1.0000
  C   C55       1.0  0.3382558393199844  0.024814004460935703  0.3764893652006122  1.0000
  C   C56       1.0  0.4136970216477565  0.03302178254685371  0.4310940418837176  1.0000
  C   C57       1.0  0.7328724609613815  0.7544148172974939  0.663494820026763  1.0000
  C   C58       1.0  0.7851331397862467  0.7006940734901332  0.6002946313128916  1.0000
  C   C59       1.0  0.8083728782020216  0.3853258345405663  0.5849709067704509  1.0000
  C   C60       1.0  0.7957514753894659  0.37755682745626723  0.6812170010370693  1.0000
  C   C61       1.0  0.9731647044110261  0.7004915725583275  0.1334097693688889  1.0000
  C   C62       1.0  0.952437373612483  0.6854210351455092  0.2281601842178134  1.0000
  C   C63       1.0  0.9704348677032898  0.3729690852291299  0.20536061695393215  1.0000
  C   C64       1.0  0.022300008103279402  0.3263051195622069  0.13620965560552625  1.0000
  C   C65       1.0  0.882930546113272  0.5081020439396796  0.36636040153506133  1.0000
  C   C66       1.0  0.8731780971765205  0.5625892084010145  0.4439265898605028  1.0000
  N   N1        1.0  0.9564629441894043  0.5213347109303045  0.2943768931294171  1.0000
  N   N2        1.0  0.7997395559778157  0.549337497537465  0.5160438022875411  1.0000
  N   N3        1.0  0.2743724310853892  0.9482199435858332  0.38662790089315985  1.0000
  N   N4        1.0  0.47766502886810974  0.1094924975629894  0.42168582794100457  1.0000
  N   N5        1.0  0.3811543484650954  0.6368174873761491  0.9900218751112531  1.0000
  N   N6        1.0  0.367214103519288  0.43044789029524816  0.831054924374328  1.0000
  O   O1        1.0  0.0488146339572211  0.215731037018287  0.020571168072919494  1.0000
  O   O2        1.0  0.5981330670354907  0.10937060430511987  0.8731479105405596  1.0000
  O   O3        1.0  0.828746797347222  0.31360004258295504  0.8330104069679504  1.0000
  O   O4        1.0  0.7383793876768863  0.20406822513574946  0.09182643347777028  1.0000
  O   O5        1.0  0.7345136501905785  0.0574823851415687  0.16559908126067305  1.0000
  O   O6        1.0  0.8941391940594556  0.24240688302472793  0.7006465050995274  1.0000
  O   O7        1.0  0.6698366313427757  0.238266027556527  0.9300985242147985  1.0000
  O   O8        1.0  0.9038588914496587  0.2914625277927668  0.027636976534694175  1.0000
  O   O9        1.0  0.764291152008724  0.05506974213869849  0.9701366316859108  1.0000
  O   O10       1.0  0.934903067851657  0.14401852974251034  0.8802523657208637  1.0000
  O   O11       1.0  0.7784463229083443  0.13569154016960286  0.8118038330838573  1.0000
  O   O12       1.0  0.9005473529367125  0.10632203125037172  0.05538082523763418  1.0000
  O   O13       1.0  0.7033073760060873  0.8569967525355865  0.7860155030234918  1.0000
  O   O14       1.0  0.1493373599758101  0.9557612297278126  0.9517486406056573  1.0000
  O   O15       1.0  0.8099894372970411  0.0868757789539458  0.6322635947958375  1.0000
  O   O16       1.0  0.6856270456231073  0.9021211228635764  0.0911836751579145  1.0000
  O   O17       1.0  0.9447718280238819  0.9657977208687496  0.17652568028911725  1.0000
  O   O18       1.0  0.0611976364485685  0.1714197693197477  0.7232078651201943  1.0000
  O   O19       1.0  0.006555092094217198  0.8630611983971407  0.7135199350078522  1.0000
  O   O20       1.0  0.9384705475969923  0.757635427356838  0.9804501505397524  1.0000
  O   O21       1.0  0.0109393225913479  0.009754119772189498  0.639766990215051  1.0000
  O   O22       1.0  0.8585128981982991  0.8220951013485162  0.10939955768373005  1.0000
  O   O23       1.0  0.6771723560096063  0.0249344637214577  0.712899076024037  1.0000
  O   O24       1.0  0.1319782076426392  0.16260209664655179  0.863421726600471  1.0000
  O   O25       1.0  0.073638728253222  0.040814594384443084  0.10183388121174629  1.0000
  O   O26       1.0  0.6142012927772029  0.9103914983720143  0.9512752789483441  1.0000
  O   O27       1.0  0.8488165075360573  0.7825068638725483  0.7766307325308259  1.0000
  O   O28       1.0  0.0848523459639736  0.8311541341915429  0.8799746923263637  1.0000
  O   O29       1.0  0.9491762869717493  0.9562888434896734  0.977008435143112  1.0000
  O   O30       1.0  0.8562121650106607  0.977859173365985  0.7975749691718477  1.0000
  O   O31       1.0  0.02917149260490251  0.006333711127162199  0.821894847951725  1.0000
  O   O32       1.0  0.7992601247710952  0.8816078486128164  0.9391501239759705  1.0000
