data_image0
_chemical_formula_structural       K4Na4H48C16O40
_chemical_formula_sum              "K4 Na4 H48 C16 O40"
_cell_length_a       6.196690314026688
_cell_length_b       11.644196913048786
_cell_length_c       14.266000629003075
_cell_angle_alpha    89.99994155798977
_cell_angle_beta     90.00004914519296
_cell_angle_gamma    89.99967052447259

_space_group_name_H-M_alt    "P 1"
_space_group_IT_number       1

loop_
  _space_group_symop_operation_xyz
  'x, y, z'

loop_
  _atom_site_type_symbol
  _atom_site_label
  _atom_site_symmetry_multiplicity
  _atom_site_fract_x
  _atom_site_fract_y
  _atom_site_fract_z
  _atom_site_occupancy
  K   K1        1.0  0.1716146617945569  1.1377955572999998e-06  0.5000035162931411  1.0000
  K   K2        1.0  0.8283727233275683  0.4999982241821428  0.99999430341596  1.0000
  K   K3        1.0  0.9712662749765499  0.5000026125323488  0.5000083727012452  1.0000
  K   K4        1.0  0.028694775478086895  0.999991861808944  0.9999995485744579  1.0000
  Na  Na1       1.0  0.4757110303433123  0.2694971452583843  0.49408800129442204  1.0000
  Na  Na2       1.0  0.4757101861855021  0.7305027391531452  0.5059110264435134  1.0000
  Na  Na3       1.0  0.5242844124940902  0.23050136535587032  0.9940880048343743  1.0000
  Na  Na4       1.0  0.5242870519188328  0.7694966515168533  0.005911742837248801  1.0000
  H   H1        1.0  0.5520461492800023  0.46739027224072066  0.779033947430257  1.0000
  H   H2        1.0  0.5520355927774787  0.5326136705335146  0.22096651204290652  1.0000
  H   H3        1.0  0.4479585718296378  0.032609368056412805  0.27903342772682294  1.0000
  H   H4        1.0  0.4479588221008727  0.9673871668333974  0.7209662901443821  1.0000
  H   H5        1.0  0.2694426015565483  0.3536534147337775  0.7032264281996348  1.0000
  H   H6        1.0  0.26943419678922  0.6463539767861873  0.2967725189985302  1.0000
  H   H7        1.0  0.7305668183343599  0.1463454622500322  0.20323013070767365  1.0000
  H   H8        1.0  0.7305700431769039  0.8536502002618462  0.7967718004075977  1.0000
  H   H9        1.0  0.4382241540168721  0.16072436895107237  0.8076699681482253  1.0000
  H   H10       1.0  0.4382167138737714  0.8392799251717734  0.1923290449502701  1.0000
  H   H11       1.0  0.5617790071608865  0.3392760940727301  0.3076699405828336  1.0000
  H   H12       1.0  0.5617824884546608  0.660721807058586  0.6923291207610449  1.0000
  H   H13       1.0  0.6476153093922434  0.0602045760012118  0.6030864341512798  1.0000
  H   H14       1.0  0.6476168597521906  0.9397982129479772  0.39691546457324023  1.0000
  H   H15       1.0  0.3523874671497467  0.4397978623279499  0.1030855408460027  1.0000
  H   H16       1.0  0.35238434095830223  0.5602049791620517  0.8969106348707498  1.0000
  H   H17       1.0  0.8082112909259037  0.2942374989396299  0.8314678252153415  1.0000
  H   H18       1.0  0.8082100774990479  0.705760500293913  0.1685313323443012  1.0000
  H   H19       1.0  0.19178868747592054  0.2057603577215801  0.3314663615242424  1.0000
  H   H20       1.0  0.1917955351767517  0.7942361091216769  0.6685332563296101  1.0000
  H   H21       1.0  0.030960831484705402  0.2661484547183477  0.6038643024333865  1.0000
  H   H22       1.0  0.0309581313023841  0.73385280257709  0.3961352526231892  1.0000
  H   H23       1.0  0.9690435603202587  0.23384711225401128  0.10386241804734911  1.0000
  H   H24       1.0  0.9690446817546601  0.7661418025426487  0.8961332974751315  1.0000
  H   H25       1.0  0.492042622551658  0.49713933597036675  0.3866611663031706  1.0000
  H   H26       1.0  0.4920444187599244  0.5028596392268697  0.6133378678121417  1.0000
  H   H27       1.0  0.5079574596129462  0.0028593099603995  0.8866613514725473  1.0000
  H   H28       1.0  0.5079578625994046  0.997140474909436  0.1133369878886299  1.0000
  H   H29       1.0  0.2782239900341708  0.42651652526738104  0.3535446544136676  1.0000
  H   H30       1.0  0.2782267057732923  0.5734856863463234  0.6464556981520104  1.0000
  H   H31       1.0  0.7217728023353729  0.07348302118207782  0.853544163771872  1.0000
  H   H32       1.0  0.721774024081789  0.9265152448698685  0.1464570629411099  1.0000
  H   H33       1.0  0.9398877827893345  0.6211950858290294  0.7100566740152487  1.0000
  H   H34       1.0  0.939888686057074  0.3788050833254673  0.28994183398820894  1.0000
  H   H35       1.0  0.0601098391021466  0.8788074828670106  0.2100606237363607  1.0000
  H   H36       1.0  0.06010960049889749  0.121195402036399  0.78994384947206  1.0000
  H   H37       1.0  0.0717523585096203  0.5201812718256561  0.7568685447478033  1.0000
  H   H38       1.0  0.0717472504546137  0.4798207183526557  0.2431310262346003  1.0000
  H   H39       1.0  0.9282469651656201  0.9798195203048223  0.2568741519330686  1.0000
  H   H40       1.0  0.9282525618581517  0.020179825974707903  0.7431313611996657  1.0000
  H   H41       1.0  0.0026037864506705  0.24199833925349873  0.49608918194302737  1.0000
  H   H42       1.0  0.0026042577193265996  0.758005581962358  0.5039096610740756  1.0000
  H   H43       1.0  0.9973948876903832  0.25799759244549136  0.996087244591479  1.0000
  H   H44       1.0  0.997394590391174  0.7419929524296692  0.0039098839341207  1.0000
  H   H45       1.0  0.46989263815843424  0.1392313104620015  0.6489793971843059  1.0000
  H   H46       1.0  0.46988687989322386  0.8607754622887498  0.35102593698383805  1.0000
  H   H47       1.0  0.5301102246584932  0.36077192885409903  0.14897723660050838  1.0000
  H   H48       1.0  0.5301093932384263  0.6392295052298066  0.8510197094744285  1.0000
  C   C1        1.0  0.7108895667359719  0.34696443286916434  0.6879951985918282  1.0000
  C   C2        1.0  0.7108827327636504  0.6530347255884479  0.3120039209680598  1.0000
  C   C3        1.0  0.2891133694659089  0.15303274572016792  0.18799451741316636  1.0000
  C   C4        1.0  0.2891199220989478  0.8469651382892207  0.8120058394066803  1.0000
  C   C5        1.0  0.5730772282290104  0.3737178314612065  0.7746417290900496  1.0000
  C   C6        1.0  0.5730624490783782  0.6262860464008781  0.22535663569174602  1.0000
  C   C7        1.0  0.426927484624315  0.1262818143679212  0.2746425257477014  1.0000
  C   C8        1.0  0.42693036029029235  0.8737147854374143  0.7253578848799336  1.0000
  C   C9        1.0  0.21325146951880922  0.35095077396268687  0.8520116353945753  1.0000
  C   C10       1.0  0.2132475973848429  0.6490550734093361  0.14798939276782624  1.0000
  C   C11       1.0  0.7867469337352588  0.1490487744140836  0.35201325470541883  1.0000
  C   C12       1.0  0.7867531353405398  0.8509475734712666  0.6479865954431361  1.0000
  C   C13       1.0  0.34860284839794536  0.3183661481485771  0.7656714295357218  1.0000
  C   C14       1.0  0.3485955620232986  0.6816401402153147  0.2343289505049526  1.0000
  C   C15       1.0  0.6514018475908756  0.18163350898028338  0.2656722681230406  1.0000
  C   C16       1.0  0.6514069467960298  0.8183615391034208  0.7343289311164727  1.0000
  O   O1        1.0  0.8767832992124482  0.2866405572601066  0.7022718569685226  1.0000
  O   O2        1.0  0.8767725647096399  0.7133589479083893  0.2977294302637219  1.0000
  O   O3        1.0  0.12322289133838642  0.21336003852950117  0.2022682573282637  1.0000
  O   O4        1.0  0.12323167708032662  0.7866409339486111  0.7977306327860562  1.0000
  O   O5        1.0  0.6793148786917768  0.33337305560688424  0.8571554317146024  1.0000
  O   O6        1.0  0.6793091948673363  0.6666270591124642  0.1428436755171347  1.0000
  O   O7        1.0  0.3206851480012957  0.1666256274915057  0.35715615357250396  1.0000
  O   O8        1.0  0.3206899144407275  0.8333721590629891  0.6428442155738807  1.0000
  O   O9        1.0  0.36055825501498623  0.19705077256194412  0.7529965911743872  1.0000
  O   O10       1.0  0.3605529205257909  0.8029554788947096  0.2470030925672404  1.0000
  O   O11       1.0  0.6394431896197261  0.30294804174140205  0.2529973249016564  1.0000
  O   O12       1.0  0.6394528396450099  0.6970470432513022  0.7470017667676955  1.0000
  O   O13       1.0  0.6465920570391859  0.38601922877867184  0.6091279366029809  1.0000
  O   O14       1.0  0.6465825621566097  0.6139784105657923  0.39087255978738267  1.0000
  O   O15       1.0  0.3534171859522742  0.11397719035178261  0.10912731278467191  1.0000
  O   O16       1.0  0.3534170134523579  0.8860213539675642  0.8908737701075966  1.0000
  O   O17       1.0  0.4213585306663604  0.4194724320232765  0.38577726480566105  1.0000
  O   O18       1.0  0.4213611103689415  0.5805267613646237  0.6142217417119086  1.0000
  O   O19       1.0  0.5786415498377551  0.0805262150200647  0.8857788153639348  1.0000
  O   O20       1.0  0.578642786420822  0.9194724928592847  0.1142202525629585  1.0000
  O   O21       1.0  0.518362181307367  0.1060499386634817  0.5884354723659442  1.0000
  O   O22       1.0  0.5183594089727065  0.893956684464861  0.4115684787926241  1.0000
  O   O23       1.0  0.4816405676896096  0.3939525181216793  0.0884339664215403  1.0000
  O   O24       1.0  0.4816369779729754  0.606049924382404  0.9115629607280055  1.0000
  O   O25       1.0  0.14792572607301926  0.4546033602903563  0.8585964666933705  1.0000
  O   O26       1.0  0.1479277931314655  0.5454018299287925  0.1414017320955452  1.0000
  O   O27       1.0  0.8520759170824093  0.0453978973794236  0.3585995990490148  1.0000
  O   O28       1.0  0.8520761547361885  0.9546016840403695  0.6414016785386139  1.0000
  O   O29       1.0  0.18154147023845726  0.27243270388640184  0.9118819800307139  1.0000
  O   O30       1.0  0.18153987204311758  0.7275698061802273  0.0881169328507809  1.0000
  O   O31       1.0  0.8184522042954255  0.22756419268849737  0.4118849488106734  1.0000
  O   O32       1.0  0.8184542930483332  0.7724354925205575  0.5881156146819677  1.0000
  O   O33       1.0  0.11357102141020191  0.2627398001686814  0.543885351632639  1.0000
  O   O34       1.0  0.1135732387687725  0.7372620609104173  0.4561135347115695  1.0000
  O   O35       1.0  0.8864284163383472  0.23725584236538563  0.0438841331435498  1.0000
  O   O36       1.0  0.8864296870499685  0.7627324686555281  0.9561115501230546  1.0000
  O   O37       1.0  0.0335155701385119  0.5556239170649917  0.6950887693081144  1.0000
  O   O38       1.0  0.0335141854183263  0.44437561474897785  0.3049100857796034  1.0000
  O   O39       1.0  0.9664787960934405  0.9443769528964978  0.19509371972556272  1.0000
  O   O40       1.0  0.9664841292822645  0.05562399296133689  0.8049111073663441  1.0000
