data_image0
_chemical_formula_structural       Cu2H16C28N2O10F8
_chemical_formula_sum              "Cu2 H16 C28 N2 O10 F8"
_cell_length_a       7.489672555587408
_cell_length_b       8.523161114285926
_cell_length_c       11.760338272589273
_cell_angle_alpha    99.56128038791275
_cell_angle_beta     101.05756887914175
_cell_angle_gamma    106.39199975111785

_space_group_name_H-M_alt    "P 1"
_space_group_IT_number       1

loop_
  _space_group_symop_operation_xyz
  'x, y, z'

loop_
  _atom_site_type_symbol
  _atom_site_label
  _atom_site_symmetry_multiplicity
  _atom_site_fract_x
  _atom_site_fract_y
  _atom_site_fract_z
  _atom_site_occupancy
  Cu  Cu1       1.0  0.6720260475966526  0.6450924728997548  0.9512939616774784  1.0000
  Cu  Cu2       1.0  0.3279736644683169  0.354906609658478  0.04870702297713338  1.0000
  H   H1        1.0  0.828566590248272  0.988619226329419  0.9137811616897976  1.0000
  H   H2        1.0  0.17143548605167064  0.011382346143363998  0.08621701439128059  1.0000
  H   H3        1.0  0.4474621978828281  0.5327478031819125  0.7040292155215153  1.0000
  H   H4        1.0  0.5525408519569907  0.4672562739877222  0.29596767314107797  1.0000
  H   H5        1.0  0.8099903884359987  0.12531267421680775  0.7435751626604057  1.0000
  H   H6        1.0  0.19001127070871604  0.8746914177351286  0.2564232471572224  1.0000
  H   H7        1.0  0.4095285335310236  0.651636173757353  0.5246919958930787  1.0000
  H   H8        1.0  0.5904749553984487  0.3483691722931254  0.47530679592725267  1.0000
  H   H9        1.0  0.5891289072700516  0.8850445312983765  0.4317571543415537  1.0000
  H   H10       1.0  0.4108709061964787  0.11495831206582346  0.5682417224290359  1.0000
  H   H11       1.0  0.7183307220116432  0.08617429462794488  0.5261215087440617  1.0000
  H   H12       1.0  0.28166868415209456  0.9138272688338059  0.4738737669574602  1.0000
  H   H13       1.0  0.5597554587946973  0.3410161959887218  0.826730321875942  1.0000
  H   H14       1.0  0.44024153545377226  0.6589828940909043  0.17327030926609405  1.0000
  H   H15       1.0  0.7930894581169525  0.414386081783384  0.8588141714825565  1.0000
  H   H16       1.0  0.2069075459839524  0.585609208914633  0.14118262485386168  1.0000
  C   C1        1.0  0.8598453163035343  0.5233365162845729  0.12271155465234773  1.0000
  C   C2        1.0  0.14015393473736273  0.4766575090328259  0.8772853899502305  1.0000
  C   C3        1.0  0.8831323146246745  0.3972471758342166  0.1954946955609386  1.0000
  C   C4        1.0  0.11686874045511073  0.6027519084741326  0.8045073148056187  1.0000
  C   C5        1.0  0.006926369376984069  0.4469204845244902  0.30957909660968846  1.0000
  C   C6        1.0  0.9930765472744125  0.5530798428607893  0.6904215978482495  1.0000
  C   C7        1.0  0.03200790858114286  0.33085583487983405  0.3763663039096911  1.0000
  C   C8        1.0  0.9679968219615844  0.6691457521147868  0.6236356215066151  1.0000
  C   C9        1.0  0.9326669547915429  0.16040398521982263  0.3280458477545876  1.0000
  C   C10       1.0  0.06733497242655062  0.8395938429794112  0.6719569830774998  1.0000
  C   C11       1.0  0.812475999076966  0.10249972502808188  0.21300880751398663  1.0000
  C   C12       1.0  0.1875195726895384  0.8974993908554579  0.7869950426944141  1.0000
  C   C13       1.0  0.7908715050496153  0.22416641279201593  0.15018741298078442  1.0000
  C   C14       1.0  0.2091244838721238  0.7758301836123707  0.849816203491066  1.0000
  C   C15       1.0  0.7131998259522588  0.9157792463719546  0.15970943546356145  1.0000
  C   C16       1.0  0.2867943869059956  0.08421987327228207  0.8402942379885443  1.0000
  C   C17       1.0  0.7376129573285156  0.9187017793549258  0.8259877581667323  1.0000
  C   C18       1.0  0.26238724150638854  0.08129855555174  0.17401258277863713  1.0000
  C   C19       1.0  0.5230583060615999  0.6638603152621272  0.7086900472572139  1.0000
  C   C20       1.0  0.47694286631318045  0.3361425243413834  0.2913090062696638  1.0000
  C   C21       1.0  0.7250919927939845  0.9937570146060322  0.7298626563892794  1.0000
  C   C22       1.0  0.2749096663507302  0.0062470773459039975  0.27013575342834867  1.0000
  C   C23       1.0  0.5040266763294098  0.7312349820968791  0.6092601863936975  1.0000
  C   C24       1.0  0.4959736398004892  0.2687691081049478  0.3907371977119851  1.0000
  C   C25       1.0  0.6082001873970384  0.899437520659802  0.6179557346424002  1.0000
  C   C26       1.0  0.3918014339198307  0.10056278844294297  0.38204138723659736  1.0000
  C   C27       1.0  0.5919649124081445  0.9747091407745073  0.511515814671668  1.0000
  C   C28       1.0  0.4080354037217474  0.02529494942731959  0.4884815694340147  1.0000
  N   N1        1.0  0.6388364206880228  0.7560638606884422  0.8157264782746407  1.0000
  N   N2        1.0  0.361164697965485  0.24393520157668996  0.18427213626926425  1.0000
  O   O1        1.0  0.6861247454908221  0.5145487290667107  0.07655299363031527  1.0000
  O   O2        1.0  0.31387503014786217  0.48545033144830535  0.9234445952016441  1.0000
  O   O3        1.0  0.006601964907439107  0.6262115944455217  0.10899672730443646  1.0000
  O   O4        1.0  0.9933968470438119  0.3737811619910402  0.8909983141403967  1.0000
  O   O5        1.0  0.7531063350281285  0.865138128817321  0.061892924034637496  1.0000
  O   O6        1.0  0.24688556127543387  0.1348584843799543  0.9381110111240074  1.0000
  O   O7        1.0  0.6080801399576073  0.8341371445940381  0.21472864130247152  1.0000
  O   O8        1.0  0.3919104511589778  0.16586324970231198  0.785275556082858  1.0000
  O   O9        1.0  0.6726358020933391  0.4451682916429007  0.8358243338931072  1.0000
  O   O10       1.0  0.3273634708819769  0.5548295220344953  0.16417474760375936  1.0000
  F   F1        1.0  0.10415454202571789  0.6115824159695861  0.35944066331837377  1.0000
  F   F2        1.0  0.8958520122607821  0.3884166312527667  0.6405586582506826  1.0000
  F   F3        1.0  0.15245394745918614  0.38269018594108667  0.48681871096877655  1.0000
  F   F4        1.0  0.8475581120750064  0.617312618066073  0.5131809076527388  1.0000
  F   F5        1.0  0.9602040531106084  0.050986999617300896  0.39470504733235845  1.0000
  F   F6        1.0  0.0398038502316993  0.9490158432259717  0.6052982857986036  1.0000
  F   F7        1.0  0.6746337990403006  0.17161361508242115  0.03837490890251871  1.0000
  F   F8        1.0  0.3253612859562693  0.8283842484526998  0.9616295850151243  1.0000
