data_image0
_chemical_formula_structural       Co4H24C48N16F8
_chemical_formula_sum              "Co4 H24 C48 N16 F8"
_cell_length_a       6.905904623435826
_cell_length_b       8.445413557900578
_cell_length_c       24.84379383502171
_cell_angle_alpha    89.99984980172069
_cell_angle_beta     90.0000048629125
_cell_angle_gamma    129.14595468312103

_space_group_name_H-M_alt    "P 1"
_space_group_IT_number       1

loop_
  _space_group_symop_operation_xyz
  'x, y, z'

loop_
  _atom_site_type_symbol
  _atom_site_label
  _atom_site_symmetry_multiplicity
  _atom_site_fract_x
  _atom_site_fract_y
  _atom_site_fract_z
  _atom_site_occupancy
  Co  Co1       1.0  0.2790731358911813  0.5406660760362526  0.4955359515400063  1.0000
  Co  Co2       1.0  0.7209178194176008  0.9593333510207601  0.9955370574393072  1.0000
  Co  Co3       1.0  0.7208800132001801  0.4593072041424477  0.5044625519242487  1.0000
  Co  Co4       1.0  0.27912447408405683  0.040701499061924606  0.0044650686260042  1.0000
  H   H1        1.0  0.619278763548529  0.8418765834722349  0.7855047861490051  1.0000
  H   H2        1.0  0.38069074921799045  0.6581087808604664  0.2855015426317564  1.0000
  H   H3        1.0  0.3807126189266441  0.1581115961765533  0.21449210724635753  1.0000
  H   H4        1.0  0.6192875957780544  0.3418596307205775  0.7144909231088405  1.0000
  H   H5        1.0  0.9584737795764794  0.822748226661815  0.6986682072300923  1.0000
  H   H6        1.0  0.04151130921196979  0.6772460578554842  0.198670201555025  1.0000
  H   H7        1.0  0.04150977158401052  0.1772492755473252  0.3013351264010922  1.0000
  H   H8        1.0  0.9585201619548447  0.32276271713224963  0.8013363521888834  1.0000
  H   H9        1.0  0.5860196437997446  0.8834563430319022  0.5856411694575314  1.0000
  H   H10       1.0  0.413982519959646  0.6165393160378655  0.0856427954157084  1.0000
  H   H11       1.0  0.4139399473772302  0.1165355228198024  0.4143541138770743  1.0000
  H   H12       1.0  0.5860670886194586  0.3834727106653943  0.9143585256307603  1.0000
  H   H13       1.0  0.8310495985690736  0.6492340856329616  0.6187010436513489  1.0000
  H   H14       1.0  0.1689511275944541  0.8507717512814069  0.1187000372623714  1.0000
  H   H15       1.0  0.16890293103982407  0.35072299356642844  0.38130349754624154  1.0000
  H   H16       1.0  0.8310979678157583  0.1492696815563193  0.8813008812543617  1.0000
  H   H17       1.0  0.559349912366912  0.7466091882424165  0.8793588591357137  1.0000
  H   H18       1.0  0.44061990376378923  0.7533767450952241  0.37935672335100895  1.0000
  H   H19       1.0  0.4406780045211535  0.25341369861916263  0.12064286442110021  1.0000
  H   H20       1.0  0.5593314932465533  0.24659353934497832  0.6206361449046227  1.0000
  H   H21       1.0  0.08910486891562648  0.9198218805544016  0.8886142193807913  1.0000
  H   H22       1.0  0.9109028675301547  0.5801935637047251  0.3886134310555036  1.0000
  H   H23       1.0  0.9109111962523362  0.08019083656148507  0.11139032178663649  1.0000
  H   H24       1.0  0.08908037390690988  0.4197958380436332  0.611387084974659  1.0000
  C   C1        1.0  0.2780578353008424  0.8339172519378406  0.6840834970503595  1.0000
  C   C2        1.0  0.721942182175184  0.6660798374076576  0.18408344119119138  1.0000
  C   C3        1.0  0.7219169553771538  0.16606527145330574  0.3159170189835478  1.0000
  C   C4        1.0  0.2780923802316835  0.3339241285117608  0.8159166723148205  1.0000
  C   C5        1.0  0.4615662903254079  0.8433509329577334  0.712092895438886  1.0000
  C   C6        1.0  0.538424642424559  0.6566483035953753  0.2120880320195937  1.0000
  C   C7        1.0  0.5384169511141151  0.15663846879461119  0.28790681556125014  1.0000
  C   C8        1.0  0.4615905968208126  0.3433428123024029  0.7879068487983788  1.0000
  C   C9        1.0  0.4712829665664133  0.8362955557056252  0.767552222156894  1.0000
  C   C10       1.0  0.528683358037668  0.6636893950911825  0.2675481573990197  1.0000
  C   C11       1.0  0.5287045518734247  0.16369863530245962  0.23244789135569732  1.0000
  C   C12       1.0  0.4713138470517039  0.3363011692692338  0.7324479309649093  1.0000
  C   C13       1.0  0.29267892685654573  0.8209335119652434  0.7999981664361259  1.0000
  C   C14       1.0  0.70729389842149  0.6790550002934096  0.29999648855362443  1.0000
  C   C15       1.0  0.7073204432947976  0.17907084877459306  0.2000019470709447  1.0000
  C   C16       1.0  0.29269923614698723  0.3209361751138005  0.7000020149002281  1.0000
  C   C17       1.0  0.11515472637714903  0.8197608529180653  0.7719464996154244  1.0000
  C   C18       1.0  0.8848198156653382  0.6802255323976992  0.2719488329748785  1.0000
  C   C19       1.0  0.8848455198232941  0.1802450057049683  0.2280536138908644  1.0000
  C   C20       1.0  0.11519614626229921  0.3197844845659147  0.7280545006488665  1.0000
  C   C21       1.0  0.10465606610024744  0.8257441621506131  0.7165568085601421  1.0000
  C   C22       1.0  0.8953568939535901  0.674275074034952  0.21656075720752452  1.0000
  C   C23       1.0  0.8953570111072795  0.1742760642495895  0.2834424999084604  1.0000
  C   C24       1.0  0.10468081281081967  0.325746886309311  0.783442576409449  1.0000
  C   C25       1.0  0.2397350838803832  0.8009370966091608  0.6261318184669022  1.0000
  C   C26       1.0  0.7602703370136513  0.699064153266356  0.1261317267912432  1.0000
  C   C27       1.0  0.7602331113807566  0.1990442443493947  0.37386869756783636  1.0000
  C   C28       1.0  0.23977365544541138  0.3009508890517196  0.873868386708871  1.0000
  C   C29       1.0  0.3906744558508066  0.8162374622842631  0.5848848844501617  1.0000
  C   C30       1.0  0.6093301341877793  0.683757297611919  0.0848848189442961  1.0000
  C   C31       1.0  0.6092790029664387  0.1837439183591982  0.4151156315850813  1.0000
  C   C32       1.0  0.3907197841233484  0.3162628295660497  0.9151165020980943  1.0000
  C   C33       1.0  0.004466755990847579  0.6958238064103169  0.6015865141005534  1.0000
  C   C34       1.0  0.9955329920630762  0.8041753016827824  0.1015863001658559  1.0000
  C   C35       1.0  0.9954877322104212  0.304141668881897  0.3984160145177  1.0000
  C   C36       1.0  0.004512289422351029  0.19585203915342933  0.8984134108130348  1.0000
  C   C37       1.0  0.3062777410083158  0.8214243856480151  0.8585628925577992  1.0000
  C   C38       1.0  0.6936930780635324  0.6785632513880058  0.35856121614337166  1.0000
  C   C39       1.0  0.6937401795117001  0.1785940274084297  0.1414384284866017  1.0000
  C   C40       1.0  0.3062842375263771  0.3214210655084245  0.6414364822844619  1.0000
  C   C41       1.0  0.4521390217214434  0.7950154219983006  0.8907419632844551  1.0000
  C   C42       1.0  0.5478458743712906  0.7049811596287227  0.3907398683351672  1.0000
  C   C43       1.0  0.547892296119045  0.20501075623781162  0.1092597602705894  1.0000
  C   C44       1.0  0.45211046919799724  0.294990011629949  0.6092542074648861  1.0000
  C   C45       1.0  0.2102868619291983  0.881961241174352  0.8957041334540252  1.0000
  C   C46       1.0  0.7897151118850306  0.6180544483627274  0.3957041208925247  1.0000
  C   C47       1.0  0.7897318313934606  0.11805596960306267  0.10429799262097822  1.0000
  C   C48       1.0  0.210273179359902  0.38193854037030656  0.6042959926206493  1.0000
  N   N1        1.0  0.2519672880439075  0.7200436188176979  0.5400149790799419  1.0000
  N   N2        1.0  0.7480370094664298  0.7799581877475177  0.04001480717889191  1.0000
  N   N3        1.0  0.7479811209654701  0.2799341748410881  0.45998593947229693  1.0000
  N   N4        1.0  0.2520175988198191  0.22007752931715877  0.9599873188855386  1.0000
  N   N5        1.0  0.011855555533408415  0.6438750703015046  0.5509010444022878  1.0000
  N   N6        1.0  0.9881496548454153  0.8561308265663286  0.0509007789109788  1.0000
  N   N7        1.0  0.9880892460318336  0.35609403166029097  0.4491010816994816  1.0000
  N   N8        1.0  0.011906035980409532  0.14391178870199892  0.9491005421199292  1.0000
  N   N9        1.0  0.4510095512045497  0.8447959495387848  0.9423906522713992  1.0000
  N   N10       1.0  0.5489844597850536  0.6552111973141307  0.44238981468969035  1.0000
  N   N11       1.0  0.5490309902038035  0.15523590478547789  0.05760986373542921  1.0000
  N   N12       1.0  0.450957044093876  0.34475731346722677  0.5576050661422514  1.0000
  N   N13       1.0  0.30166247068301305  0.8993592740999858  0.9451732165607185  1.0000
  N   N14       1.0  0.6983433750416881  0.6006580149494382  0.4451716179354293  1.0000
  N   N15       1.0  0.6983712688180221  0.10066599747122498  0.054828104479675205  1.0000
  N   N16       1.0  0.3016040546843968  0.3993155806838472  0.5548260804988487  1.0000
  F   F1        1.0  0.9394543424129081  0.812025098917445  0.8007665488657665  1.0000
  F   F2        1.0  0.06053573950772781  0.6879651595168922  0.3007701411375265  1.0000
  F   F3        1.0  0.06057140939599042  0.18798399153682507  0.1992367847580923  1.0000
  F   F4        1.0  0.9394687836746133  0.3120454883319965  0.6992364126064176  1.0000
  F   F5        1.0  0.6377196412266528  0.8529505280489429  0.682930269097767  1.0000
  F   F6        1.0  0.3622681717552825  0.6470484059020053  0.18292703799834703  1.0000
  F   F7        1.0  0.3622478844856759  0.147034715362814  0.3170662217849127  1.0000
  F   F8        1.0  0.637737121227687  0.3529181328218627  0.817064622712195  1.0000
