data_image0
_chemical_formula_structural       Cd4H40C56N8O16
_chemical_formula_sum              "Cd4 H40 C56 N8 O16"
_cell_length_a       9.801954462248291
_cell_length_b       9.801957077760557
_cell_length_c       16.022611549001542
_cell_angle_alpha    90.00002079459884
_cell_angle_beta     90.00003792259584
_cell_angle_gamma    106.54154081623368

_space_group_name_H-M_alt    "P 1"
_space_group_IT_number       1

loop_
  _space_group_symop_operation_xyz
  'x, y, z'

loop_
  _atom_site_type_symbol
  _atom_site_label
  _atom_site_symmetry_multiplicity
  _atom_site_fract_x
  _atom_site_fract_y
  _atom_site_fract_z
  _atom_site_occupancy
  Cd  Cd1       1.0  0.4130828779996776  0.5869173642623479  0.4091363241896957  1.0000
  Cd  Cd2       1.0  0.08691797322328645  0.9130811169426634  0.9091353112365681  1.0000
  Cd  Cd3       1.0  0.9130822591793545  0.08691824369535076  0.09086428183847768  1.0000
  Cd  Cd4       1.0  0.5869183768577669  0.4130820043776707  0.5908645171215241  1.0000
  H   H1        1.0  0.9084255066772045  0.9259469760053559  0.3079943981166338  1.0000
  H   H2        1.0  0.5915731249063755  0.5740539910540932  0.8079933101801089  1.0000
  H   H3        1.0  0.574054374785085  0.5915761417036906  0.192005710762615  1.0000
  H   H4        1.0  0.9259471654301163  0.9084247367979825  0.6920060809599775  1.0000
  H   H5        1.0  0.0915757481802402  0.07405239263466257  0.6920064431945859  1.0000
  H   H6        1.0  0.40842565323660546  0.4259474820205326  0.1920056587769068  1.0000
  H   H7        1.0  0.42594542581183953  0.4084253393723429  0.8079932581946068  1.0000
  H   H8        1.0  0.0740523398429076  0.09157568005849008  0.307993512115047  1.0000
  H   H9        1.0  0.7009401364887538  0.7115772825385916  0.3175670538341535  1.0000
  H   H10       1.0  0.799058508196012  0.7884236938114312  0.817567345940553  1.0000
  H   H11       1.0  0.7884223310471585  0.7990601224574262  0.1824330556448217  1.0000
  H   H12       1.0  0.7115786054186302  0.7009386183142537  0.6824326687174178  1.0000
  H   H13       1.0  0.2990611183682645  0.2884220861011215  0.6824331633590859  1.0000
  H   H14       1.0  0.20093924749387784  0.21157777126240518  0.18243287125221744  1.0000
  H   H15       1.0  0.21157674242100907  0.20094241483766945  0.8175671615483324  1.0000
  H   H16       1.0  0.2884213316596771  0.29905967810390166  0.3175669243574504  1.0000
  H   H17       1.0  0.7440780593112495  0.08597816731839458  0.5276482251975239  1.0000
  H   H18       1.0  0.755922194888818  0.4140209551851156  0.0276467527959099  1.0000
  H   H19       1.0  0.41402285315278675  0.7559213956633497  0.97235226950135  1.0000
  H   H20       1.0  0.08597837990637196  0.7440782111105689  0.4723519386555282  1.0000
  H   H21       1.0  0.25592246841615196  0.9140222575397767  0.4723519919956942  1.0000
  H   H22       1.0  0.2440780375129705  0.5859784054522946  0.9723515920431751  1.0000
  H   H23       1.0  0.5859770839255205  0.24407690075480554  0.027647323573518196  1.0000
  H   H24       1.0  0.9140221478210224  0.2559222137476099  0.5276482785376828  1.0000
  H   H25       1.0  0.12783815490571732  0.8721618276158836  0.3015265008338446  1.0000
  H   H26       1.0  0.37216152659907215  0.6278365411567464  0.8015261617390763  1.0000
  H   H27       1.0  0.627837092701391  0.37216068304045524  0.1984740554533886  1.0000
  H   H28       1.0  0.8721620774977766  0.12783753302273476  0.6984743404771764  1.0000
  H   H29       1.0  0.5411257428907488  0.8667575639666293  0.5239597357144135  1.0000
  H   H30       1.0  0.9588745448981868  0.6332431434510253  0.0239595292976702  1.0000
  H   H31       1.0  0.6332427874561546  0.9588750214004804  0.9760402496247381  1.0000
  H   H32       1.0  0.8667588461372588  0.5411250685259287  0.4760399853827408  1.0000
  H   H33       1.0  0.45887478483664523  0.1332428608915492  0.4760404814787975  1.0000
  H   H34       1.0  0.041125255698744874  0.36675833762500076  0.9760394396595515  1.0000
  H   H35       1.0  0.3667564224925428  0.04112433123613359  0.023959343450108903  1.0000
  H   H36       1.0  0.13324343117370316  0.4588743081151917  0.5239602318107046  1.0000
  H   H37       1.0  0.23961633191166232  0.7603839031115313  0.14346551083227874  1.0000
  H   H38       1.0  0.2603834286100266  0.7396153764886648  0.6434651522458522  1.0000
  H   H39       1.0  0.7396168037930407  0.2603839841496479  0.3565350649471739  1.0000
  H   H40       1.0  0.7603841958157319  0.23961652174664747  0.8565347063609323  1.0000
  C   C1        1.0  0.2674814679475617  0.7325177472285913  0.3122170299374432  1.0000
  C   C2        1.0  0.23251822818683368  0.7674806319184809  0.8122160423740753  1.0000
  C   C3        1.0  0.7674809817622902  0.23251872071843138  0.18778417481875212  1.0000
  C   C4        1.0  0.7325187644559321  0.26748161341002685  0.6877838113735706  1.0000
  C   C5        1.0  0.8485658220412589  0.025200848292655596  0.4187970701084325  1.0000
  C   C6        1.0  0.6514368758756318  0.474801854467401  0.9187960970211294  1.0000
  C   C7        1.0  0.47479926834357405  0.6514343389221294  0.0812029115575754  1.0000
  C   C8        1.0  0.025201724750459644  0.8485659524763703  0.5812037315820788  1.0000
  C   C9        1.0  0.15143411503790108  0.9747974481261038  0.5812037712024036  1.0000
  C   C10       1.0  0.3485668780565589  0.5252028432727015  0.081203496055231  1.0000
  C   C11       1.0  0.5251999416042706  0.34856501371388043  0.9187954332813035  1.0000
  C   C12       1.0  0.9747985076526079  0.15143340816194237  0.4187964856109545  1.0000
  C   C13       1.0  0.8323674565291129  0.9175106600287039  0.3586434285710851  1.0000
  C   C14       1.0  0.667631676174132  0.5824882357460409  0.8586436212864328  1.0000
  C   C15       1.0  0.5824895982926321  0.6676312565981704  0.1413560502937372  1.0000
  C   C16       1.0  0.9175112819599603  0.8323674443104779  0.6413570239855417  1.0000
  C   C17       1.0  0.16763248055004712  0.0824876363900557  0.6413574127397509  1.0000
  C   C18       1.0  0.3323675337749917  0.41751111689087833  0.1413565959063945  1.0000
  C   C19       1.0  0.41751136123963317  0.33236704782138554  0.858643542781337  1.0000
  C   C20       1.0  0.0824872008595392  0.16763296454490018  0.3586431932072571  1.0000
  C   C21       1.0  0.715539935079377  0.7980672147048437  0.36244364600365486  1.0000
  C   C22       1.0  0.7844574532405488  0.7019327329746614  0.8624432885308337  1.0000
  C   C23       1.0  0.7019347063404241  0.7844595288196885  0.13755645720764423  1.0000
  C   C24       1.0  0.7980674864902043  0.7155402406225094  0.6375567323948204  1.0000
  C   C25       1.0  0.284459274870173  0.20193213793238124  0.6375571953071528  1.0000
  C   C26       1.0  0.21554000712500707  0.2980676678793159  0.13755692866176616  1.0000
  C   C27       1.0  0.2980671391648286  0.21554196825944405  0.8624431358679701  1.0000
  C   C28       1.0  0.20193201878282002  0.28446017623396364  0.36244286068020415  1.0000
  C   C29       1.0  0.7409332697325723  0.006528069500902197  0.47935459016684934  1.0000
  C   C30       1.0  0.7590668755007001  0.4934725475851705  0.979353040360472  1.0000
  C   C31       1.0  0.4934715459790411  0.7590668362528844  0.0206453837427105  1.0000
  C   C32       1.0  0.00652877359254223  0.7409312679367658  0.5206455477620794  1.0000
  C   C33       1.0  0.25906798512444595  0.9934712991388179  0.5206456270263828  1.0000
  C   C34       1.0  0.2409329250957981  0.50652893349055  0.0206453044787622  1.0000
  C   C35       1.0  0.5065273686444699  0.24093145216326667  0.9793529610959908  1.0000
  C   C36       1.0  0.9934721859401493  0.25906703648308843  0.4793546694309754  1.0000
  C   C37       1.0  0.1862039579981811  0.8137951891547033  0.2646361401921382  1.0000
  C   C38       1.0  0.3137956730219215  0.6862031438172094  0.7646357909198046  1.0000
  C   C39       1.0  0.686203241603728  0.313795144600455  0.235365674508806  1.0000
  C   C40       1.0  0.8137959790805595  0.18620310726375772  0.7353640770007104  1.0000
  C   C41       1.0  0.6263595266431139  0.8841782886143431  0.4779117058878485  1.0000
  C   C42       1.0  0.8736390421495058  0.6158217791240045  0.9779113646621767  1.0000
  C   C43       1.0  0.615824240269454  0.8736411324880888  0.0220883820401738  1.0000
  C   C44       1.0  0.8841780898663245  0.6263595891162196  0.5220880474291505  1.0000
  C   C45       1.0  0.37363997863077  0.11582212824274052  0.5220891354231441  1.0000
  C   C46       1.0  0.12635944066956736  0.38417862973106753  0.0220882284126347  1.0000
  C   C47       1.0  0.3841776052357914  0.12636036459103647  0.9779112110354404  1.0000
  C   C48       1.0  0.11582243786106967  0.37364083574195206  0.4779121697640605  1.0000
  C   C49       1.0  0.18172365322855197  0.8182753235950031  0.18107423131325362  1.0000
  C   C50       1.0  0.3182758634365753  0.6817229282832  0.6810738828221972  1.0000
  C   C51       1.0  0.6817233465125412  0.3182764243537193  0.3189263343706301  1.0000
  C   C52       1.0  0.8182765791749488  0.1817240370436153  0.8189266099977601  1.0000
  C   C53       1.0  0.09897855659956883  0.901021582537261  0.1357719961955297  1.0000
  C   C54       1.0  0.4010222158478881  0.5989776975983856  0.6357722862515301  1.0000
  C   C55       1.0  0.5989780165551793  0.401021663039934  0.364227930941503  1.0000
  C   C56       1.0  0.9010226982570233  0.09897778610215369  0.8642275968797222  1.0000
  N   N1        1.0  0.6136988545046691  0.7804114036885464  0.4210389404006065  1.0000
  N   N2        1.0  0.8863009542355228  0.7195896810781761  0.9210386277748128  1.0000
  N   N3        1.0  0.7195886049445762  0.8863009025609185  0.0789611554702887  1.0000
  N   N4        1.0  0.7804121899193034  0.6136977377951566  0.5789607763734635  1.0000
  N   N5        1.0  0.38630137789839836  0.2195879569497663  0.5789612767924197  1.0000
  N   N6        1.0  0.1136981192322111  0.2804128562166142  0.07896096530036088  1.0000
  N   N7        1.0  0.2804098778744973  0.11369950629416073  0.9210384376045297  1.0000
  N   N8        1.0  0.21958774715901086  0.3863005586229987  0.4210388167014044  1.0000
  O   O1        1.0  0.33821186194312264  0.6617884943083183  0.27424195331983015  1.0000
  O   O2        1.0  0.16178910000084554  0.8382109202069187  0.7742415775406855  1.0000
  O   O3        1.0  0.838211132402222  0.1617884404313941  0.22575863965234083  1.0000
  O   O4        1.0  0.6617893929138886  0.338210874331395  0.7257582638734094  1.0000
  O   O5        1.0  0.2612131662020404  0.7387860270757897  0.39237187781074573  1.0000
  O   O6        1.0  0.23878663962560856  0.761212429859178  0.8923721395764375  1.0000
  O   O7        1.0  0.7612125703239415  0.23878692277804694  0.1076287017343702  1.0000
  O   O8        1.0  0.7387870662010273  0.2612133335625301  0.6076283393822806  1.0000
  O   O9        1.0  0.030242775374659716  0.9697583777332279  0.1789684440318453  1.0000
  O   O10       1.0  0.46975762438169255  0.5302430647609739  0.6789681219558474  1.0000
  O   O11       1.0  0.5302429033457017  0.4697573600972048  0.3210320952373635  1.0000
  O   O12       1.0  0.9697567298992169  0.030242039123848492  0.82103239727914  1.0000
  O   O13       1.0  0.10089446984476776  0.8991059877976468  0.0566463184965045  1.0000
  O   O14       1.0  0.39910619431829986  0.6008932155491776  0.5566459841003208  1.0000
  O   O15       1.0  0.6008940380847748  0.3991061450891351  0.44335423309271255  1.0000
  O   O16       1.0  0.8991067850126699  0.100893380842372  0.9433545228147153  1.0000
