data_image0
_chemical_formula_structural       UH22C14N4O10
_chemical_formula_sum              "U1 H22 C14 N4 O10"
_cell_length_a       5.6566640664017385
_cell_length_b       7.919878383381772
_cell_length_c       11.135282195676929
_cell_angle_alpha    73.81573832702172
_cell_angle_beta     85.63412374943272
_cell_angle_gamma    76.02837484044218

_space_group_name_H-M_alt    "P 1"
_space_group_IT_number       1

loop_
  _space_group_symop_operation_xyz
  'x, y, z'

loop_
  _atom_site_type_symbol
  _atom_site_label
  _atom_site_symmetry_multiplicity
  _atom_site_fract_x
  _atom_site_fract_y
  _atom_site_fract_z
  _atom_site_occupancy
  U   U1        1.0  0.9999948386440636  8.391109317796897e-07  0.9999963152757659  1.0000
  H   H1        1.0  0.8130083022909034  0.5409451753185905  0.6391957729474173  1.0000
  H   H2        1.0  0.1869982023768699  0.4590446305986831  0.3608143247696988  1.0000
  H   H3        1.0  0.5713205651689109  0.7363089396206134  0.6036228057593435  1.0000
  H   H4        1.0  0.42868171129409666  0.26367582744897783  0.39638124646285183  1.0000
  H   H5        1.0  0.3719003287857133  0.6337835383963365  0.7948323880068884  1.0000
  H   H6        1.0  0.628110776327766  0.3662408698636099  0.2051792006583923  1.0000
  H   H7        1.0  0.585315468742138  0.42504050741717947  0.8167720837168844  1.0000
  H   H8        1.0  0.4146570053265534  0.5749686139604648  0.18323441878800387  1.0000
  H   H9        1.0  0.5575497655536524  0.6912131880754373  0.9583390569040521  1.0000
  H   H10       1.0  0.44249850697775633  0.3087501887218949  0.04168273455820779  1.0000
  H   H11       1.0  0.7891190837081936  0.49337052618549393  0.9708194414312815  1.0000
  H   H12       1.0  0.21095421699083522  0.5066112966174074  0.029167115501948608  1.0000
  H   H13       1.0  0.12849256237797846  0.8850290375144779  0.672769600861912  1.0000
  H   H14       1.0  0.8714897866588984  0.11498601065704858  0.32721912748446874  1.0000
  H   H15       1.0  0.740294218362564  0.108976433825724  0.6662961449589702  1.0000
  H   H16       1.0  0.25968502777006824  0.891025120974909  0.33369702075010826  1.0000
  H   H17       1.0  0.6390302355650945  0.04996412263299279  0.5410202120062025  1.0000
  H   H18       1.0  0.36094206517032024  0.9500374041925285  0.45897601255573756  1.0000
  H   H19       1.0  0.800458836034366  0.32888918450048976  0.4608419054065181  1.0000
  H   H20       1.0  0.1995300308535519  0.6711173086115068  0.5391579452492155  1.0000
  H   H21       1.0  0.07951891692907513  0.21488823371814186  0.5380626084583043  1.0000
  H   H22       1.0  0.9204626174552499  0.7851063453492914  0.4619371136884496  1.0000
  C   C1        1.0  0.8576555399993852  0.7267342000678239  0.8358216875387897  1.0000
  C   C2        1.0  0.14235895196209472  0.2732693351944562  0.1641764884758459  1.0000
  C   C3        1.0  0.6972690827102496  0.6470490964454284  0.6774584282541627  1.0000
  C   C4        1.0  0.3027322996424359  0.35294506413543303  0.32254484207361866  1.0000
  C   C5        1.0  0.566616023768752  0.5702182830333699  0.7999379256671091  1.0000
  C   C6        1.0  0.43338446981445605  0.42978635960702855  0.20007065315544284  1.0000
  C   C7        1.0  0.6866582906183039  0.6135534880823812  0.9036791955158494  1.0000
  C   C8        1.0  0.31337856620174875  0.3864292670519092  0.09632973644498581  1.0000
  C   C9        1.0  0.9756821327810101  0.873624780274852  0.622464218738415  1.0000
  C   C10       1.0  0.0243013362155509  0.1263807248252107  0.3775289020763921  1.0000
  C   C11       1.0  0.8027910306733975  0.061289261215300365  0.5831587411496814  1.0000
  C   C12       1.0  0.19718365776753893  0.9387162743484508  0.41683662360508583  1.0000
  C   C13       1.0  0.927546305614406  0.1961818144604237  0.49077096675897286  1.0000
  C   C14       1.0  0.07242860333504095  0.8038224829948886  0.5092219181806146  1.0000
  N   N1        1.0  0.2193657115342305  0.2278474787332669  0.7774045954099551  1.0000
  N   N2        1.0  0.780637278732911  0.7721533911430002  0.2225973588799874  1.0000
  N   N3        1.0  0.8520834216204205  0.749275290141199  0.7129201190546369  1.0000
  N   N4        1.0  0.1479095001389794  0.2507286472663565  0.28707549915306885  1.0000
  O   O1        1.0  0.7059552198302514  0.11743892401984368  0.9305327244840101  1.0000
  O   O2        1.0  0.29403090176641195  0.8825737553974804  0.06944725819683834  1.0000
  O   O3        1.0  0.2275260081219912  0.0594624644921495  0.7916906317761132  1.0000
  O   O4        1.0  0.7724273817468797  0.9405411091701409  0.20829450761085877  1.0000
  O   O5        1.0  0.12448786436756622  0.2890478621892639  0.8696291417471546  1.0000
  O   O6        1.0  0.8755201473662664  0.7109442867259902  0.1303885358002361  1.0000
  O   O7        1.0  0.29377956191810745  0.3229218400014345  0.681613457524229  1.0000
  O   O8        1.0  0.7062621239861638  0.6770821315673102  0.3183976167122681  1.0000
  O   O9        1.0  0.9949152034479382  0.7930576938970757  0.8860201379470355  1.0000
  O   O10       1.0  0.005099389361944865  0.20695020766261515  0.1139691421994939  1.0000
