data_image0
_chemical_formula_structural       Ag8H16C28S4O24
_chemical_formula_sum              "Ag8 H16 C28 S4 O24"
_cell_length_a       8.224693533721045
_cell_length_b       10.472345088492727
_cell_length_c       11.527616666469493
_cell_angle_alpha    104.74972276583495
_cell_angle_beta     89.99345591282976
_cell_angle_gamma    113.14377852981768

_space_group_name_H-M_alt    "P 1"
_space_group_IT_number       1

loop_
  _space_group_symop_operation_xyz
  'x, y, z'

loop_
  _atom_site_type_symbol
  _atom_site_label
  _atom_site_symmetry_multiplicity
  _atom_site_fract_x
  _atom_site_fract_y
  _atom_site_fract_z
  _atom_site_occupancy
  Ag  Ag1       1.0  0.37606609744020153  0.034475222682757996  0.9090980357851206  1.0000
  Ag  Ag2       1.0  0.3417559801377124  0.965397535595379  0.590904673119226  1.0000
  Ag  Ag3       1.0  0.6239316331259063  0.9655235499993111  0.0909003984891968  1.0000
  Ag  Ag4       1.0  0.6582447224007099  0.0346023173207683  0.4090948790388466  1.0000
  Ag  Ag5       1.0  0.008605807998826315  0.08083698331643771  0.12027796504894177  1.0000
  Ag  Ag6       1.0  0.9275470458334497  0.9190756810070584  0.3797852066896822  1.0000
  Ag  Ag7       1.0  0.9913905708121645  0.9191639486444175  0.8797227050145436  1.0000
  Ag  Ag8       1.0  0.07245365620114093  0.08092417104091962  0.6202152127493575  1.0000
  H   H1        1.0  0.7611611002451468  0.24037456284046493  0.9433684520904391  1.0000
  H   H2        1.0  0.5207289906027058  0.759633439265123  0.5565801637707464  1.0000
  H   H3        1.0  0.23883960229327533  0.7596252900756824  0.05663110006764072  1.0000
  H   H4        1.0  0.4792717119357164  0.2403664136510244  0.44341938838732614  1.0000
  H   H5        1.0  0.8314329424043618  0.48511079927970246  0.957470393605419  1.0000
  H   H6        1.0  0.3462695742472875  0.5149601930082498  0.5424875364920324  1.0000
  H   H7        1.0  0.16856600360787166  0.5148879727324243  0.04252890794624881  1.0000
  H   H8        1.0  0.653732884817316  0.4850407408119253  0.45751226627245234  1.0000
  H   H9        1.0  0.6035776660540719  0.7024127629596818  0.23481499578510065  1.0000
  H   H10       1.0  0.9011887123408757  0.29734962757583366  0.2650227163511544  1.0000
  H   H11       1.0  0.3964237113542453  0.2975860085807298  0.765185173040322  1.0000
  H   H12       1.0  0.09881198918988335  0.7026502236039676  0.7349785703688452  1.0000
  H   H13       1.0  0.4553503732866844  0.4752522063753658  0.295807869187719  1.0000
  H   H14       1.0  0.9799947077784241  0.5245226135011122  0.20406244804863857  1.0000
  H   H15       1.0  0.5446497881716752  0.5247465649668186  0.7041922996413063  1.0000
  H   H16       1.0  0.020005318378608215  0.4754783181862551  0.7959390892849851  1.0000
  C   C1        1.0  0.5650722614197008  0.3556596307471054  0.16453665591217256  1.0000
  C   C2        1.0  0.20925069196882617  0.6443013138699313  0.33544455077766594  1.0000
  C   C3        1.0  0.43492898119112067  0.6443413020066658  0.8354640141368888  1.0000
  C   C4        1.0  0.7907493346920377  0.3556996186856125  0.6645561192749907  1.0000
  C   C5        1.0  0.6689791494507633  0.35525083033765986  0.06722667987507691  1.0000
  C   C6        1.0  0.31359199025350654  0.6447386675860117  0.4327457177514659  1.0000
  C   C7        1.0  0.3310250656362044  0.6447511835183589  0.9327742407767797  1.0000
  C   C8        1.0  0.6864074958311264  0.35526118426373904  0.5672547016911833  1.0000
  C   C9        1.0  0.750154025515627  0.48243847982728727  0.032163817358849704  1.0000
  C   C10       1.0  0.2676336049650915  0.5175740673418262  0.46779427268550205  1.0000
  C   C11       1.0  0.24984789246891384  0.5175613724189176  0.9678366020765875  1.0000
  C   C12       1.0  0.7323669622720034  0.48242794591951116  0.5322066479771762  1.0000
  C   C13       1.0  0.7300153128972086  0.6079371357255781  0.0946616748522757  1.0000
  C   C14       1.0  0.12202754065509679  0.39198790946678486  0.4052499159382562  1.0000
  C   C15       1.0  0.26998484906498277  0.392061636484776  0.9053376266957895  1.0000
  C   C16       1.0  0.8779731613794939  0.608011942581193  0.5947505035007835  1.0000
  C   C17       1.0  0.6233234153835597  0.6059572366467663  0.18933843378718507  1.0000
  C   C18       1.0  0.017359924525145193  0.3938663961154631  0.3105157493030218  1.0000
  C   C19       1.0  0.37667566492233834  0.39403937328383176  0.8106612338218111  1.0000
  C   C20       1.0  0.9826413175818444  0.6061345357701312  0.6894857880269993  1.0000
  C   C21       1.0  0.5402614245768762  0.47945460742478474  0.22326422130009144  1.0000
  C   C22       1.0  0.06069451742251888  0.5203700836270784  0.2766213214733994  1.0000
  C   C23       1.0  0.4597380620115885  0.5205452452931354  0.7767353308615979  1.0000
  C   C24       1.0  0.9393049681582825  0.4796297673544957  0.7233799652502098  1.0000
  C   C25       1.0  0.8245412813406574  0.7458630729342133  0.06083426027893074  1.0000
  C   C26       1.0  0.07879195603414503  0.2541124562079133  0.43910863423847235  1.0000
  C   C27       1.0  0.1754564487216186  0.2541356988796863  0.9391650412763465  1.0000
  C   C28       1.0  0.9212099619504031  0.7458873960382917  0.5608917851969578  1.0000
  S   S1        1.0  0.4651063772592324  0.1990615887027971  0.21485699288919585  1.0000
  S   S2        1.0  0.2659729325088946  0.8009052622897244  0.2851386240725944  1.0000
  S   S3        1.0  0.5348931093292322  0.800938264015123  0.7851425592724863  1.0000
  S   S4        1.0  0.734027094151969  0.19909567026581237  0.7148620459800694  1.0000
  O   O1        1.0  0.38404963928890384  0.24089350956199246  0.3235319408793201  1.0000
  O   O2        1.0  0.14303663603546116  0.7591340751026437  0.1765103682950198  1.0000
  O   O3        1.0  0.6159498467957293  0.7591063422877584  0.676468478563329  1.0000
  O   O4        1.0  0.8569616346030458  0.24086577741704926  0.8234891838702719  1.0000
  O   O5        1.0  0.3303294113194823  0.08620757317480349  0.11676957754819736  1.0000
  O   O6        1.0  0.24419225410166237  0.9137401781054635  0.38328871717077106  1.0000
  O   O7        1.0  0.6696693998952624  0.9137933600506826  0.8832302252271089  1.0000
  O   O8        1.0  0.7558070992008014  0.08626183843033891  0.6167087343716628  1.0000
  O   O9        1.0  0.6094107988902238  0.15582775144871167  0.24177666962407324  1.0000
  O   O10       1.0  0.4535305810368868  0.8441132709069732  0.25816385910681555  1.0000
  O   O11       1.0  0.39058760654577906  0.8441699398576221  0.7582223813175799  1.0000
  O   O12       1.0  0.5464682296740265  0.1558876614503362  0.7418368109494506  1.0000
  O   O13       1.0  0.685553849394246  0.23040652389087762  0.012363623446489688  1.0000
  O   O14       1.0  0.4550879457799511  0.7696152227072943  0.48761414534611447  1.0000
  O   O15       1.0  0.3144468526403444  0.7695933281571004  0.98763679599255  1.0000
  O   O16       1.0  0.5449132968308633  0.23038571004647676  0.5123865247029471  1.0000
  O   O17       1.0  0.8367831637660147  0.8631271728689499  0.13990365668035312  1.0000
  O   O18       1.0  0.9737879422436962  0.13676166220978564  0.36008363571389157  1.0000
  O   O19       1.0  0.16321578224621902  0.13687159914317704  0.8600956448713145  1.0000
  O   O20       1.0  0.026211543840936737  0.8632381896399651  0.6399167837287576  1.0000
  O   O21       1.0  0.8837942084578856  0.73779097762349  0.9593777876302664  1.0000
  O   O22       1.0  0.14620607122933652  0.26231754128062335  0.5405844581089879  1.0000
  O   O23       1.0  0.11620527813057893  0.2622088750944371  0.040621764531415715  1.0000
  O   O24       1.0  0.853795171381485  0.7376833914731477  0.4594162119400734  1.0000
