data_image0
_chemical_formula_structural       Al4H20C48O26
_chemical_formula_sum              "Al4 H20 C48 O26"
_cell_length_a       6.67109152392902
_cell_length_b       18.400041087747034
_cell_length_c       20.406897570770493
_cell_angle_alpha    92.59262041220073
_cell_angle_beta     90.00011658627994
_cell_angle_gamma    89.99798330860855

_space_group_name_H-M_alt    "P 1"
_space_group_IT_number       1

loop_
  _space_group_symop_operation_xyz
  'x, y, z'

loop_
  _atom_site_type_symbol
  _atom_site_label
  _atom_site_symmetry_multiplicity
  _atom_site_fract_x
  _atom_site_fract_y
  _atom_site_fract_z
  _atom_site_occupancy
  Al  Al1       1.0  0.06829730955458048  0.5022096718116272  0.5032991965239332  1.0000
  Al  Al2       1.0  0.5682936369685905  0.4977880115056694  0.49670564079011115  1.0000
  Al  Al3       1.0  0.6852367498103575  0.9977895593210346  0.9960678849148009  1.0000
  Al  Al4       1.0  0.1852409594138393  0.0022073784657549995  0.0039300345449220005  1.0000
  H   H1        1.0  0.19846766923571826  0.595603857873229  0.7776721853979752  1.0000
  H   H2        1.0  0.6984225092154903  0.4043935612613084  0.22231836255394197  1.0000
  H   H3        1.0  0.7616743980419116  0.8533483047450333  0.8167910066695824  1.0000
  H   H4        1.0  0.2617033272572655  0.1466457121713631  0.1832098469906924  1.0000
  H   H5        1.0  0.6747602526041092  0.8497849354598516  0.7244912105410463  1.0000
  H   H6        1.0  0.1748123321727775  0.15020805022670203  0.2755111638252572  1.0000
  H   H7        1.0  0.5125381996244585  0.8326159658100494  0.6166129269741917  1.0000
  H   H8        1.0  0.012616710529613303  0.16737499500629843  0.3833954277510543  1.0000
  H   H9        1.0  0.0477922353625644  0.5828007040824376  0.6708799996036845  1.0000
  H   H10       1.0  0.5477709422179727  0.41720022904169707  0.32911156917905515  1.0000
  H   H11       1.0  0.2093876265637817  0.8290041335382058  0.9809515279850346  1.0000
  H   H12       1.0  0.7093670398538947  0.1709929660594653  0.0190449067907608  1.0000
  H   H13       1.0  0.2901162083434841  0.6170235668390307  0.8607670859410632  1.0000
  H   H14       1.0  0.7900378321559671  0.38298328041721424  0.13921794235059076  1.0000
  H   H15       1.0  0.5478295278575728  0.6706094387143864  0.5219861419631399  1.0000
  H   H16       1.0  0.0478640636808407  0.32938213104797853  0.4780123762854132  1.0000
  H   H17       1.0  0.33266958307049777  0.5352831207512525  0.5813176511900126  1.0000
  H   H18       1.0  0.8326699154991604  0.46476126593721295  0.418667532297455  1.0000
  H   H19       1.0  0.4199813368474707  0.9690316832761424  0.9171449363537292  1.0000
  H   H20       1.0  0.9199832613678111  0.030950213701018497  0.0828579100163438  1.0000
  C   C1        1.0  0.314024467165531  0.5851723030549038  0.4125802832036811  1.0000
  C   C2        1.0  0.8139898076393166  0.4148266607551392  0.5874229586835112  1.0000
  C   C3        1.0  0.3120888012332728  0.39025592449155516  0.42822635836577655  1.0000
  C   C4        1.0  0.8120925174722374  0.6097457489766214  0.5717763708210057  1.0000
  C   C5        1.0  0.1489622840693769  0.708102048305939  0.8684383684120077  1.0000
  C   C6        1.0  0.6489261044009068  0.2919007407391163  0.1315501939165458  1.0000
  C   C7        1.0  0.9705732649288523  0.8217215415146698  0.8889513006783645  1.0000
  C   C8        1.0  0.4705696774633239  0.17827665103865803  0.11104353316967061  1.0000
  C   C9        1.0  0.6434020998322012  0.727436096019993  0.5955777045627569  1.0000
  C   C10       1.0  0.1434491149724693  0.2725557882406875  0.40442714722392026  1.0000
  C   C11       1.0  0.6132345686576386  0.791472801400694  0.6347670912175687  1.0000
  C   C12       1.0  0.1133026782840716  0.20851845072647993  0.3652392519654342  1.0000
  C   C13       1.0  0.7046527858353927  0.8001293787407208  0.6950779104146035  1.0000
  C   C14       1.0  0.20470461802271703  0.19986442033801674  0.3049259157164173  1.0000
  C   C15       1.0  0.8331653654667195  0.7465203212280827  0.7196644152555152  1.0000
  C   C16       1.0  0.3331814669854865  0.2534770568946456  0.2803344143694347  1.0000
  C   C17       1.0  0.8791218057574  0.6843837210202467  0.6779257172853831  1.0000
  C   C18       1.0  0.3791215321757022  0.3156174463291635  0.32207305942194603  1.0000
  C   C19       1.0  0.9177212367380747  0.7538009982065719  0.7851800547082417  1.0000
  C   C20       1.0  0.41771936333255166  0.24619683710485427  0.21481627859932934  1.0000
  C   C21       1.0  0.05524157072279931  0.699711476362026  0.8061907298909006  1.0000
  C   C22       1.0  0.5552157211919991  0.3002900284834952  0.1938027937165643  1.0000
  C   C23       1.0  0.0966394823018746  0.6384648157486127  0.7628652704850866  1.0000
  C   C24       1.0  0.5966108574754686  0.3615371257360778  0.23712577671031454  1.0000
  C   C25       1.0  0.012450919034449701  0.6306689486642013  0.7019141205692349  1.0000
  C   C26       1.0  0.5124296724842026  0.369334042216046  0.2980774470481293  1.0000
  C   C27       1.0  0.8711369093954389  0.8123452998485234  0.8291775464538277  1.0000
  C   C28       1.0  0.37114652174245316  0.18765267514162076  0.1708207700217841  1.0000
  C   C29       1.0  0.1164488900545848  0.7706623417501747  0.9084676103487369  1.0000
  C   C30       1.0  0.6164246507169864  0.22933881653535346  0.0915234343816493  1.0000
  C   C31       1.0  0.7829487560208293  0.6752625827891094  0.6154246182154496  1.0000
  C   C32       1.0  0.28296623574237145  0.324738386792859  0.38457862098154993  1.0000
  C   C33       1.0  0.9387601527388655  0.1385474070197006  0.8631512423492181  1.0000
  C   C34       1.0  0.4387695114146624  0.8614557746134538  0.1368568145831048  1.0000
  C   C35       1.0  0.9185945611871844  0.18228647803243095  0.8200332531118874  1.0000
  C   C36       1.0  0.4186058703472568  0.8177226768480281  0.17997967035631043  1.0000
  C   C37       1.0  0.893249700918858  0.22960283784555457  0.772700915043515  1.0000
  C   C38       1.0  0.3932573770602801  0.7704100317777219  0.2273144425420028  1.0000
  C   C39       1.0  0.8657944845396129  0.27254226014500926  0.7288608804884474  1.0000
  C   C40       1.0  0.365787548807269  0.727468986023993  0.2711491049536718  1.0000
  C   C41       1.0  0.8393868526595512  0.3193731711050063  0.6812033295574197  1.0000
  C   C42       1.0  0.3393732406161192  0.6806278956674988  0.3188038091080543  1.0000
  C   C43       1.0  0.817340041862991  0.36243094652132163  0.6376042424094166  1.0000
  C   C44       1.0  0.3173283162425591  0.6375717202050595  0.3623979852551146  1.0000
  C   C45       1.0  0.4412733446730642  0.11073726767891402  0.06991079380929928  1.0000
  C   C46       1.0  0.9412734896364725  0.8892608255607611  0.9300855265558496  1.0000
  C   C47       1.0  0.44062679669368526  0.9143607963275004  0.0870182092764082  1.0000
  C   C48       1.0  0.9406503803704069  0.08563723618831182  0.9129859640670758  1.0000
  O   O1        1.0  0.4849752453372957  0.41710433838203187  0.4400484346196691  1.0000
  O   O2        1.0  0.9850160472640042  0.5829357813512248  0.559914630891889  1.0000
  O   O3        1.0  0.1441478204266247  0.5660024144921181  0.4343651579845584  1.0000
  O   O4        1.0  0.6441199564606492  0.43394042922845  0.5656018270457537  1.0000
  O   O5        1.0  0.149318130959351  0.4166213191939505  0.4536275197552441  1.0000
  O   O6        1.0  0.6493167643195221  0.5833431981644495  0.5464202559817865  1.0000
  O   O7        1.0  0.986140290828594  0.43752814362123615  0.5703265234952681  1.0000
  O   O8        1.0  0.4861894492570258  0.562528512602846  0.4297124702038603  1.0000
  O   O9        1.0  0.3220067888223426  0.508625966309623  0.5393980062688114  1.0000
  O   O10       1.0  0.8220138619397019  0.4913763082808772  0.4606076578865271  1.0000
  O   O11       1.0  0.2680555873015463  0.937005015745115  0.0704410695000846  1.0000
  O   O12       1.0  0.7680816705522987  0.06295873826890391  0.9295369702920481  1.0000
  O   O13       1.0  0.6038971491901393  0.08373729148750902  0.0452859613331  1.0000
  O   O14       1.0  0.103890540848937  0.9162794935910553  0.9546823825448809  1.0000
  O   O15       1.0  0.6099428030891758  0.9337495076591653  0.06500525125921539  1.0000
  O   O16       1.0  0.1099538493555983  0.0662834464278745  0.9350159558974551  1.0000
  O   O17       1.0  0.7684188340675036  0.9172919360532533  0.9387833537719886  1.0000
  O   O18       1.0  0.2684529358518049  0.08268480557627102  0.06123874498855741  1.0000
  O   O19       1.0  0.4308646962887295  0.991734418446569  0.9607640118114134  1.0000
  O   O20       1.0  0.9308579597022233  0.0082622899440992  0.039234288019919496  1.0000
  O   O21       1.0  0.2217329623680229  0.7777997785453722  0.9653112312026052  1.0000
  O   O22       1.0  0.7217103173964076  0.22219898831533402  0.0346792947570762  1.0000
  O   O23       1.0  0.279594250533421  0.658418269918421  0.8919759459318894  1.0000
  O   O24       1.0  0.7795362439770415  0.3415872827232321  0.10801253339489139  1.0000
  O   O25       1.0  0.5373309898549437  0.7214947534019984  0.5389291507037867  1.0000
  O   O26       1.0  0.037381028011545  0.2784924698774631  0.4610762795948276  1.0000
