data_image0
_chemical_formula_structural       Zn4H25C40I2N16F
_chemical_formula_sum              "Zn4 H25 C40 I2 N16 F1"
_cell_length_a       12.952190564431021
_cell_length_b       13.061367854401189
_cell_length_c       15.13080472594332
_cell_angle_alpha    102.64894539185462
_cell_angle_beta     116.55384321269584
_cell_angle_gamma    104.09611953374807

_space_group_name_H-M_alt    "P 1"
_space_group_IT_number       1

loop_
  _space_group_symop_operation_xyz
  'x, y, z'

loop_
  _atom_site_type_symbol
  _atom_site_label
  _atom_site_symmetry_multiplicity
  _atom_site_fract_x
  _atom_site_fract_y
  _atom_site_fract_z
  _atom_site_occupancy
  Zn  Zn1       1.0  0.17120802607111313  0.6692382311767132  0.9985474162917639  1.0000
  Zn  Zn2       1.0  0.8789584487384945  0.3656815657492914  0.9941142712425587  1.0000
  Zn  Zn3       1.0  0.8645720242270303  0.5256590654122847  0.8559181702183309  1.0000
  Zn  Zn4       1.0  0.17550159911382934  0.4915221592411357  0.13958540359399765  1.0000
  H   H1        1.0  0.1640175755864492  0.9274456303559906  0.018766794836395366  1.0000
  H   H2        1.0  0.8169399490250415  0.26817023716726146  0.1599809319245508  1.0000
  H   H3        1.0  0.37946833033830546  0.818214304895257  0.4652655428037988  1.0000
  H   H4        1.0  0.8214231310530099  0.3519352967825996  0.3377930481615082  1.0000
  H   H5        1.0  0.8283162635954258  0.378106753399301  0.5068927266722909  1.0000
  H   H6        1.0  0.19310833742620298  0.3630866033208306  0.6512418382855856  1.0000
  H   H7        1.0  0.18631633498026193  0.337391812993225  0.4818961797623373  1.0000
  H   H8        1.0  0.6538802273349519  0.5510626033096457  0.18523388789085965  1.0000
  H   H9        1.0  0.8625542152320309  0.8945978057797533  0.014879560468841603  1.0000
  H   H10       1.0  0.9077214301065268  0.07980353391126022  0.06845641082971089  1.0000
  H   H11       1.0  0.7731866872337105  0.703169754945918  0.9671628028482856  1.0000
  H   H12       1.0  0.6173503391268726  0.13736918599396125  0.8124174653109931  1.0000
  H   H13       1.0  0.1836009903043775  0.6552311637972679  0.32954137986566684  1.0000
  H   H14       1.0  0.8122378736494725  0.4922196137640357  0.1553258867678977  1.0000
  H   H15       1.0  0.18046897422960478  0.879898538141468  0.15741351614127544  1.0000
  H   H16       1.0  0.2159030145267451  0.46331450230011484  0.3759038514273243  1.0000
  H   H17       1.0  0.7698448296203184  0.7126495383237953  0.8147187331244439  1.0000
  H   H18       1.0  0.4724677426835272  0.7533983129477377  0.07503052630094943  1.0000
  H   H19       1.0  0.8344416096258912  0.32864529377854973  0.6704212387907873  1.0000
  H   H20       1.0  0.1975975182801122  0.2503339216070728  0.12861337263348818  1.0000
  H   H21       1.0  0.8237078934372093  0.13970710872071382  0.8571816579065796  1.0000
  H   H22       1.0  0.4500344173299312  0.49260363732471296  0.2069592007971578  1.0000
  H   H23       1.0  0.5889981617782498  0.3466505245620298  0.6239091198180021  1.0000
  H   H24       1.0  0.3481805043061358  0.19374330037442186  0.5075447641237645  1.0000
  H   H25       1.0  0.5333496613254952  0.9814698664041474  0.6336570094212206  1.0000
  C   C1        1.0  0.07234038751444409  0.8585991461219893  0.9634156033445719  1.0000
  C   C2        1.0  0.12687920370335357  0.5051674400572497  0.7928774234992844  1.0000
  C   C3        1.0  0.43615220352052136  0.5564535071134388  0.17237353078121492  1.0000
  C   C4        1.0  0.9162678340105687  0.31952964267114237  0.19902280442509115  1.0000
  C   C5        1.0  0.6128377163345676  0.3111466582573996  0.6855092436793128  1.0000
  C   C6        1.0  0.5149623962878708  0.6255948042903796  0.1495443243272021  1.0000
  C   C7        1.0  0.5558920384822698  0.2004175200180569  0.6777150030313377  1.0000
  C   C8        1.0  0.024622812870127537  0.4166282020312693  0.6971030707286232  1.0000
  C   C9        1.0  0.99767942737509  0.14617321307799366  0.9941715289136255  1.0000
  C   C10       1.0  0.2682699546619745  0.017647381972636805  0.4031702689120563  1.0000
  C   C11       1.0  0.3560470608153281  0.1113389361431203  0.49850223654794223  1.0000
  C   C12       1.0  0.012577692397798006  0.3562637600788819  0.3061525055973675  1.0000
  C   C13       1.0  0.45441226575412946  0.10120714534190262  0.5827780704202681  1.0000
  C   C14       1.0  0.4572466284218496  0.9922482568931487  0.5704737781969272  1.0000
  C   C15       1.0  0.3700198909044232  0.9000372332302432  0.4755369669819629  1.0000
  C   C16       1.0  0.7933860484141847  0.6436849180915233  0.0056143487884198675  1.0000
  C   C17       1.0  0.2747828662643671  0.9093502262941372  0.38705826217633904  1.0000
  C   C18       1.0  0.9025763891375934  0.35254198783272994  0.40591174171779437  1.0000
  C   C19       1.0  0.906362276983977  0.3671590401396899  0.501315543659814  1.0000
  C   C20       1.0  0.013521993151137165  0.37760451715711707  0.5934589006264233  1.0000
  C   C21       1.0  0.11183151445643348  0.3619945766284971  0.5831089360353374  1.0000
  C   C22       1.0  0.10812214333315494  0.3477089665730801  0.4876327201529449  1.0000
  C   C23       1.0  0.7639976417550971  0.6188478717970014  0.0794310256543085  1.0000
  C   C24       1.0  0.006083380591256613  0.3482150222626431  0.3986221436429886  1.0000
  C   C25       1.0  0.6243260471287116  0.6130876592462258  0.15347035926728136  1.0000
  C   C26       1.0  0.6823699847438364  0.6559890093712114  0.10686458358823357  1.0000
  C   C27       1.0  0.9175890178730416  0.9390195735059879  0.9867497074095085  1.0000
  C   C28       1.0  0.17789621557768256  0.695410607172633  0.27272214888104435  1.0000
  C   C29       1.0  0.9436158606684375  0.05118824149859341  0.018290346156867046  1.0000
  C   C30       1.0  0.8119066907622641  0.535687754364524  0.10177962709942522  1.0000
  C   C31       1.0  0.17438654454242206  0.809530592972344  0.18416298500325473  1.0000
  C   C32       1.0  0.11993901321024238  0.4177395523988708  0.30838595266283164  1.0000
  C   C33       1.0  0.8718441481584807  0.7492726068180815  0.8599583609291557  1.0000
  C   C34       1.0  0.2037595009593575  0.8107088671467578  0.28584883194452  1.0000
  C   C35       1.0  0.9533099234191624  0.8615829839098698  0.9314702529411035  1.0000
  C   C36       1.0  0.4476523736063813  0.6895507614605592  0.10508959548243979  1.0000
  C   C37       1.0  0.6288047927043295  0.20389522478403424  0.7811874318501352  1.0000
  C   C38       1.0  0.9300469138949481  0.3920631056113707  0.7204393292897463  1.0000
  C   C39       1.0  0.11195609810505402  0.24138816770471297  0.05958871889794182  1.0000
  C   C40       1.0  0.9210450566643119  0.1854019076895739  0.9220036416818401  1.0000
  I   I1        1.0  0.3002593384798901  0.6029243700464377  0.8230876355505076  1.0000
  I   I2        1.0  0.1270829729665337  0.04821958918046222  0.2839462431402993  1.0000
  N   N1        1.0  0.06223208456148677  0.7520527064528653  0.9189977069450421  1.0000
  N   N2        1.0  0.8519582318831881  0.5784977821798238  0.9845474486903782  1.0000
  N   N3        1.0  0.1393473091397014  0.6323983046170127  0.17194024130846236  1.0000
  N   N4        1.0  0.8633718348357964  0.5127682785743772  0.04373000373938394  1.0000
  N   N5        1.0  0.13750748426859624  0.7028561709567287  0.11758109506847352  1.0000
  N   N6        1.0  0.0895939787635029  0.4181827732361185  0.2111586390306073  1.0000
  N   N7        1.0  0.9356329138300837  0.6834684134033395  0.8529369125883334  1.0000
  N   N8        1.0  0.3375875134706377  0.6590369632677239  0.09991829414744308  1.0000
  N   N9        1.0  0.7214249411504738  0.30781889121797695  0.8449217728692558  1.0000
  N   N10       1.0  0.9726182877287501  0.46073868337534657  0.8206738797917055  1.0000
  N   N11       1.0  0.10197715706879514  0.33092619328286343  0.030238586094924424  1.0000
  N   N12       1.0  0.9823551768893781  0.2974757236252898  0.9455306736301807  1.0000
  N   N13       1.0  0.09468231720195783  0.5307854819812479  0.8657980594547539  1.0000
  N   N14       1.0  0.3306553959601645  0.5761847397888075  0.1423660749876419  1.0000
  N   N15       1.0  0.711987687823985  0.3745778105962004  0.785400809919274  1.0000
  N   N16       1.0  0.963096770590383  0.35624059868190033  0.14267025973692418  1.0000
  F   F1        1.0  0.648384978923943  0.7342445588436419  0.0640116003746058  1.0000
