data_image0
_chemical_formula_structural       Zr6H48C62N10Cl2O32
_chemical_formula_sum              "Zr6 H48 C62 N10 Cl2 O32"
_cell_length_a       14.91485671134389
_cell_length_b       14.872195481583736
_cell_length_c       14.872792145278156
_cell_angle_alpha    59.85773341683508
_cell_angle_beta     59.92183590117113
_cell_angle_gamma    59.86387476014954

_space_group_name_H-M_alt    "P 1"
_space_group_IT_number       1

loop_
  _space_group_symop_operation_xyz
  'x, y, z'

loop_
  _atom_site_type_symbol
  _atom_site_label
  _atom_site_symmetry_multiplicity
  _atom_site_fract_x
  _atom_site_fract_y
  _atom_site_fract_z
  _atom_site_occupancy
  Zr  Zr1       1.0  0.8798305864888435  0.3803439763972136  0.6175957499447334  1.0000
  Zr  Zr2       1.0  0.11743976270803108  0.6176392097422932  0.37991155821568157  1.0000
  Zr  Zr3       1.0  0.11756896390106436  0.3804648617631654  0.6194542655485407  1.0000
  Zr  Zr4       1.0  0.8821171649249423  0.616312027169066  0.38004078965200694  1.0000
  Zr  Zr5       1.0  0.8817846374851614  0.6141444488926308  0.6206345595383665  1.0000
  Zr  Zr6       1.0  0.11853330949613658  0.37550197930097073  0.38570651540052114  1.0000
  H   H1        1.0  0.9065015757233823  0.40557238133438017  0.7819880276337444  1.0000
  H   H2        1.0  0.9078697727319566  0.7785717174154883  0.4061550838208775  1.0000
  H   H3        1.0  0.27924675152237216  0.4037883961816249  0.4088571569437106  1.0000
  H   H4        1.0  0.9077154705429535  0.4035590128416899  0.4062195124606304  1.0000
  H   H5        1.0  0.5417822412332712  0.7469290365521105  0.8781293728921112  1.0000
  H   H6        1.0  0.6233890627533897  0.6561252715559577  0.9662916805959723  1.0000
  H   H7        1.0  0.4517053623011195  0.6567279540016668  0.131879199979238  1.0000
  H   H8        1.0  0.36973409654439154  0.7481788455458865  0.04411904801278866  1.0000
  H   H9        1.0  0.23886651088999136  0.0580581329157964  0.3115104406411362  1.0000
  H   H10       1.0  0.13955554079945642  0.13513525366307277  0.24339354255437942  1.0000
  H   H11       1.0  0.14894301982541708  0.9583086306183046  0.24912907208778268  1.0000
  H   H12       1.0  0.24444208008722543  0.8811571219448097  0.32247221514330693  1.0000
  H   H13       1.0  0.5336815235130601  0.8615906300555025  0.35347060013566517  1.0000
  H   H14       1.0  0.6140077664899054  0.9505861152974403  0.25849372535146375  1.0000
  H   H15       1.0  0.4393847959535222  0.11548555581192937  0.2656821565898611  1.0000
  H   H16       1.0  0.36102976940648546  0.024873462860121216  0.36057519491971846  1.0000
  H   H17       1.0  0.8527224279624618  0.7531198620971224  0.03540122652437801  1.0000
  H   H18       1.0  0.7622312752957683  0.6742393906358827  0.11605559978200103  1.0000
  H   H19       1.0  0.7650585085808571  0.680413899099406  0.9425570598622243  1.0000
  H   H20       1.0  0.8566215270096721  0.7578553877097463  0.8615008122156311  1.0000
  H   H21       1.0  0.816147293170708  0.26582562719286074  0.9331259760724038  1.0000
  H   H22       1.0  0.6632502317248025  0.2727901820519705  0.10708034734030751  1.0000
  H   H23       1.0  0.815163242626916  0.9284539834378049  0.26654597741903535  1.0000
  H   H24       1.0  0.6625183091605038  0.102404906727294  0.2750322223704201  1.0000
  H   H25       1.0  0.5484957306393384  0.3276241415492366  0.744823977234965  1.0000
  H   H26       1.0  0.6263595855064851  0.24779823586563765  0.6553523747737484  1.0000
  H   H27       1.0  0.4504726777798356  0.2559498414304996  0.6621092691431159  1.0000
  H   H28       1.0  0.37258360995961964  0.33661519734249606  0.7510955197003922  1.0000
  H   H29       1.0  0.3500661913059843  0.3236610571597537  0.16027685329917316  1.0000
  H   H30       1.0  0.4691956215064011  0.2574600430635242  0.07592865087858043  1.0000
  H   H31       1.0  0.6390102956727617  0.3475067239160339  0.8268722645160409  1.0000
  H   H32       1.0  0.5186056889952654  0.31753900332036994  0.9095440162260358  1.0000
  H   H33       1.0  0.830305200327118  0.8439964592400313  0.666950244658551  1.0000
  H   H34       1.0  0.7627233515255083  0.9635689061231217  0.6977181764435656  1.0000
  H   H35       1.0  0.8544418548477565  0.13264876799411235  0.6872246035526215  1.0000
  H   H36       1.0  0.8289144516867283  0.009819330217524522  0.7541809567967447  1.0000
  H   H37       1.0  0.3495570621496427  0.15693346976873093  0.668674328560833  1.0000
  H   H38       1.0  0.4733321253855891  0.08050437211288403  0.6924891397858772  1.0000
  H   H39       1.0  0.6483513738273458  0.8305372928839387  0.6787813959109953  1.0000
  H   H40       1.0  0.5309836278079345  0.9147977100477218  0.7465640192300996  1.0000
  H   H41       1.0  0.16107610831505095  0.3205307706347186  0.8532884947872715  1.0000
  H   H42       1.0  0.18993400956539128  0.2543768707816838  0.9744791531058254  1.0000
  H   H43       1.0  0.1802482600781445  0.3399629978879801  0.14514389339921513  1.0000
  H   H44       1.0  0.2512227844260125  0.31273099088755163  0.02418827982127428  1.0000
  H   H45       1.0  0.3418311397573891  0.6695014939845051  0.33135012654194174  1.0000
  H   H46       1.0  0.4638497748157707  0.6960201428269385  0.2581795285817988  1.0000
  H   H47       1.0  0.6491797535930816  0.6738356248700369  0.337010163704626  1.0000
  H   H48       1.0  0.5286470184227525  0.7451883573598294  0.30722321654467055  1.0000
  C   C1        1.0  0.6921210882347709  0.5007939000857745  0.8005803538471381  1.0000
  C   C2        1.0  0.9999361119437823  0.79867397233145  0.5033753413503063  1.0000
  C   C3        1.0  0.2992192312789258  0.4971244326377401  0.19541198211817343  1.0000
  C   C4        1.0  0.0023715000052178955  0.19092536233770116  0.5036747637864066  1.0000
  C   C5        1.0  0.0008144170589120213  0.19028848028693102  0.7986323294124915  1.0000
  C   C6        1.0  0.6939304236084143  0.5022565474874556  0.49958526082270527  1.0000
  C   C7        1.0  0.0027670204972098595  0.7954896202628845  0.1903348955709275  1.0000
  C   C8        1.0  0.29802481506715844  0.5055200540343207  0.5015396719896188  1.0000
  C   C9        1.0  0.0052587261453141505  0.4996165365415949  0.8008605895160485  1.0000
  C   C10       1.0  0.29914592816606256  0.1899932305177288  0.5104125589810024  1.0000
  C   C11       1.0  0.007725159168536958  0.4986652700816236  0.19360743131506541  1.0000
  C   C12       1.0  0.6948719380997519  0.7978648509066131  0.5049618199154791  1.0000
  C   C13       1.0  0.5923711242065866  0.49807535811167003  0.8988318888322693  1.0000
  C   C14       1.0  0.39615316315207855  0.49659640363456964  0.09425912043212752  1.0000
  C   C15       1.0  0.5416743797880628  0.5751439579860715  0.9529634165685934  1.0000
  C   C16       1.0  0.44644153565096906  0.41541848721627145  0.043892546761263265  1.0000
  C   C17       1.0  0.44729408888977684  0.5758030981545871  0.04426491422185549  1.0000
  C   C18       1.0  0.5406551420620787  0.41882006107012865  0.9446917254767015  1.0000
  C   C19       1.0  0.5503055075519471  0.6731819650712011  0.9514979001223905  1.0000
  C   C20       1.0  0.44202980640582035  0.6741440163089932  0.05553350771680233  1.0000
  C   C21       1.0  0.9984816698597002  0.09308625482179878  0.505578662416596  1.0000
  C   C22       1.0  0.9979455026881187  0.896880072359941  0.5068662028840124  1.0000
  C   C23       1.0  0.07221577771325378  0.04626588848969958  0.42150414184219187  1.0000
  C   C24       1.0  0.9184940267873927  0.9450014800428049  0.5902603578196375  1.0000
  C   C25       1.0  0.073755592867556  0.951534117563014  0.4236989599956757  1.0000
  C   C26       1.0  0.9218849877796913  0.038901073099744034  0.5924994464656947  1.0000
  C   C27       1.0  0.16379385956623346  0.061276425463361824  0.3112342865376262  1.0000
  C   C28       1.0  0.1679357493243433  0.950851245338448  0.3156198653352787  1.0000
  C   C29       1.0  0.596597826030447  0.8977442610768308  0.5086631750570872  1.0000
  C   C30       1.0  0.3982006514610462  0.09102758048371837  0.5134180526324457  1.0000
  C   C31       1.0  0.5428148871946806  0.9484424367203842  0.43144473356122864  1.0000
  C   C32       1.0  0.45174670351257623  0.044181822491225486  0.591283697946551  1.0000
  C   C33       1.0  0.447766075365344  0.039017187804880345  0.43488957700498077  1.0000
  C   C34       1.0  0.54812728234716  0.9466888643377728  0.5907273026393298  1.0000
  C   C35       1.0  0.5438657866360188  0.9380789507812893  0.33462168186455443  1.0000
  C   C36       1.0  0.4346519210965241  0.04121693545374677  0.3392217766034306  1.0000
  C   C37       1.0  0.01218207779292883  0.49741521013088164  0.09303999113262046  1.0000
  C   C38       1.0  0.011713260194746099  0.4990358829529313  0.8966533794486081  1.0000
  C   C39       1.0  0.9345772571007773  0.5791873405343323  0.04003828376119846  1.0000
  C   C40       1.0  0.09097987353659703  0.41410156595858155  0.9486423416914036  1.0000
  C   C41       1.0  0.9356295672685843  0.5811941337107669  0.9456468629932498  1.0000
  C   C42       1.0  0.09355631950376167  0.4157796185665034  0.04322839195896929  1.0000
  C   C43       1.0  0.8364819936790655  0.6841658293062737  0.044238543066398975  1.0000
  C   C44       1.0  0.8385736222394158  0.6873663156680295  0.9353336453418634  1.0000
  C   C45       1.0  0.9990672903421046  0.0874413545050388  0.8986314011622482  1.0000
  C   C46       1.0  0.9089942300850922  0.09336737024759147  0.9988967553145044  1.0000
  C   C47       1.0  0.08342650456231858  0.9883334928353378  0.893071999689667  1.0000
  C   C48       1.0  0.8186163305455307  0.1924973096060967  0.006471170683596465  1.0000
  C   C49       1.0  0.7320936893787007  0.19595379978289162  0.1038683643671802  1.0000
  C   C50       1.0  0.9999557203829924  0.8962831386608484  0.08825623062065777  1.0000
  C   C51       1.0  0.0840447811446766  0.8919636936244896  0.9887991406807399  1.0000
  C   C52       1.0  0.9090992710361406  0.9960726126222139  0.09518948426663329  1.0000
  C   C53       1.0  0.8182850089407835  0.0025905839373762266  0.19415892059772222  1.0000
  C   C54       1.0  0.7318345038532429  0.10015166370050803  0.19844018953711637  1.0000
  C   C55       1.0  0.5961070686995315  0.5047284736212132  0.49519978819015614  1.0000
  C   C56       1.0  0.39629118250336165  0.5095617767041176  0.4987542434180056  1.0000
  C   C57       1.0  0.544836954563543  0.42492764509950104  0.5740277437029702  1.0000
  C   C58       1.0  0.4472653253713403  0.5899198356504841  0.41559483705590583  1.0000
  C   C59       1.0  0.44922962180569226  0.42842386920958836  0.5767146272899523  1.0000
  C   C60       1.0  0.5450386903147264  0.5884869640491246  0.4148185402392597  1.0000
  C   C61       1.0  0.5541727416330603  0.3197063007905355  0.6724531805858264  1.0000
  C   C62       1.0  0.44366134185981565  0.3249796284200741  0.6767174871978624  1.0000
  N   N1        1.0  0.4080790706611453  0.32990145391570275  0.08368065603635694  1.0000
  N   N2        1.0  0.5784813293229406  0.337822672102554  0.9017633543764062  1.0000
  N   N3        1.0  0.8357492326758023  0.90423665610394  0.6762470505714546  1.0000
  N   N4        1.0  0.8440643887131358  0.0727914558264047  0.6822689074569793  1.0000
  N   N5        1.0  0.4138839356833658  0.08463808661068117  0.6742128771913372  1.0000
  N   N6        1.0  0.5900808818539288  0.9070036769530885  0.6733965088445615  1.0000
  N   N7        1.0  0.1714877374472724  0.32632447506793477  0.9125949440589733  1.0000
  N   N8        1.0  0.17705014164910443  0.33034391315513995  0.0837493821408373  1.0000
  N   N9        1.0  0.4059105594182458  0.675927378235066  0.3329449272725213  1.0000
  N   N10       1.0  0.5864663429921108  0.6710115468628713  0.32941386517772014  1.0000
  Cl  Cl1       1.0  0.18856018070899008  0.7690905387091288  0.9790915521249275  1.0000
  Cl  Cl2       1.0  0.18666811215427287  0.9800473226362951  0.7693683276363643  1.0000
  O   O1        1.0  0.7349827561794485  0.4255220100347684  0.7570991540234571  1.0000
  O   O2        1.0  0.07468946081560553  0.761841904929028  0.4244930100880921  1.0000
  O   O3        1.0  0.2601047517736674  0.5745134788300561  0.23351211146228928  1.0000
  O   O4        1.0  0.9262444814131358  0.2346086819026708  0.5785610988897288  1.0000
  O   O5        1.0  0.07452926808952057  0.23011991883983288  0.7649627436196764  1.0000
  O   O6        1.0  0.7370360358309898  0.5780527077696008  0.4246119280487902  1.0000
  O   O7        1.0  0.9265557498539465  0.7560880992273056  0.2310878928903648  1.0000
  O   O8        1.0  0.2608343504280271  0.4274093204585939  0.5777792263146748  1.0000
  O   O9        1.0  0.9269536623389527  0.5748092170086707  0.7635150385714836  1.0000
  O   O10       1.0  0.26070660832679243  0.22795126930894577  0.4336277340842898  1.0000
  O   O11       1.0  0.08191197787352417  0.42205273609659605  0.23808131042976294  1.0000
  O   O12       1.0  0.7373069977496555  0.7532291000389716  0.5811954161873556  1.0000
  O   O13       1.0  0.2571276738260623  0.2345748734791471  0.5845511189091042  1.0000
  O   O14       1.0  0.9293568236085367  0.5744593021685416  0.23325436819896325  1.0000
  O   O15       1.0  0.7337111233281918  0.7613872464864072  0.42640728525829996  1.0000
  O   O16       1.0  0.07890019380646168  0.4220022814299965  0.7594713041416269  1.0000
  O   O17       1.0  0.9247961527231254  0.23045931826219154  0.7589190800961276  1.0000
  O   O18       1.0  0.25556679070188454  0.5801578450715396  0.42505248907774257  1.0000
  O   O19       1.0  0.07755199088992992  0.7603690572015154  0.2294987898269766  1.0000
  O   O20       1.0  0.732110260072581  0.42527586187880223  0.5770483288877912  1.0000
  O   O21       1.0  0.07974396427652419  0.22936031365473034  0.42755670922124267  1.0000
  O   O22       1.0  0.7324353454959721  0.5756603510533935  0.7642050688962597  1.0000
  O   O23       1.0  0.9250513224685121  0.7549719591836845  0.5796193396814288  1.0000
  O   O24       1.0  0.26011527250168603  0.41823131136842295  0.24095948454018404  1.0000
  O   O25       1.0  0.9332556091731734  0.4304399407320289  0.433485268907404  1.0000
  O   O26       1.0  0.1995698552334347  0.4305971154841401  0.43499176331641815  1.0000
  O   O27       1.0  0.9331734192877408  0.6986591487008836  0.4312845801917431  1.0000
  O   O28       1.0  0.932023631125482  0.4301042061657796  0.7021454337718748  1.0000
  O   O29       1.0  0.048921518478629106  0.5478311526281698  0.5491277267064447  1.0000
  O   O30       1.0  0.852437256269802  0.5473774898746343  0.5488705046800034  1.0000
  O   O31       1.0  0.04949067078812427  0.5457677048609355  0.35288930823232784  1.0000
  O   O32       1.0  0.048199658133683126  0.3489268997244109  0.5521405906930781  1.0000
