data_image0
_chemical_formula_structural       Co6H36C54S6N12O12
_chemical_formula_sum              "Co6 H36 C54 S6 N12 O12"
_cell_length_a       11.921579904435209
_cell_length_b       12.942459778554689
_cell_length_c       12.9826
_cell_angle_alpha    111.02407299629289
_cell_angle_beta     108.0609655549291
_cell_angle_gamma    107.76218067509035

_space_group_name_H-M_alt    "P 1"
_space_group_IT_number       1

loop_
  _space_group_symop_operation_xyz
  'x, y, z'

loop_
  _atom_site_type_symbol
  _atom_site_label
  _atom_site_symmetry_multiplicity
  _atom_site_fract_x
  _atom_site_fract_y
  _atom_site_fract_z
  _atom_site_occupancy
  Co  Co1       1.0  0.1013077555960464  0.23355555981998316  0.8086847851633651  1.0000
  Co  Co2       1.0  0.8674885014822352  0.5755766516928843  0.7664024221056424  1.0000
  Co  Co3       1.0  0.29227706243281654  0.19117373385156358  0.42534553977554174  1.0000
  Co  Co4       1.0  0.8986901730191548  0.7664410838820714  0.19131126801549675  1.0000
  Co  Co5       1.0  0.132511301688659  0.424423741120222  0.23359858666288605  1.0000
  Co  Co6       1.0  0.7077218584502631  0.8088266589615428  0.5746521367663959  1.0000
  H   H1        1.0  0.2449785355116774  0.07781748642194938  0.849254690075888  1.0000
  H   H2        1.0  0.16687667578288767  0.7719344688615236  0.9219630838111001  1.0000
  H   H3        1.0  0.39463299450987677  0.1497872968693557  0.227912343376957  1.0000
  H   H4        1.0  0.7550222049370632  0.9221847809466865  0.1507449451788005  1.0000
  H   H5        1.0  0.8331275388270782  0.22806592395158987  0.07803841059392622  1.0000
  H   H6        1.0  0.6053694555244603  0.8502130959437507  0.7720871081452998  1.0000
  H   H7        1.0  0.003438717189361296  0.1074476484003597  0.3659247549582076  1.0000
  H   H8        1.0  0.8966532607844684  0.25873271513785306  0.8927763217630513  1.0000
  H   H9        1.0  0.6375872311884763  0.6344358207663702  0.7414470593587269  1.0000
  H   H10       1.0  0.9965587427869098  0.8925480580239267  0.6340708295849781  1.0000
  H   H11       1.0  0.10335089883546536  0.7412658031197238  0.10722679733546418  1.0000
  H   H12       1.0  0.3624068646066334  0.36556550932451154  0.25855188952621694  1.0000
  H   H13       1.0  0.9151489890265837  0.19692205838304488  0.3618879919895335  1.0000
  H   H14       1.0  0.7188159651059749  0.1654717029854069  0.8030889184490634  1.0000
  H   H15       1.0  0.5527905801754898  0.6370986268961473  0.8338332396953164  1.0000
  H   H16       1.0  0.08484940822754071  0.8030755225967778  0.6381077595632759  1.0000
  H   H17       1.0  0.28118860816285013  0.8345258779944089  0.19691552371688922  1.0000
  H   H18       1.0  0.4472038742784791  0.36289989136143663  0.1661671164270899  1.0000
  H   H19       1.0  0.3966779802185698  0.0310857543471315  0.5204314615092683  1.0000
  H   H20       1.0  0.3661283887445705  0.48881940995033796  0.9692186430511001  1.0000
  H   H21       1.0  0.8767864018967445  0.48003618001646225  0.511293129868058  1.0000
  H   H22       1.0  0.6033231188890297  0.9689137011882136  0.47956958098287567  1.0000
  H   H23       1.0  0.6338690712317003  0.5111762964739482  0.030780792800761986  1.0000
  H   H24       1.0  0.1232143935420282  0.5199679619077102  0.48871104278701694  1.0000
  H   H25       1.0  0.4449411496753939  0.9341360097255701  0.6530197282455249  1.0000
  H   H26       1.0  0.5109856867769196  0.7185490019344343  0.0658754571540499  1.0000
  H   H27       1.0  0.791642529913439  0.3470233433036043  0.2817763187883174  1.0000
  H   H28       1.0  0.555060473061161  0.0658662576430729  0.34698169871227685  1.0000
  H   H29       1.0  0.4890126004971407  0.28144482993432257  0.934124314047466  1.0000
  H   H30       1.0  0.20836049873989274  0.6529817358983293  0.7182295951234678  1.0000
  H   H31       1.0  0.36748465911560396  0.9537607315648058  0.8109180327942981  1.0000
  H   H32       1.0  0.4136094601437036  0.8573701489557165  0.045949865733390965  1.0000
  H   H33       1.0  0.5554204770279442  0.18848843305543275  0.14289581866366768  1.0000
  H   H34       1.0  0.6325169636209509  0.046241535803837094  0.18908339416350375  1.0000
  H   H35       1.0  0.5863937621983908  0.14262649474633798  0.9540523160937654  1.0000
  H   H36       1.0  0.4445860807766381  0.8115166461465009  0.8571095594432381  1.0000
  C   C1        1.0  0.2770347860313507  0.06694787618364728  0.777712068536573  1.0000
  C   C2        1.0  0.21001173373153387  0.7110301597052667  0.9328519145609275  1.0000
  C   C3        1.0  0.49859091054439386  0.22162963754075088  0.2888764835593207  1.0000
  C   C4        1.0  0.7229650171395434  0.9330525166294663  0.22228508892327903  1.0000
  C   C5        1.0  0.7899893653760657  0.2889692958300856  0.06714912793121641  1.0000
  C   C6        1.0  0.5014102435532378  0.7783716925501237  0.7111229342393343  1.0000
  C   C7        1.0  0.17827324227102542  0.2113589477941531  0.6036890835308384  1.0000
  C   C8        1.0  0.9671586183534374  0.392526304228781  0.7889524143075874  1.0000
  C   C9        1.0  0.5749187002596443  0.3963794531198488  0.6069980607891736  1.0000
  C   C10       1.0  0.8217274431876831  0.7886414450189603  0.39630986563213355  1.0000
  C   C11       1.0  0.03284206710527119  0.6074740885843255  0.21104884564059032  1.0000
  C   C12       1.0  0.4250784560477996  0.6036209396932648  0.393001424178678  1.0000
  C   C13       1.0  0.2906628840519971  0.1060867210858802  0.6093483286906647  1.0000
  C   C14       1.0  0.18482063820168546  0.5030519728087198  0.8939082862482762  1.0000
  C   C15       1.0  0.6814240628315815  0.3907698456975622  0.49666812585972764  1.0000
  C   C16       1.0  0.7093373327677879  0.893912734449472  0.3906501518366241  1.0000
  C   C17       1.0  0.8151782276913624  0.4969465454488571  0.10608870420194465  1.0000
  C   C18       1.0  0.3185731484659016  0.6092324216710807  0.5033320451998406  1.0000
  C   C19       1.0  0.24944086887490607  0.12042613360944898  0.7027921220021369  1.0000
  C   C20       1.0  0.12912243639639337  0.5825350018187123  0.879535688172723  1.0000
  C   C21       1.0  0.5463033928856901  0.2968396172210531  0.4172186353691316  1.0000
  C   C22       1.0  0.7505606988716238  0.8795742592036645  0.2972078486022128  1.0000
  C   C23       1.0  0.8708786627112062  0.417464453716633  0.12046458405767885  1.0000
  C   C24       1.0  0.453698339830929  0.7031663992586488  0.5827810827251625  1.0000
  C   C25       1.0  0.014150035279755002  0.2018990033140966  0.39269517073577737  1.0000
  C   C26       1.0  0.8128068316805966  0.19113718001873536  0.7983914224523546  1.0000
  C   C27       1.0  0.6215347467112409  0.6070916792562925  0.8085525777725309  1.0000
  C   C28       1.0  0.9858478933354462  0.798097640387958  0.6073008824430843  1.0000
  C   C29       1.0  0.18719650064155496  0.808863212794371  0.20161213155822827  1.0000
  C   C30       1.0  0.3784592391038117  0.3929059017235231  0.1914449989289793  1.0000
  C   C31       1.0  0.3635451853307785  0.0407922028793308  0.5911645548101987  1.0000
  C   C32       1.0  0.3230412559810389  0.5499889687140325  0.9592571111772799  1.0000
  C   C33       1.0  0.772530120347689  0.4090458248332637  0.44998415917859086  1.0000
  C   C34       1.0  0.6364545628500764  0.9592063153782533  0.408833457081407  1.0000
  C   C35       1.0  0.6769566176441231  0.4500058004324856  0.04074210721854141  1.0000
  C   C36       1.0  0.22747208100785335  0.5909611289241993  0.5500183383365851  1.0000
  C   C37       1.0  0.3902022951710364  0.9872974672668702  0.6656932096993416  1.0000
  C   C38       1.0  0.4030307303740841  0.6781420202164341  0.012587644638550435  1.0000
  C   C39       1.0  0.7242440329558377  0.334267930202536  0.3220129816695874  1.0000
  C   C40       1.0  0.6097988589265952  0.0127038628240044  0.33430851888451235  1.0000
  C   C41       1.0  0.5969720233290801  0.3218536862078522  0.9874132982911803  1.0000
  C   C42       1.0  0.2757585270585636  0.6657362117216366  0.6779893825595806  1.0000
  C   C43       1.0  0.3465843971385354  0.9993049327116379  0.7565348239619283  1.0000
  C   C44       1.0  0.34728300622544594  0.7573354303971057  0.00045513670990968266  1.0000
  C   C45       1.0  0.589328938221108  0.24301456702227137  0.2428091382840236  1.0000
  C   C46       1.0  0.6534163433102051  0.0006973346570049  0.24346558155448855  1.0000
  C   C47       1.0  0.6527216220334183  0.2426640251382395  0.9995453699773479  1.0000
  C   C48       1.0  0.41067409043221664  0.7569905121796623  0.7571921540573571  1.0000
  C   C49       1.0  0.08685868221063227  0.25971217040206795  0.3346708851980722  1.0000
  C   C50       1.0  0.827564441949626  0.0749531655727438  0.7403255856787752  1.0000
  C   C51       1.0  0.7527189755355437  0.6655881218347942  0.9249086391435953  1.0000
  C   C52       1.0  0.9131401836824085  0.7402863478555161  0.6653261052521489  1.0000
  C   C53       1.0  0.17243571988012732  0.925044415407072  0.2596768303272088  1.0000
  C   C54       1.0  0.2472763612062465  0.33441039642278264  0.07508965737324759  1.0000
  S   S1        1.0  0.0987632669163929  0.29435583114435093  0.5636133570130539  1.0000
  S   S2        1.0  0.8046414283466917  0.2698075892066498  0.7061014275289069  1.0000
  S   S3        1.0  0.5356120870025265  0.43593632390518167  0.7295700775987369  1.0000
  S   S4        1.0  0.9012328971231796  0.7056408125577035  0.43638296406825106  1.0000
  S   S5        1.0  0.1953584298142346  0.7301946781619861  0.29390565916347816  1.0000
  S   S6        1.0  0.4643824224414743  0.5640640689079319  0.27042942409190845  1.0000
  N   N1        1.0  0.17845281426406953  0.18771986528830095  0.6975124928784879  1.0000
  N   N2        1.0  0.9908517634440701  0.5101762210989165  0.8124991097681972  1.0000
  N   N3        1.0  0.4807992941966433  0.3021342993143675  0.4895184184632981  1.0000
  N   N4        1.0  0.8215465752579334  0.8122814648025738  0.3024871928226035  1.0000
  N   N5        1.0  0.0091489220146386  0.48982417171419707  0.18750215017998073  1.0000
  N   N6        1.0  0.5191996266864365  0.6978660934987458  0.51048079860211  1.0000
  N   N7        1.0  0.2453569912714642  0.16589441525732698  0.5486262347546003  1.0000
  N   N8        1.0  0.07977739862612049  0.3825424214782061  0.8342624581007172  1.0000
  N   N9        1.0  0.6972218496046168  0.45180912285194796  0.6170068171430714  1.0000
  N   N10       1.0  0.7546418746215833  0.83410410300025  0.45137152595736296  1.0000
  N   N11       1.0  0.9202214672669272  0.617456096779378  0.1657376133964518  1.0000
  N   N12       1.0  0.3027753616928592  0.5481931445166879  0.38299412417823225  1.0000
  O   O1        1.0  0.0373897351229857  0.3141970641472582  0.2837925959984773  1.0000
  O   O2        1.0  0.7234617625466697  0.9696710216221688  0.6853390579218798  1.0000
  O   O3        1.0  0.7538342795826978  0.7158187118055892  0.029901077862241783  1.0000
  O   O4        1.0  0.9626082484822476  0.6858014541103259  0.7162056837955717  1.0000
  O   O5        1.0  0.2765398601898852  0.030331245746474198  0.3146623690359291  1.0000
  O   O6        1.0  0.24616011988124603  0.2841779318964583  0.9700970516449701  1.0000
  O   O7        1.0  0.19246046848343207  0.253467088655249  0.3375116320283098  1.0000
  O   O8        1.0  0.9393191081207347  0.08360423934178128  0.7466569782494973  1.0000
  O   O9        1.0  0.8558316410903971  0.6633217841995246  0.9162928508818808  1.0000
  O   O10       1.0  0.8075392796974301  0.7465314296023351  0.662486379863296  1.0000
  O   O11       1.0  0.06068287327467898  0.9163952161935638  0.25334354516055413  1.0000
  O   O12       1.0  0.1441623997146877  0.3366776713358206  0.08370233086441205  1.0000
