data_image0
_chemical_formula_structural       Cu8H32C24N8Cl8
_chemical_formula_sum              "Cu8 H32 C24 N8 Cl8"
_cell_length_a       3.6855088721112326
_cell_length_b       8.192058102688545
_cell_length_c       28.459272465138014
_cell_angle_alpha    90.00055244402188
_cell_angle_beta     92.04892065149375
_cell_angle_gamma    90.00141375506358

_space_group_name_H-M_alt    "P 1"
_space_group_IT_number       1

loop_
  _space_group_symop_operation_xyz
  'x, y, z'

loop_
  _atom_site_type_symbol
  _atom_site_label
  _atom_site_symmetry_multiplicity
  _atom_site_fract_x
  _atom_site_fract_y
  _atom_site_fract_z
  _atom_site_occupancy
  Cu  Cu1       1.0  0.32502331695285136  0.5973680816567607  0.1321017195078085  1.0000
  Cu  Cu2       1.0  0.32504348068587763  0.9026358171324632  0.6321033786083845  1.0000
  Cu  Cu3       1.0  0.6750071282561051  0.40263203119226176  0.8678985308336067  1.0000
  Cu  Cu4       1.0  0.6749326169699615  0.0973703988617913  0.3678959802563782  1.0000
  Cu  Cu5       1.0  0.007847457959648798  0.821604352067318  0.0719494634193225  1.0000
  Cu  Cu6       1.0  0.007842508981859508  0.6783938230536248  0.5719581516237326  1.0000
  Cu  Cu7       1.0  0.9921666003415907  0.17839576066238294  0.9280493244521183  1.0000
  Cu  Cu8       1.0  0.9921284746868649  0.3216172757680766  0.4280457576057159  1.0000
  H   H1        1.0  0.3062327858286834  0.9855089397304222  0.1556415089568901  1.0000
  H   H2        1.0  0.30622710846249385  0.5144687045843312  0.6556490427607714  1.0000
  H   H3        1.0  0.6937787758144649  0.014478966094969799  0.8443604327697969  1.0000
  H   H4        1.0  0.6937569875890189  0.4855106561414288  0.3443482354778027  1.0000
  H   H5        1.0  0.8756588401213817  0.1438618780741621  0.026250777764033697  1.0000
  H   H6        1.0  0.8756494243087045  0.35615053652323775  0.5262532609732489  1.0000
  H   H7        1.0  0.12436898742996756  0.8561431175619277  0.9737508690689579  1.0000
  H   H8        1.0  0.12429668775842367  0.6438703276004034  0.47374423683270817  1.0000
  H   H9        1.0  0.03310972704420579  0.4308280356334464  0.0474802159567034  1.0000
  H   H10       1.0  0.0331581899956603  0.06918521816116648  0.5474824653054711  1.0000
  H   H11       1.0  0.9668990472265688  0.5691769598800605  0.9525206619352815  1.0000
  H   H12       1.0  0.966817835014467  0.9308295426756529  0.45251583913858445  1.0000
  H   H13       1.0  0.2908658904543627  0.37101707707218873  0.20970575996398114  1.0000
  H   H14       1.0  0.2908775034001038  0.12893762053146668  0.7097175327752154  1.0000
  H   H15       1.0  0.7091480698906166  0.6289537389653573  0.7902916219536493  1.0000
  H   H16       1.0  0.7091017453495637  0.8710270919788383  0.29028816205454433  1.0000
  H   H17       1.0  0.7189983180577073  0.37159528850446577  0.185979437117112  1.0000
  H   H18       1.0  0.7191094304860925  0.12837082089851753  0.6859782008796103  1.0000
  H   H19       1.0  0.2809400610174747  0.6283852927605266  0.8140240074718719  1.0000
  H   H20       1.0  0.28096670655294526  0.87159633334889  0.3140155315872164  1.0000
  H   H21       1.0  0.7350012454027705  0.19445551994789403  0.2561809606831886  1.0000
  H   H22       1.0  0.7350730020389092  0.30554982816241966  0.7561797217777978  1.0000
  H   H23       1.0  0.2650104137037487  0.805543372152641  0.7438223869705141  1.0000
  H   H24       1.0  0.26495147896611826  0.6944551672958638  0.2438127772075873  1.0000
  H   H25       1.0  0.7722544757654292  0.0626735857206171  0.2068177721546789  1.0000
  H   H26       1.0  0.7722714165360783  0.4372938567234497  0.7068244345764967  1.0000
  H   H27       1.0  0.22776762977818518  0.9373094373087979  0.7931796380603373  1.0000
  H   H28       1.0  0.22771013424067374  0.5626720763910741  0.293175294560065  1.0000
  H   H29       1.0  0.3544744057399497  0.08134098693444969  0.23540645365801538  1.0000
  H   H30       1.0  0.3546204163811807  0.4186214355665285  0.73540999913412  1.0000
  H   H31       1.0  0.6454937405924993  0.9186359323952614  0.7645956887062297  1.0000
  H   H32       1.0  0.6454802769575421  0.5813542637148997  0.2645855755724469  1.0000
  C   C1        1.0  0.32209228375820936  0.24659074451433574  0.1448505076942794  1.0000
  C   C2        1.0  0.3220824030090838  0.2534267584808346  0.6448474369445023  1.0000
  C   C3        1.0  0.6779223822350671  0.7534240167048124  0.8551570671419668  1.0000
  C   C4        1.0  0.6778631504098483  0.7465965468883624  0.3551419768771281  1.0000
  C   C5        1.0  0.24249211837511805  0.0865179581073221  0.1319852432131725  1.0000
  C   C6        1.0  0.24249999589576987  0.4134847585377841  0.631997079788519  1.0000
  C   C7        1.0  0.7575247034994773  0.9134833753450449  0.8680142570420273  1.0000
  C   C8        1.0  0.75749273165259  0.586523899027064  0.3680072563271324  1.0000
  C   C9        1.0  0.0083187208627393  0.17170519411455126  0.0600906824278837  1.0000
  C   C10       1.0  0.008359997190922305  0.3282947851650064  0.5601020501777043  1.0000
  C   C11       1.0  0.9916708057921891  0.8282998012264925  0.9399066147012078  1.0000
  C   C12       1.0  0.9916245611954861  0.6717138723464159  0.4399019061807011  1.0000
  C   C13       1.0  0.09246752071742041  0.33149234694110424  0.07196640317862088  1.0000
  C   C14       1.0  0.09249990279930388  0.16849680218250276  0.5719730855356033  1.0000
  C   C15       1.0  0.907557445895783  0.6685041037805843  0.9280331253489608  1.0000
  C   C16       1.0  0.9074708862055585  0.831502089644651  0.4280280118540958  1.0000
  C   C17       1.0  0.4854497099379244  0.29125649065100834  0.1921133701142566  1.0000
  C   C18       1.0  0.4854810342620937  0.2087755114270706  0.6921127798320583  1.0000
  C   C19       1.0  0.5145511627104894  0.7087607118223145  0.8078909942934231  1.0000
  C   C20       1.0  0.5145136558509548  0.7912575598496118  0.307880669936047  1.0000
  C   C21       1.0  0.5931217437580045  0.14919446356908136  0.2242294390525146  1.0000
  C   C22       1.0  0.5932323499864437  0.3508484327284834  0.7242446231865998  1.0000
  C   C23       1.0  0.40685672926067434  0.8508300627706404  0.7757650085772596  1.0000
  C   C24       1.0  0.4068339010052283  0.6491968461512626  0.2757631307979196  1.0000
  N   N1        1.0  0.24853201492701515  0.3711787501328274  0.1141315736354187  1.0000
  N   N2        1.0  0.24856482987133427  0.12881975455401565  0.6141360404172147  1.0000
  N   N3        1.0  0.7514741656823247  0.628820141923782  0.8858710522098007  1.0000
  N   N4        1.0  0.7514166490483232  0.8711840200703022  0.3858626343415139  1.0000
  N   N5        1.0  0.08363459991484487  0.046787595259857484  0.0898985748757966  1.0000
  N   N6        1.0  0.08367770552438707  0.453197191948945  0.5899180218530375  1.0000
  N   N7        1.0  0.9163628284938735  0.9532100758992356  0.9100952357447554  1.0000
  N   N8        1.0  0.9163399421108237  0.5467980382430326  0.41009342863621606  1.0000
  Cl  Cl1       1.0  0.8329966726218385  0.7271008243982633  0.162399108515487  1.0000
  Cl  Cl2       1.0  0.8330071855885205  0.7729038473507612  0.6624010814613115  1.0000
  Cl  Cl3       1.0  0.16702293705230886  0.27289928839406485  0.8376014555976354  1.0000
  Cl  Cl4       1.0  0.16696891216589899  0.22710603072689384  0.3375982774088016  1.0000
  Cl  Cl5       1.0  0.5043765154538847  0.692978444176596  0.042130089171628506  1.0000
  Cl  Cl6       1.0  0.5043806471114037  0.8070036394577044  0.5421310792366043  1.0000
  Cl  Cl7       1.0  0.49563768850023127  0.3070180065071  0.957870807560866  1.0000
  Cl  Cl8       1.0  0.4955846635934407  0.19300257649232572  0.45786929635534074  1.0000
