data_image0
_chemical_formula_structural       U4H96C80N8O24
_chemical_formula_sum              "U4 H96 C80 N8 O24"
_cell_length_a       9.609180047012963
_cell_length_b       14.668225022123
_cell_length_c       19.245841931139264
_cell_angle_alpha    89.9995671704756
_cell_angle_beta     89.9999283775413
_cell_angle_gamma    89.99982575100093

_space_group_name_H-M_alt    "P 1"
_space_group_IT_number       1

loop_
  _space_group_symop_operation_xyz
  'x, y, z'

loop_
  _atom_site_type_symbol
  _atom_site_label
  _atom_site_symmetry_multiplicity
  _atom_site_fract_x
  _atom_site_fract_y
  _atom_site_fract_z
  _atom_site_occupancy
  U   U1        1.0  0.7691183639531542  0.009254090659709401  0.24487080893374713  1.0000
  U   U2        1.0  0.7308832660857121  0.9907467000407802  0.7448720832056777  1.0000
  U   U3        1.0  0.23088292075350839  0.5092550866356759  0.2551283666656871  1.0000
  U   U4        1.0  0.2691155663909938  0.4907404630339796  0.7551325150076236  1.0000
  H   H1        1.0  0.12538226453313678  0.8342334799139977  0.05213088247318608  1.0000
  H   H2        1.0  0.3746198548071361  0.16576406853400982  0.5521285351879328  1.0000
  H   H3        1.0  0.8746206328081667  0.33423709254598327  0.4478695272106491  1.0000
  H   H4        1.0  0.6253804870548123  0.6657630628977883  0.9478680742302498  1.0000
  H   H5        1.0  0.08312449261833879  0.951127039416015  0.046353205048575284  1.0000
  H   H6        1.0  0.41687451922635427  0.04887056591738309  0.5463520285564909  1.0000
  H   H7        1.0  0.9168768211410095  0.45112914751955197  0.45364704675970535  1.0000
  H   H8        1.0  0.5831242842003731  0.548870951031709  0.9536468171092377  1.0000
  H   H9        1.0  0.0769397467788338  0.9386774495135622  0.9253701268325893  1.0000
  H   H10       1.0  0.42305831250602927  0.06132255966055309  0.42536949426126097  1.0000
  H   H11       1.0  0.9230593275251806  0.4386778232091473  0.5746295772086539  1.0000
  H   H12       1.0  0.5769396083567171  0.5613219167417325  0.07462989916653838  1.0000
  H   H13       1.0  0.10366029901189928  0.8203236167212394  0.9289894250213774  1.0000
  H   H14       1.0  0.39634087319235073  0.17967635681681318  0.42898812312616014  1.0000
  H   H15       1.0  0.8963403656573801  0.32032476100462054  0.5710109649535295  1.0000
  H   H16       1.0  0.6036606606640476  0.6796750145822658  0.07100954518085698  1.0000
  H   H17       1.0  0.8610101113848784  0.7878178992086688  0.9306218442091204  1.0000
  H   H18       1.0  0.6389910518295564  0.21218038082103155  0.4306205139332063  1.0000
  H   H19       1.0  0.13899070425294718  0.28781988597884817  0.569380812525793  1.0000
  H   H20       1.0  0.36101137172720127  0.7121815831051207  0.06937696598448888  1.0000
  H   H21       1.0  0.6051931010300108  0.8935346720157256  0.04884257852567229  1.0000
  H   H22       1.0  0.8948058996661244  0.10646327660770538  0.5488416015616764  1.0000
  H   H23       1.0  0.39480639887464963  0.3935364807728305  0.4511585266615086  1.0000
  H   H24       1.0  0.10519367694562479  0.6064619109928203  0.9511574299149284  1.0000
  H   H25       1.0  0.6482490950592775  0.7941124748997765  0.0007992289001421997  1.0000
  H   H26       1.0  0.8517489857088021  0.20588526501993698  0.5007987416769735  1.0000
  H   H27       1.0  0.35174878527060827  0.2941138963529538  0.49920245250407175  1.0000
  H   H28       1.0  0.14824804779100015  0.7058847041180059  0.999200233176644  1.0000
  H   H29       1.0  0.5975919359822796  0.8939256257474  0.9560712716778138  1.0000
  H   H30       1.0  0.902409163272111  0.10607240370046606  0.4560703925861417  1.0000
  H   H31       1.0  0.40240838684163543  0.3939259750463293  0.5439302505069035  1.0000
  H   H32       1.0  0.09759271243746778  0.6060709723977311  0.043928741488663485  1.0000
  H   H33       1.0  0.747622355554796  0.030856519266563992  0.9515319657997945  1.0000
  H   H34       1.0  0.7523839584682789  0.9691415548823201  0.45152877591162605  1.0000
  H   H35       1.0  0.2523796535495535  0.5308560985102061  0.548471141012257  1.0000
  H   H36       1.0  0.24762455632473024  0.46914353119986163  0.048470332303615686  1.0000
  H   H37       1.0  0.9139767637912967  0.03348019685558509  0.9913742788108589  1.0000
  H   H38       1.0  0.5860294501008952  0.9665168032498811  0.49137172715445826  1.0000
  H   H39       1.0  0.08602419244912339  0.5334832266578005  0.5086277736001107  1.0000
  H   H40       1.0  0.4139790768842388  0.4665181588475774  0.008627396274697198  1.0000
  H   H41       1.0  0.7616423756483001  0.0338995167270753  0.043437099581346686  1.0000
  H   H42       1.0  0.7383618419977294  0.96609575813509  0.5434353944998376  1.0000
  H   H43       1.0  0.23835879458366796  0.5339026049226803  0.4565650507325214  1.0000
  H   H44       1.0  0.2616443896562615  0.46609846058571947  0.9565646702184974  1.0000
  H   H45       1.0  0.7795995251622114  0.7470380261832332  0.09341673276981058  1.0000
  H   H46       1.0  0.7204024855307337  0.2529567565675563  0.5934160543937919  1.0000
  H   H47       1.0  0.22040169581602945  0.24704198462815438  0.4065836626743787  1.0000
  H   H48       1.0  0.27959745135402153  0.7529588912699979  0.9065821280488674  1.0000
  H   H49       1.0  0.9603381555687773  0.736652053773902  0.10921284597529275  1.0000
  H   H50       1.0  0.539659652742415  0.263341209957936  0.6092122197848936  1.0000
  H   H51       1.0  0.03966103229571159  0.23665993640238978  0.3907870900587794  1.0000
  H   H52       1.0  0.46033815456974025  0.7633431402697253  0.8907853828817021  1.0000
  H   H53       1.0  0.8960206371073054  0.7206703715528773  0.024053738374291794  1.0000
  H   H54       1.0  0.6039784258903609  0.27932645765077524  0.5240534991527495  1.0000
  H   H55       1.0  0.10397758432383597  0.22067319713227818  0.47594680989158866  1.0000
  H   H56       1.0  0.39602138852377067  0.7793269958076079  0.9759445304652484  1.0000
  H   H57       1.0  0.0886500929029168  0.966226407673055  0.3092977487571104  1.0000
  H   H58       1.0  0.411352420779508  0.03377338085656589  0.8093008199456759  1.0000
  H   H59       1.0  0.9113480287199915  0.4662256618199621  0.19070189595715445  1.0000
  H   H60       1.0  0.5886547781313778  0.5337756622509532  0.6907001915808235  1.0000
  H   H61       1.0  0.3334390197059491  0.026687089141972795  0.3171368931819742  1.0000
  H   H62       1.0  0.16656243360859685  0.9733119404705872  0.8171372692999979  1.0000
  H   H63       1.0  0.6665590620199993  0.5266865655645815  0.18286374016570753  1.0000
  H   H64       1.0  0.8334416831952253  0.4733121087080008  0.6828606752329234  1.0000
  H   H65       1.0  0.3835241556458157  0.1822677826700314  0.2707014615830729  1.0000
  H   H66       1.0  0.11648053638266015  0.8177323858946794  0.7707022509341213  1.0000
  H   H67       1.0  0.6164721628156399  0.6822662198824856  0.2292977504854931  1.0000
  H   H68       1.0  0.8835274250232953  0.31773336067054453  0.7292976344640959  1.0000
  H   H69       1.0  0.1855404173638746  0.27289542753221957  0.21812782653581303  1.0000
  H   H70       1.0  0.3144623254466409  0.7271079856803198  0.7181259004715483  1.0000
  H   H71       1.0  0.814454439506818  0.772892271085034  0.28187241907075117  1.0000
  H   H72       1.0  0.6855429348502965  0.22710883703430798  0.7818750297471551  1.0000
  H   H73       1.0  0.950126115445421  0.20211720880240588  0.21358863165634281  1.0000
  H   H74       1.0  0.5498776745516877  0.7978845716456034  0.7135911362308389  1.0000
  H   H75       1.0  0.0498701108239601  0.7021175754959543  0.2864078674027367  1.0000
  H   H76       1.0  0.45012829769193974  0.29788584714693667  0.7864104229762032  1.0000
  H   H77       1.0  0.5530947935275704  0.8437155597174097  0.3079439006732727  1.0000
  H   H78       1.0  0.9469045966499363  0.15628733695186978  0.8079426025692624  1.0000
  H   H79       1.0  0.4469091004552297  0.3437150436646661  0.19205645406748315  1.0000
  H   H80       1.0  0.053092667213782384  0.6562845357698917  0.6920561401498373  1.0000
  H   H81       1.0  0.3370745215377156  0.7538802182728473  0.282438978669667  1.0000
  H   H82       1.0  0.16292701896815487  0.2461246069523568  0.782438375654358  1.0000
  H   H83       1.0  0.6629308303577162  0.25387970265745  0.21756189672406376  1.0000
  H   H84       1.0  0.8370719089840717  0.7461220386771928  0.7175629639554584  1.0000
  H   H85       1.0  0.18553714878684957  0.8032719756178607  0.18276488517679465  1.0000
  H   H86       1.0  0.31446568289837973  0.19673042228300366  0.6827649938002336  1.0000
  H   H87       1.0  0.8144669330363782  0.3032715403190593  0.3172357039601862  1.0000
  H   H88       1.0  0.6855345151310742  0.6967299013518297  0.8172376712597466  1.0000
  H   H89       1.0  0.25902289841550896  0.9398436458180796  0.11264750287458009  1.0000
  H   H90       1.0  0.24097906881448947  0.060160124213716394  0.6126484487041279  1.0000
  H   H91       1.0  0.7409805491027652  0.43984198473017944  0.3873517751529575  1.0000
  H   H92       1.0  0.7590228041987999  0.5601560395817415  0.8873534490998832  1.0000
  H   H93       1.0  0.48419822456040856  0.016663413737937595  0.14160805141587218  1.0000
  H   H94       1.0  0.015800547872089492  0.9833400711488663  0.6416084631619225  1.0000
  H   H95       1.0  0.515801985064158  0.5166635073330424  0.3583910812447327  1.0000
  H   H96       1.0  0.9841962376637808  0.4833354838881334  0.8583915016386211  1.0000
  C   C1        1.0  0.8060383733406766  0.9007099472374733  0.9976344507460195  1.0000
  C   C2        1.0  0.6939605401209191  0.09928494599273559  0.49763322099131796  1.0000
  C   C3        1.0  0.19395879595283108  0.4007131661140377  0.5023665125191099  1.0000
  C   C4        1.0  0.30604032642955287  0.5992889627941835  0.0023654328129296995  1.0000
  C   C5        1.0  0.9027128213716507  0.8634468454984514  0.05804456088646498  1.0000
  C   C6        1.0  0.597286156204774  0.13654896729100588  0.558042035753459  1.0000
  C   C7        1.0  0.09728681827146349  0.36345070082505526  0.4419567186729977  1.0000
  C   C8        1.0  0.40271223999963  0.6365498267858456  0.9419547429801792  1.0000
  C   C9        1.0  0.05021759760762729  0.8827289644475158  0.03022473482617729  1.0000
  C   C10       1.0  0.4497824954463282  0.11726743619920647  0.530223141466841  1.0000
  C   C11       1.0  0.9497829931505705  0.38273357520141355  0.46977539379304273  1.0000
  C   C12       1.0  0.5502191123258982  0.6172677280395644  0.969774788201789  1.0000
  C   C13       1.0  0.04033840347913299  0.8758469940962071  0.9501975012242239  1.0000
  C   C14       1.0  0.459662715427818  0.12415140713046212  0.45019648175711763  1.0000
  C   C15       1.0  0.9596609626370521  0.3758495845971623  0.5498020473605505  1.0000
  C   C16       1.0  0.540339076312385  0.6241510815589563  0.049801508349574385  1.0000
  C   C17       1.0  0.885676974779038  0.8610366718526238  0.9334851000298624  1.0000
  C   C18       1.0  0.6143252219101497  0.13896226173260828  0.43348317025247224  1.0000
  C   C19       1.0  0.11432350079619619  0.36103805419782026  0.5665160931716426  1.0000
  C   C20       1.0  0.38567754170956897  0.6389634430840373  0.06651421441839739  1.0000
  C   C21       1.0  0.8682882493164992  0.9127054059128382  0.12526726090662516  1.0000
  C   C22       1.0  0.6317084779718839  0.08728974498811938  0.62526551945065  1.0000
  C   C23       1.0  0.13171324288799718  0.4127091728277534  0.37473373316755937  1.0000
  C   C24       1.0  0.36828702499923327  0.587291334919257  0.8747331035488198  1.0000
  C   C25       1.0  0.8375094862024637  0.9009259976866204  0.8655773441017444  1.0000
  C   C26       1.0  0.662489759133514  0.09907564977241633  0.3655750959610059  1.0000
  C   C27       1.0  0.1624897634353601  0.4009266154772532  0.6344246571036363  1.0000
  C   C28       1.0  0.3375100677299017  0.5990748949128032  0.13442251988489318  1.0000
  C   C29       1.0  0.6555138492561027  0.8686354561537614  0.0012915846176894997  1.0000
  C   C30       1.0  0.8444863116177358  0.13136227891646257  0.5012910142264386  1.0000
  C   C31       1.0  0.3444847256225429  0.3686368969230783  0.4987096648777649  1.0000
  C   C32       1.0  0.15551419002003533  0.6313617083957793  0.9987078729418851  1.0000
  C   C33       1.0  0.8083497041471686  0.005635056251442399  0.9959556416441512  1.0000
  C   C34       1.0  0.6916502542010149  0.9943618987473214  0.49595390212181184  1.0000
  C   C35       1.0  0.19165034075231085  0.5056365573276692  0.504046572151992  1.0000
  C   C36       1.0  0.30835398076932546  0.4943635097929828  0.004046099113253398  1.0000
  C   C37       1.0  0.8825541943398247  0.7609422354078815  0.07162961673027007  1.0000
  C   C38       1.0  0.6174447490947657  0.23905344362111688  0.5716270045769247  1.0000
  C   C39       1.0  0.11744488071521177  0.2609461843495636  0.42837225690906405  1.0000
  C   C40       1.0  0.38255525236830573  0.7390551587690553  0.928368660481787  1.0000
  C   C41       1.0  0.1155692511474982  0.0338546324415177  0.29005056990782657  1.0000
  C   C42       1.0  0.3844312295683138  0.9661446638667568  0.7900513716992703  1.0000
  C   C43       1.0  0.8844298379615976  0.5338540900559893  0.2099489827135841  1.0000
  C   C44       1.0  0.6155718798473373  0.4661470445089718  0.7099466143665152  1.0000
  C   C45       1.0  0.2506962016154829  0.0675858930748063  0.294277317202173  1.0000
  C   C46       1.0  0.24930426847648585  0.9324154068673706  0.7942752809400556  1.0000
  C   C47       1.0  0.7493006494836504  0.5675849796428237  0.20572411829772355  1.0000
  C   C48       1.0  0.7506979569320504  0.4324155147853972  0.7057203026515138  1.0000
  C   C49       1.0  0.27851214234961214  0.15427132966146928  0.2680183983786647  1.0000
  C   C50       1.0  0.22149047508310102  0.8457288653397086  0.7680158426256936  1.0000
  C   C51       1.0  0.7214843061408799  0.6542695313311951  0.23198201513345393  1.0000
  C   C52       1.0  0.7785131936058745  0.3457313862861254  0.7319818021408009  1.0000
  C   C53       1.0  0.17012404289172167  0.20438603058295968  0.23856361284663305  1.0000
  C   C54       1.0  0.32987968922883937  0.7956192266610528  0.7385597213575037  1.0000
  C   C55       1.0  0.829870091502414  0.704380999404229  0.26143858859975205  1.0000
  C   C56       1.0  0.670127334214598  0.2956189464283412  0.7614392530190768  1.0000
  C   C57       1.0  0.03791098184236569  0.16559961225803482  0.23638615311469374  1.0000
  C   C58       1.0  0.4620927557549663  0.8344022576830665  0.7363850721969596  1.0000
  C   C59       1.0  0.9620864547053001  0.6655983868387166  0.26361315555528353  1.0000
  C   C60       1.0  0.5379109655451869  0.334402219329128  0.7636136774074058  1.0000
  C   C61       1.0  0.48575607481869537  0.8615728076407121  0.26435991011383914  1.0000
  C   C62       1.0  0.014244470453931497  0.1384315138511099  0.7643589845043974  1.0000
  C   C63       1.0  0.5142477362291088  0.36157036485916183  0.23564138032382684  1.0000
  C   C64       1.0  0.9857539170123811  0.6384277897364684  0.7356419400739822  1.0000
  C   C65       1.0  0.36434834389650916  0.812782498334158  0.2506360858467501  1.0000
  C   C66       1.0  0.13565223586979158  0.18722059479260614  0.7506353215778601  1.0000
  C   C67       1.0  0.6356546530852041  0.31278104214996455  0.249364967766695  1.0000
  C   C68       1.0  0.8643459249872759  0.6872197043006947  0.7493663594138693  1.0000
  C   C69       1.0  0.28081364709753837  0.8402456189917586  0.19505623458887555  1.0000
  C   C70       1.0  0.21918811302243307  0.15975870313088333  0.6950550579524515  1.0000
  C   C71       1.0  0.7191902630017281  0.3402441309495218  0.3049456990434861  1.0000
  C   C72       1.0  0.7808132973996179  0.659756068239183  0.8049473017953584  1.0000
  C   C73       1.0  0.3223935538895261  0.9149848769959588  0.1554282245600049  1.0000
  C   C74       1.0  0.17760310246682556  0.08501779006404318  0.6554301049077578  1.0000
  C   C75       1.0  0.6776058463969931  0.41498512683229183  0.3445696387575054  1.0000
  C   C76       1.0  0.822394492407376  0.5850140004648238  0.8445721684233615  1.0000
  C   C77       1.0  0.44676824803691056  0.9586354895890137  0.17170845914528599  1.0000
  C   C78       1.0  0.05323044874501899  0.0413676989149394  0.6717106698035024  1.0000
  C   C79       1.0  0.5532319901854164  0.4586354656527831  0.3282896707822117  1.0000
  C   C80       1.0  0.9467663081936522  0.5413624584495197  0.8282923761051176  1.0000
  N   N1        1.0  0.010672608440003699  0.08183614293974269  0.2615118314962074  1.0000
  N   N2        1.0  0.48932898466453173  0.9181654795960911  0.7615138853307711  1.0000
  N   N3        1.0  0.9893241764801386  0.5818344289332129  0.238485884267419  1.0000
  N   N4        1.0  0.510674347588747  0.4181671063815742  0.7384874963638024  1.0000
  N   N5        1.0  0.5272100680738417  0.932679721625419  0.2253034626787097  1.0000
  N   N6        1.0  0.9727884891175903  0.06732535221620849  0.7253047424503547  1.0000
  N   N7        1.0  0.47278820936134036  0.43267765860115054  0.27469533727838064  1.0000
  N   N8        1.0  0.027208147262669496  0.5673197436595955  0.7746971138326015  1.0000
  O   O1        1.0  0.833625319131137  0.9212816088139915  0.30296744889248817  1.0000
  O   O2        1.0  0.666353270100373  0.07872474554698529  0.8029776861961151  1.0000
  O   O3        1.0  0.16635636051038458  0.421278875492284  0.1970231036470266  1.0000
  O   O4        1.0  0.3336245812464326  0.5787124740385534  0.6970376134567855  1.0000
  O   O5        1.0  0.7048245019139326  0.09834906124313389  0.18757040148993545  1.0000
  O   O6        1.0  0.7951824754353038  0.9016693372272327  0.6875835831379005  1.0000
  O   O7        1.0  0.29517532837206767  0.5983330031552684  0.3124173463490364  1.0000
  O   O8        1.0  0.20481781145675626  0.4016483474834656  0.8124303644549682  1.0000
  O   O9        1.0  0.7531785395094346  0.892915654871224  0.15576848784697714  1.0000
  O   O10       1.0  0.7468129077448891  0.1070860131522977  0.6557707168526361  1.0000
  O   O11       1.0  0.24681680059670436  0.39291403893714966  0.34422898378974753  1.0000
  O   O12       1.0  0.25317834060464856  0.6070819969348947  0.8442314285816078  1.0000
  O   O13       1.0  0.9464685223069935  0.9736130435995632  0.15189722789923368  1.0000
  O   O14       1.0  0.5535323007415015  0.026381163343558004  0.6518964076444786  1.0000
  O   O15       1.0  0.05353372768324499  0.47361722841063875  0.3481023739891639  1.0000
  O   O16       1.0  0.446465566466081  0.5263814963132346  0.8481025683622005  1.0000
  O   O17       1.0  0.7218045979103775  0.8753021495244723  0.838721263680675  1.0000
  O   O18       1.0  0.7781978369351066  0.12469976236230448  0.3387187950926459  1.0000
  O   O19       1.0  0.27819685208501  0.37530090897853796  0.6612808860360386  1.0000
  O   O20       1.0  0.2218039522599895  0.6246989734881436  0.16127867224457043  1.0000
  O   O21       1.0  0.9089452389427348  0.9621829806467229  0.8343704036147197  1.0000
  O   O22       1.0  0.5910509628011978  0.03782306456982809  0.334365956936736  1.0000
  O   O23       1.0  0.0910526855194007  0.462181388187126  0.6656317621667183  1.0000
  O   O24       1.0  0.4089460265490458  0.5378177696944775  0.16562993555021416  1.0000
