data_image0
_chemical_formula_structural       Zn8H128C176N8O32
_chemical_formula_sum              "Zn8 H128 C176 N8 O32"
_cell_length_a       20.171032617539026
_cell_length_b       20.17103858652197
_cell_length_c       20.56328979718998
_cell_angle_alpha    61.25872532184897
_cell_angle_beta     61.2586771263195
_cell_angle_gamma    65.88234098873708

_space_group_name_H-M_alt    "P 1"
_space_group_IT_number       1

loop_
  _space_group_symop_operation_xyz
  'x, y, z'

loop_
  _atom_site_type_symbol
  _atom_site_label
  _atom_site_symmetry_multiplicity
  _atom_site_fract_x
  _atom_site_fract_y
  _atom_site_fract_z
  _atom_site_occupancy
  Zn  Zn1       1.0  0.8265170741075424  0.35494407641436254  0.014880184052337365  1.0000
  Zn  Zn2       1.0  0.9535641346352793  0.42610431044973734  0.9206508425616701  1.0000
  Zn  Zn3       1.0  0.35494364700593917  0.8265177459183091  0.514879091603767  1.0000
  Zn  Zn4       1.0  0.42610347506159485  0.953564030046472  0.4206501240767651  1.0000
  Zn  Zn5       1.0  0.6450563861741472  0.17348321871303093  0.4851193786506298  1.0000
  Zn  Zn6       1.0  0.5738971346998412  0.04643623169862108  0.5793488920044395  1.0000
  Zn  Zn7       1.0  0.17348353137160905  0.6450556209142135  0.985119100038041  1.0000
  Zn  Zn8       1.0  0.046437055767675914  0.5738958126037659  0.07934893785000695  1.0000
  H   H1        1.0  0.6787122751245749  0.488046440083167  0.8670362747320866  1.0000
  H   H2        1.0  0.847858413684648  0.6200752895846121  0.7686196554714471  1.0000
  H   H3        1.0  0.7824158144268908  0.7263112489436738  0.6735186043822735  1.0000
  H   H4        1.0  0.6926942985642556  0.8190417133172547  0.5919626408740654  1.0000
  H   H5        1.0  0.5946524318814923  0.8829417967717532  0.526727052738501  1.0000
  H   H6        1.0  0.4884943704442792  0.6873173928730479  0.6694044273087058  1.0000
  H   H7        1.0  0.5563044456043258  0.5398032048612224  0.7252105182802778  1.0000
  H   H8        1.0  0.6144814799159378  0.47826571617605396  0.785290661338614  1.0000
  H   H9        1.0  0.6584534795488894  0.5324716691782425  0.6834035571409629  1.0000
  H   H10       1.0  0.4685873549332983  0.6098100650052061  0.8250013263646564  1.0000
  H   H11       1.0  0.510265198057546  0.650295870134073  0.8528192472937447  1.0000
  H   H12       1.0  0.5270108702993783  0.5475815147704425  0.8847570242611197  1.0000
  H   H13       1.0  0.30171085171478046  0.0915155937114491  0.2502162073213299  1.0000
  H   H14       1.0  0.17804383509177776  0.9123159464144099  0.42487689056601846  1.0000
  H   H15       1.0  0.07637219569608081  0.9733629245631689  0.3628185343415495  1.0000
  H   H16       1.0  0.9863276615967681  0.06031276198370252  0.2824541717298671  1.0000
  H   H17       1.0  0.9188167552853415  0.16256117475666088  0.18763790532122473  1.0000
  H   H18       1.0  0.10355177025227393  0.2824000726863218  0.06050323656119617  1.0000
  H   H19       1.0  0.2373903505581936  0.24111017682887592  0.18622380284022463  1.0000
  H   H20       1.0  0.17795487663740772  0.2993864872341021  0.1273277479212283  1.0000
  H   H21       1.0  0.13459008979268114  0.25396993493991726  0.23181751241917672  1.0000
  H   H22       1.0  0.31494644594281607  0.15866647063685238  0.0965997227086106  1.0000
  H   H23       1.0  0.2653101324064124  0.11572720183382058  0.08037722827467768  1.0000
  H   H24       1.0  0.25441247176720344  0.21855477148159957  0.03878490906065927  1.0000
  H   H25       1.0  0.5640739037048308  0.97803210958115  0.4136293236395118  1.0000
  H   H26       1.0  0.6553487638782088  0.06656734346928059  0.3227761319905865  1.0000
  H   H27       1.0  0.508617184389749  0.19256182709211334  0.1808980302980173  1.0000
  H   H28       1.0  0.4261679606954516  0.09540799478487834  0.27624313651724447  1.0000
  H   H29       1.0  0.67061072916475  0.18538852471333198  0.2819108872545968  1.0000
  H   H30       1.0  0.7637424166866966  0.2720483707809792  0.1848410292670619  1.0000
  H   H31       1.0  0.7206106227251327  0.30106449983380656  0.9949777213601506  1.0000
  H   H32       1.0  0.6288463778520211  0.21210635426704982  0.08181947859019793  1.0000
  H   H33       1.0  0.4880459079205083  0.6787131859525176  0.3670362953397585  1.0000
  H   H34       1.0  0.62007616174796  0.8478588556089124  0.2686177871767157  1.0000
  H   H35       1.0  0.7263117435289886  0.7824153933410328  0.17351775688874227  1.0000
  H   H36       1.0  0.8190423211218772  0.6926936264238251  0.09196277764662827  1.0000
  H   H37       1.0  0.8829418027058722  0.5946521466096684  0.026726757224103906  1.0000
  H   H38       1.0  0.6873172310383495  0.4884937458784648  0.16940488319523445  1.0000
  H   H39       1.0  0.5398034883981637  0.5563045771923641  0.2252099845244331  1.0000
  H   H40       1.0  0.47826527574097355  0.6144824580798484  0.28529010477510747  1.0000
  H   H41       1.0  0.5324727248071284  0.6584542148119752  0.18340289331619883  1.0000
  H   H42       1.0  0.6098101557733884  0.4685866620439399  0.32500171223263424  1.0000
  H   H43       1.0  0.650294938448269  0.5102649663396905  0.3528198980243428  1.0000
  H   H44       1.0  0.5475807348006754  0.5270112801307363  0.38475733604863654  1.0000
  H   H45       1.0  0.09151494429911372  0.3017103331099733  0.7502161895067233  1.0000
  H   H46       1.0  0.9123163028743734  0.17804299989141  0.9248777309280669  1.0000
  H   H47       1.0  0.9733630883096256  0.07637152708909406  0.8628193394794365  1.0000
  H   H48       1.0  0.060313631684096015  0.9863272436871638  0.7824540859629251  1.0000
  H   H49       1.0  0.16256161803112695  0.9188156399644852  0.687638299591633  1.0000
  H   H50       1.0  0.2824002361559011  0.10355121256473156  0.5605041993424676  1.0000
  H   H51       1.0  0.2411091331911878  0.23739003900112013  0.6862247833542127  1.0000
  H   H52       1.0  0.2993858526652319  0.17795533858179627  0.6273281367420792  1.0000
  H   H53       1.0  0.25396946676701765  0.1345897519015935  0.73181771405509  1.0000
  H   H54       1.0  0.15866686089869123  0.3149453263160496  0.5966004550285645  1.0000
  H   H55       1.0  0.11572784195885791  0.2653090653194922  0.580376843518323  1.0000
  H   H56       1.0  0.21855531020135296  0.25441228210388545  0.5387850979777438  1.0000
  H   H57       1.0  0.9780318679485873  0.564074192689745  0.9136290370351221  1.0000
  H   H58       1.0  0.0665675321377961  0.6553492234368861  0.8227748825290746  1.0000
  H   H59       1.0  0.19256223345919216  0.5086152946227925  0.6808986783404124  1.0000
  H   H60       1.0  0.09540750874287343  0.4261670201571236  0.7762442483818575  1.0000
  H   H61       1.0  0.1853902352610106  0.6706084954209575  0.78191015959419  1.0000
  H   H62       1.0  0.27204879214858124  0.763740675530947  0.6848411652090078  1.0000
  H   H63       1.0  0.3010640791653785  0.7206120027258651  0.4949765625722832  1.0000
  H   H64       1.0  0.21210674956531517  0.628847548944222  0.5818167735638795  1.0000
  H   H65       1.0  0.5119552831488008  0.3212869377665939  0.632962025533402  1.0000
  H   H66       1.0  0.3799244432869601  0.15214084127593003  0.7313824699393409  1.0000
  H   H67       1.0  0.27369003674640885  0.2175857205195371  0.8264807922965359  1.0000
  H   H68       1.0  0.18095769876712356  0.30730564451420866  0.9080374696609681  1.0000
  H   H69       1.0  0.1170588027732862  0.4053475507189077  0.9732725268662676  1.0000
  H   H70       1.0  0.3126839510221515  0.5115052485638714  0.8305949467219448  1.0000
  H   H71       1.0  0.46019711685887194  0.44369511991434524  0.7747897860787774  1.0000
  H   H72       1.0  0.5217353297381778  0.38551723924872056  0.714709179315271  1.0000
  H   H73       1.0  0.46752788067202306  0.34154548251660083  0.8165963907741797  1.0000
  H   H74       1.0  0.3901898638934895  0.5314126086722268  0.6749990215878015  1.0000
  H   H75       1.0  0.34970450869742814  0.48973557145737356  0.6471805084729566  1.0000
  H   H76       1.0  0.4524198790209299  0.4729895458090142  0.6152418985362331  1.0000
  H   H77       1.0  0.9084844945041299  0.6982890760759091  0.24978426649608548  1.0000
  H   H78       1.0  0.08768371251021992  0.8219557064082325  0.07512327090153545  1.0000
  H   H79       1.0  0.026636354998018398  0.9236284467351865  0.13718036200135234  1.0000
  H   H80       1.0  0.9396863922650669  0.013672591445519808  0.2175463798483363  1.0000
  H   H81       1.0  0.8374383973534663  0.08118306633515723  0.31236270223797646  1.0000
  H   H82       1.0  0.7175992067075044  0.8964487608158082  0.4394964751639987  1.0000
  H   H83       1.0  0.7588908950402599  0.762610360548088  0.3137754144478747  1.0000
  H   H84       1.0  0.7006135901981737  0.8220446347987433  0.37267253776439446  1.0000
  H   H85       1.0  0.7460311382678954  0.8654099449832418  0.26818254306096606  1.0000
  H   H86       1.0  0.8413337398539442  0.6850538061522613  0.4034000700966585  1.0000
  H   H87       1.0  0.8842727630760551  0.7346906315653429  0.41962341359772615  1.0000
  H   H88       1.0  0.7814447137478099  0.7455875530287982  0.4612153678335175  1.0000
  H   H89       1.0  0.021968160727091405  0.4359262073032041  0.08637018774128796  1.0000
  H   H90       1.0  0.9334325005980519  0.34465174075072025  0.1772245607510069  1.0000
  H   H91       1.0  0.8074377952164867  0.49138510537015634  0.3191005464360046  1.0000
  H   H92       1.0  0.9045919347868933  0.5738329538890241  0.22375496658609967  1.0000
  H   H93       1.0  0.8146097850722215  0.32939077596081745  0.21808911468772854  1.0000
  H   H94       1.0  0.72795123224482  0.23625916004547778  0.3151583275765758  1.0000
  H   H95       1.0  0.6989359578527613  0.27938952587825844  0.5050226126986174  1.0000
  H   H96       1.0  0.7878932881191788  0.3711539803255094  0.4181809421685043  1.0000
  H   H97       1.0  0.32128543349038113  0.5119550773177153  0.132963516815984  1.0000
  H   H98       1.0  0.15214043930631505  0.3799236929888679  0.23138225026141876  1.0000
  H   H99       1.0  0.2175853764203026  0.2736888745535709  0.3264802030037258  1.0000
  H   H100      1.0  0.3073045634355226  0.18095839853300077  0.4080377558147744  1.0000
  H   H101      1.0  0.4053464389049708  0.11705944413341737  0.4732723214191524  1.0000
  H   H102      1.0  0.5115050814279344  0.3126837097842738  0.3305947381537422  1.0000
  H   H103      1.0  0.44369556978026753  0.4601955014384203  0.27479048354933167  1.0000
  H   H104      1.0  0.3855173818617176  0.5217343954523417  0.21471022186306485  1.0000
  H   H105      1.0  0.3415453741084349  0.46752731406083825  0.31659688905338623  1.0000
  H   H106      1.0  0.5314126647335797  0.39018920571095345  0.17499940745577897  1.0000
  H   H107      1.0  0.4897354071994898  0.34970382697262886  0.14718052330947262  1.0000
  H   H108      1.0  0.4729897394620581  0.4524187469746579  0.11524199182008496  1.0000
  H   H109      1.0  0.6982885952087944  0.9084849438637479  0.7497846856888014  1.0000
  H   H110      1.0  0.8219561886352695  0.08768388849641441  0.5751240617580817  1.0000
  H   H111      1.0  0.9236284012185012  0.02663564393235874  0.6371812857671769  1.0000
  H   H112      1.0  0.0136723578479945  0.9396865085105903  0.7175470486034071  1.0000
  H   H113      1.0  0.08118326844170551  0.837438660154156  0.8123630470028758  1.0000
  H   H114      1.0  0.89644941203035  0.717598921977874  0.9394961068431513  1.0000
  H   H115      1.0  0.7626096864599391  0.7588913517752476  0.813775372430676  1.0000
  H   H116      1.0  0.8220439896446551  0.7006141890326844  0.8726723807584378  1.0000
  H   H117      1.0  0.8654099427210513  0.7460310290258152  0.7681824173737439  1.0000
  H   H118      1.0  0.6850535825107472  0.8413339291342298  0.9033999885806452  1.0000
  H   H119      1.0  0.7346898956029123  0.8842731974935204  0.9196234560402486  1.0000
  H   H120      1.0  0.7455869713183249  0.7814452021208141  0.9612152789329683  1.0000
  H   H121      1.0  0.43592612046645485  0.02196772577340063  0.5863706556589108  1.0000
  H   H122      1.0  0.3446524179601766  0.9334316507511817  0.6772241844394314  1.0000
  H   H123      1.0  0.4913845785343867  0.8074370288804928  0.8191020774367958  1.0000
  H   H124      1.0  0.5738326488438688  0.9045922667383481  0.7237563660767988  1.0000
  H   H125      1.0  0.32938987181000107  0.8146106079768529  0.7180891513577876  1.0000
  H   H126      1.0  0.23625761604915146  0.72795259340662  0.8151584140130197  1.0000
  H   H127      1.0  0.2793888201382799  0.6989354735467331  0.005022953146323046  1.0000
  H   H128      1.0  0.37115363775468785  0.7878923522544599  0.9181810367265724  1.0000
  C   C1        1.0  0.7001856857773064  0.5403791252554627  0.8241685826900635  1.0000
  C   C2        1.0  0.7666320943143036  0.5491354732059648  0.8226904316047551  1.0000
  C   C3        1.0  0.7959789561674528  0.6157574542665714  0.7682202696307313  1.0000
  C   C4        1.0  0.7596129628866279  0.6745375723158845  0.7154908226877551  1.0000
  C   C5        1.0  0.6487994047795169  0.789509957081492  0.6091512170752367  1.0000
  C   C6        1.0  0.594170262608863  0.8251496911157192  0.5722457815593953  1.0000
  C   C7        1.0  0.5371771735089157  0.7881218845810095  0.5934718883515017  1.0000
  C   C8        1.0  0.5333180810029959  0.7147456420551849  0.6541160186676008  1.0000
  C   C9        1.0  0.5932394022875515  0.6018591370947347  0.7599096605386251  1.0000
  C   C10       1.0  0.6643196294335781  0.5982626149733647  0.7710026420794805  1.0000
  C   C11       1.0  0.6936279297019894  0.6655305368576451  0.7170943556033577  1.0000
  C   C12       1.0  0.6450003508040824  0.7162549721088496  0.6689974736746934  1.0000
  C   C13       1.0  0.5865875414100685  0.6795550965179872  0.6921401188234738  1.0000
  C   C14       1.0  0.6065679140282328  0.5339551914883103  0.7369123536763807  1.0000
  C   C15       1.0  0.5202871136954528  0.6025134942220377  0.8352174492642136  1.0000
  C   C16       1.0  0.8068563627924591  0.4876776574999652  0.879095810037505  1.0000
  C   C17       1.0  0.4808311265822028  0.8264250947301475  0.5510341158023594  1.0000
  C   C18       1.0  0.2522230839354904  0.066816317230014  0.27355403741592  1.0000
  C   C19       1.0  0.24469410691391857  0.9986238470706896  0.3412264359236514  1.0000
  C   C20       1.0  0.18172492498631243  0.96521288676405  0.37250896247040544  1.0000
  C   C21       1.0  0.12537000370736  0.999250883332252  0.33806355813273825  1.0000
  C   C22       1.0  0.011734327790613001  0.1088969502514274  0.23450706120077308  1.0000
  C   C23       1.0  0.9742137678736713  0.1655423188971881  0.18195925731266974  1.0000
  C   C24       1.0  0.007230842250137902  0.22776837211729628  0.1195270260325643  1.0000
  C   C25       1.0  0.07878320363970201  0.23394572790800078  0.10954010282172531  1.0000
  C   C26       1.0  0.19092083644774505  0.17450904399375844  0.16634448303162228  1.0000
  C   C27       1.0  0.19627286782985462  0.10102042303999778  0.2387832155540437  1.0000
  C   C28       1.0  0.1326595499724306  0.06755350141712313  0.2713940565472015  1.0000
  C   C29       1.0  0.08234246252956011  0.1160168411778386  0.22489538919502647  1.0000
  C   C30       1.0  0.11552490897350512  0.17871402758471078  0.1627875614065104  1.0000
  C   C31       1.0  0.1847471158265606  0.24659820638339613  0.1787771433338037  1.0000
  C   C32       1.0  0.26064004640377914  0.16625958119315956  0.09080248278044674  1.0000
  C   C33       1.0  0.30230506370386934  0.961515499051949  0.38210817417203885  1.0000
  C   C34       1.0  0.9652034262130016  0.2880779055285173  0.06442741132746477  1.0000
  C   C35       1.0  0.5552228692661673  0.025902080997553884  0.36064849569025637  1.0000
  C   C36       1.0  0.6048196137912997  0.07612060452710522  0.31033111956116943  1.0000
  C   C37       1.0  0.5896652229332205  0.13739413200015346  0.24370161915319935  1.0000
  C   C38       1.0  0.5242909945396974  0.14505299933443172  0.23069147561545125  1.0000
  C   C39       1.0  0.47755831588122555  0.09222962944059529  0.28360074962654364  1.0000
  C   C40       1.0  0.6417005645770573  0.19132631035247988  0.18963823236428115  1.0000
  C   C41       1.0  0.6801096940214466  0.2091360361249599  0.21877286640755478  1.0000
  C   C42       1.0  0.7309298488661327  0.2578555735235639  0.16584990203809016  1.0000
  C   C43       1.0  0.7073206373082926  0.27386713526845335  0.05892669302642155  1.0000
  C   C44       1.0  0.6558994138438551  0.22515732444016834  0.1078284413143463  1.0000
  C   C45       1.0  0.5403799098131474  0.7001867147227188  0.32416743178686863  1.0000
  C   C46       1.0  0.5491349613655176  0.7666328802936563  0.32268905039936857  1.0000
  C   C47       1.0  0.6157571718766804  0.795979100321844  0.2682190718749594  1.0000
  C   C48       1.0  0.6745369806711069  0.7596136301128238  0.21548949637281117  1.0000
  C   C49       1.0  0.7895103267609472  0.6487996177291606  0.10915153106223845  1.0000
  C   C50       1.0  0.8251495915073266  0.5941685044551689  0.07224624664640791  1.0000
  C   C51       1.0  0.7881218589108202  0.5371765110699657  0.09347276899416107  1.0000
  C   C52       1.0  0.7147465995471904  0.5333180973562719  0.15411565008906777  1.0000
  C   C53       1.0  0.6018590633798412  0.593239477518516  0.2599107732756565  1.0000
  C   C54       1.0  0.5982608976308015  0.6643204172952795  0.2710027564694001  1.0000
  C   C55       1.0  0.6655303515844793  0.6936286505509771  0.2170932821670061  1.0000
  C   C56       1.0  0.7162545944325631  0.6450002473010484  0.16899636407531193  1.0000
  C   C57       1.0  0.6795559947726633  0.5865873788668948  0.1921394020071927  1.0000
  C   C58       1.0  0.5339534404486203  0.606568876584369  0.23691240353394946  1.0000
  C   C59       1.0  0.6025134336133249  0.5202872762214952  0.33521849318324826  1.0000
  C   C60       1.0  0.4876779250561683  0.806858714921546  0.3790943257633257  1.0000
  C   C61       1.0  0.8264235789281927  0.48083033306844675  0.05103524651436696  1.0000
  C   C62       1.0  0.06681676037601392  0.252223228841352  0.7735531847817539  1.0000
  C   C63       1.0  0.9986239815211846  0.2446935042700673  0.8412272655728543  1.0000
  C   C64       1.0  0.9652137031335787  0.18172315352557428  0.872509040336638  1.0000
  C   C65       1.0  0.9992508465043031  0.12536928138102615  0.8380644898619352  1.0000
  C   C66       1.0  0.10889802455044162  0.011733562427586707  0.7345057712561243  1.0000
  C   C67       1.0  0.16554157534092442  0.9742137930500052  0.6819592024271656  1.0000
  C   C68       1.0  0.22776868994758104  0.007231517171795991  0.6195263503946151  1.0000
  C   C69       1.0  0.23394734871148168  0.07878263420001727  0.6095384460518574  1.0000
  C   C70       1.0  0.17450904435254702  0.1909207546747638  0.666343410224215  1.0000
  C   C71       1.0  0.10102058070742  0.19627416639589507  0.7387824137418163  1.0000
  C   C72       1.0  0.06755314487705281  0.13265868315986748  0.7713940224264845  1.0000
  C   C73       1.0  0.11601649535395352  0.08234220529551102  0.7248950338936807  1.0000
  C   C74       1.0  0.17871338325508657  0.11552789673031336  0.6627872678119502  1.0000
  C   C75       1.0  0.2465974954952657  0.1847470789063834  0.6787773343212393  1.0000
  C   C76       1.0  0.16625956436524092  0.26063869682134577  0.5908034972369761  1.0000
  C   C77       1.0  0.9615196091685692  0.302306597523909  0.8821046921316977  1.0000
  C   C78       1.0  0.2880782507043307  0.9652026466931857  0.564426697853655  1.0000
  C   C79       1.0  0.025901471683717103  0.5552231397908828  0.8606491529185333  1.0000
  C   C80       1.0  0.07612162368665312  0.6048200774802128  0.8103304318254415  1.0000
  C   C81       1.0  0.137394458431352  0.5896645158672128  0.743701300986544  1.0000
  C   C82       1.0  0.14505550887525234  0.5242904096260049  0.7306915086296967  1.0000
  C   C83       1.0  0.0922298402891002  0.4775566035673649  0.783602399026165  1.0000
  C   C84       1.0  0.19132598250273253  0.641700880774799  0.6896372534505629  1.0000
  C   C85       1.0  0.2091347947673583  0.6801081748593988  0.7187727026595779  1.0000
  C   C86       1.0  0.25785483372231977  0.7309292343222964  0.6658510214338732  1.0000
  C   C87       1.0  0.27386723750066727  0.707321184015541  0.5589249115508678  1.0000
  C   C88       1.0  0.22515739728236642  0.6558996331824004  0.607827799782669  1.0000
  C   C89       1.0  0.4596212724694766  0.2998122799414774  0.6758319116174717  1.0000
  C   C90       1.0  0.4508668193541184  0.23336823401064782  0.6773085257602389  1.0000
  C   C91       1.0  0.3842434333803553  0.2040205967848578  0.731780698728258  1.0000
  C   C92       1.0  0.325464209953971  0.24038649316255348  0.7845097975260272  1.0000
  C   C93       1.0  0.21048970169262302  0.35120078204191435  0.8908481802270102  1.0000
  C   C94       1.0  0.17485040741448193  0.4058279448439849  0.9277543676813735  1.0000
  C   C95       1.0  0.21187990829560022  0.462822909319172  0.906527070731478  1.0000
  C   C96       1.0  0.2852540016496762  0.46668103555578  0.8458839020104846  1.0000
  C   C97       1.0  0.3981409565091596  0.4067597934195176  0.74008947403194  1.0000
  C   C98       1.0  0.40173914322538457  0.3356816752816343  0.7289971238180115  1.0000
  C   C99       1.0  0.33447083926271404  0.3063714729462674  0.782905525218993  1.0000
  C   C100      1.0  0.2837460155509959  0.35500001466591874  0.8310021654930536  1.0000
  C   C101      1.0  0.32044519223648393  0.4134121806575664  0.8078587003623027  1.0000
  C   C102      1.0  0.4660454215511579  0.3934312352658935  0.7630879931548904  1.0000
  C   C103      1.0  0.3974854238820456  0.47971227099037617  0.6647826580276045  1.0000
  C   C104      1.0  0.5123197668738797  0.19314054525698046  0.6209055647957555  1.0000
  C   C105      1.0  0.1735746891389738  0.519168223780099  0.9489661628972001  1.0000
  C   C106      1.0  0.933185007274652  0.7477761919915124  0.22644568191821413  1.0000
  C   C107      1.0  0.001376614949158698  0.7553050637817263  0.15877352756155017  1.0000
  C   C108      1.0  0.03478688543855671  0.818274286358772  0.12749082927759037  1.0000
  C   C109      1.0  0.000749177666982301  0.874630553973532  0.1619354894364875  1.0000
  C   C110      1.0  0.8911025809287167  0.9882661349009825  0.26549351283425404  1.0000
  C   C111      1.0  0.834457875864942  0.02578730894170893  0.31804142257379897  1.0000
  C   C112      1.0  0.7722313466263203  0.9927700109885933  0.3804737979019634  1.0000
  C   C113      1.0  0.766051496381266  0.9212152202060222  0.3904625361608323  1.0000
  C   C114      1.0  0.8254915523399192  0.8090778135988895  0.33365689639734347  1.0000
  C   C115      1.0  0.8989794473019118  0.8037262329314531  0.2612182705731099  1.0000
  C   C116      1.0  0.9324462853616212  0.8673395971929736  0.22860696959466506  1.0000
  C   C117      1.0  0.8839841058429132  0.9176569276165409  0.27510451820586485  1.0000
  C   C118      1.0  0.8212866368560299  0.8844713744295872  0.33721249298280753  1.0000
  C   C119      1.0  0.7534025201114432  0.8152516276151333  0.3212231809955312  1.0000
  C   C120      1.0  0.8337404555237529  0.7393605741166953  0.40919675007062034  1.0000
  C   C121      1.0  0.03848332899605111  0.6976936754244322  0.11789370767234426  1.0000
  C   C122      1.0  0.7119217644581468  0.03479605938458973  0.4355747904887933  1.0000
  C   C123      1.0  0.974098560830015  0.44477782417484957  0.13935077687438718  1.0000
  C   C124      1.0  0.9238789862969058  0.3951801844867475  0.18966809774292395  1.0000
  C   C125      1.0  0.8626044037905419  0.41033559620491633  0.2562986091894499  1.0000
  C   C126      1.0  0.8549445150739106  0.47570942550667894  0.2693089571815646  1.0000
  C   C127      1.0  0.9077707688059818  0.5224436575121274  0.21639807659354895  1.0000
  C   C128      1.0  0.8086728927881313  0.35830092476876974  0.3103613661850772  1.0000
  C   C129      1.0  0.7908629055051437  0.3198922139303023  0.28122713839399427  1.0000
  C   C130      1.0  0.7421434514739859  0.2690715801923389  0.3341493159409978  1.0000
  C   C131      1.0  0.7261328044661114  0.29268090967071453  0.44107253617234216  1.0000
  C   C132      1.0  0.7748414735040897  0.34410160772277015  0.3921715743749842  1.0000
  C   C133      1.0  0.299810275075977  0.45962224225058185  0.17583258946564229  1.0000
  C   C134      1.0  0.23336678370402106  0.4508668952010454  0.17731132561158341  1.0000
  C   C135      1.0  0.20401933264478342  0.38424392399898016  0.23178125927348248  1.0000
  C   C136      1.0  0.24038649237940038  0.3254640938704868  0.28451002081687443  1.0000
  C   C137      1.0  0.35120061961388427  0.21048987849493275  0.390848275710347  1.0000
  C   C138      1.0  0.40582859939090815  0.17485042073454335  0.42775461512944446  1.0000
  C   C139      1.0  0.46282228220135135  0.21187978204909544  0.40652798212745006  1.0000
  C   C140      1.0  0.46668076814992093  0.28525277654550507  0.3458851820487538  1.0000
  C   C141      1.0  0.40676004079796974  0.39814083650767884  0.24009052745500267  1.0000
  C   C142      1.0  0.3356792449688087  0.40173918968272904  0.22899792360751545  1.0000
  C   C143      1.0  0.3063691976050933  0.3344711185692191  0.2829061311527569  1.0000
  C   C144      1.0  0.3549990877770385  0.2837444368551658  0.3310034688409472  1.0000
  C   C145      1.0  0.41341190167545966  0.32044487708441954  0.30786006917015374  1.0000
  C   C146      1.0  0.3934309430228994  0.46604435527982707  0.2630897705601497  1.0000
  C   C147      1.0  0.4797129066377794  0.3974857771597368  0.16478182501770539  1.0000
  C   C148      1.0  0.19313899511941202  0.5123210257275872  0.12090788388494643  1.0000
  C   C149      1.0  0.5191665691858917  0.173574729421162  0.4489664797732331  1.0000
  C   C150      1.0  0.7477763629880914  0.933184220345183  0.7264468555942186  1.0000
  C   C151      1.0  0.7553059298820983  0.0013776813115669731  0.6587732258600951  1.0000
  C   C152      1.0  0.8182750944584498  0.034786383730249816  0.6274922578628691  1.0000
  C   C153      1.0  0.8746306060540762  0.0007493784128413886  0.6619354579484664  1.0000
  C   C154      1.0  0.9882656916541422  0.8911023202428653  0.7654941591325014  1.0000
  C   C155      1.0  0.025785679272019003  0.8344582188998758  0.8180411491846229  1.0000
  C   C156      1.0  0.9927691816990248  0.7722314630153948  0.880473439778697  1.0000
  C   C157      1.0  0.9212168029581991  0.7660518493367334  0.8904619215390637  1.0000
  C   C158      1.0  0.8090780248856719  0.825491067190896  0.833657373195734  1.0000
  C   C159      1.0  0.8037259896655159  0.8989791241718734  0.7612179356568095  1.0000
  C   C160      1.0  0.8673398973953824  0.9324470366018074  0.7286058634372594  1.0000
  C   C161      1.0  0.9176587274291637  0.8839832814319311  0.7751053642423215  1.0000
  C   C162      1.0  0.8844716334097742  0.821287202117219  0.8372124290283125  1.0000
  C   C163      1.0  0.8152523272589606  0.7534017672190175  0.821223044659824  1.0000
  C   C164      1.0  0.739359982271907  0.833740818799789  0.9091967419959632  1.0000
  C   C165      1.0  0.6976926140466163  0.03848206654579658  0.6178954394915975  1.0000
  C   C166      1.0  0.034797170035226116  0.7119206623014024  0.9355738683197713  1.0000
  C   C167      1.0  0.4447771549051114  0.9740977543570037  0.6393514836081663  1.0000
  C   C168      1.0  0.39518098740556706  0.9238785283849467  0.689668432538383  1.0000
  C   C169      1.0  0.41033595034059545  0.86260373338726  0.7562992332951668  1.0000
  C   C170      1.0  0.4757101791783569  0.8549448664967234  0.7693084038072368  1.0000
  C   C171      1.0  0.5224428661792829  0.9077693650017337  0.7163990802906427  1.0000
  C   C172      1.0  0.3583000359534552  0.8086728218939641  0.8103627792737881  1.0000
  C   C173      1.0  0.31989090673118176  0.790863096343358  0.7812276587176756  1.0000
  C   C174      1.0  0.2690701798095533  0.7421448264693851  0.8341493227383266  1.0000
  C   C175      1.0  0.2926805535388938  0.7261329882287908  0.9410721143595709  1.0000
  C   C176      1.0  0.3441011828486111  0.7748412438334925  0.8921718653072118  1.0000
  N   N1        1.0  0.4928958333377056  0.033670467574800994  0.3473226878293047  1.0000
  N   N2        1.0  0.7444629630115288  0.2896232634422303  0.08753307342718847  1.0000
  N   N3        1.0  0.033667762816314506  0.49289477864736136  0.847325422930524  1.0000
  N   N4        1.0  0.2896235174079109  0.7444623081494868  0.5875308203451013  1.0000
  N   N5        1.0  0.9663316676444753  0.5071035019273467  0.15267508257778659  1.0000
  N   N6        1.0  0.7103759394129483  0.2555393595899674  0.41246661756965614  1.0000
  N   N7        1.0  0.5071047759794923  0.9663297937265581  0.6526773012775776  1.0000
  N   N8        1.0  0.2555376415791529  0.7103764329988708  0.9124681567145457  1.0000
  O   O1        1.0  0.7764855679889139  0.4298516461879061  0.9306327206446382  1.0000
  O   O2        1.0  0.8686986811294591  0.49799713376171434  0.87179560286404  1.0000
  O   O3        1.0  0.48017222693803774  0.8967067417900269  0.5039239182554597  1.0000
  O   O4        1.0  0.4376325651246447  0.7857627521301467  0.5651286493531344  1.0000
  O   O5        1.0  0.3585343669498471  0.993237136467712  0.353323098130133  1.0000
  O   O6        1.0  0.2902374676401109  0.900789469930672  0.44395815775985875  1.0000
  O   O7        1.0  0.0038332036273445013  0.33270413515580094  0.9991239909339172  1.0000
  O   O8        1.0  0.8932555170750335  0.2908802809450534  0.0877231197331554  1.0000
  O   O9        1.0  0.4298517948585855  0.7764852271637467  0.43063159691181585  1.0000
  O   O10       1.0  0.49799636084269155  0.8686979605397126  0.37179558575154925  1.0000
  O   O11       1.0  0.8967096717454198  0.4801714078459298  0.003920999942451252  1.0000
  O   O12       1.0  0.7857619326693454  0.43763233311297983  0.06512870024000948  1.0000
  O   O13       1.0  0.9932377724428321  0.3585332563994897  0.8533210477940399  1.0000
  O   O14       1.0  0.9007914617073924  0.290236533403771  0.9439568513531142  1.0000
  O   O15       1.0  0.3327032373490227  0.0038333326117622572  0.49912342793952286  1.0000
  O   O16       1.0  0.2908809604139861  0.8932560965750937  0.5877201275090939  1.0000
  O   O17       1.0  0.570148264459448  0.22351912441047264  0.5693642922618662  1.0000
  O   O18       1.0  0.5020060086387944  0.13130414346230876  0.628203191745854  1.0000
  O   O19       1.0  0.10329268193963513  0.5198284398212111  0.996075930514614  1.0000
  O   O20       1.0  0.21423926201589447  0.5623683543570478  0.9348708121624866  1.0000
  O   O21       1.0  0.006763990925541902  0.6414656000168578  0.1466780869150952  1.0000
  O   O22       1.0  0.0992097334220858  0.7097641545099975  0.056041688023711296  1.0000
  O   O23       1.0  0.6672979573362173  0.9961673548582655  0.5008760844629804  1.0000
  O   O24       1.0  0.7091196534076191  0.10674472936465662  0.41227910707577553  1.0000
  O   O25       1.0  0.22351388727711452  0.570150019998465  0.06936812285999139  1.0000
  O   O26       1.0  0.13130134665775733  0.5020032653437598  0.12820556796372526  1.0000
  O   O27       1.0  0.5198283916100906  0.10329464900998182  0.4960740752945584  1.0000
  O   O28       1.0  0.5623657329185151  0.21423975563406125  0.43487088399422186  1.0000
  O   O29       1.0  0.6414668358557237  0.00676467939162253  0.6466768512797003  1.0000
  O   O30       1.0  0.7097631412328483  0.09921079092695352  0.5560428043727014  1.0000
  O   O31       1.0  0.9961680000667034  0.6672976815910163  0.000874012424560165  1.0000
  O   O32       1.0  0.10674448501846712  0.7091167316612897  0.9122796591496466  1.0000
