data_image0
_chemical_formula_structural       Zn4H38C45N17Cl
_chemical_formula_sum              "Zn4 H38 C45 N17 Cl1"
_cell_length_a       14.957293209870647
_cell_length_b       14.919385410346743
_cell_length_c       14.969326583078967
_cell_angle_alpha    111.38229715853397
_cell_angle_beta     105.05274227765156
_cell_angle_gamma    111.66519089721045

_space_group_name_H-M_alt    "P 1"
_space_group_IT_number       1

loop_
  _space_group_symop_operation_xyz
  'x, y, z'

loop_
  _atom_site_type_symbol
  _atom_site_label
  _atom_site_symmetry_multiplicity
  _atom_site_fract_x
  _atom_site_fract_y
  _atom_site_fract_z
  _atom_site_occupancy
  Zn  Zn1       1.0  0.36175146188892876  0.8646225624421787  0.0014868440535096548  1.0000
  Zn  Zn2       1.0  0.6363342710736218  0.1442233428931487  0.9987839940230856  1.0000
  Zn  Zn3       1.0  0.49902435689477886  0.13807581580172715  0.13612875052344012  1.0000
  Zn  Zn4       1.0  0.5031382077293288  0.8712706802406486  0.8678452296071414  1.0000
  H   H1        1.0  0.14707898516894607  0.82064829657093  0.8206675164705929  1.0000
  H   H2        1.0  0.8572808023942784  0.1969553242704833  0.1692018277688022  1.0000
  H   H3        1.0  0.46218982519438623  0.18266280346230707  0.3577648630236683  1.0000
  H   H4        1.0  0.6739928193170927  0.8257918721203766  0.7778915243398005  1.0000
  H   H5        1.0  0.8486711304287766  0.18911557813240149  0.9437769379597825  1.0000
  H   H6        1.0  0.2712943509257286  0.8193241145593859  0.1738443339904094  1.0000
  H   H7        1.0  0.686675679396224  0.8448917452197761  0.00627822134967469  1.0000
  H   H8        1.0  0.6772604792947734  0.19623537370927122  0.35407153342632824  1.0000
  H   H9        1.0  0.030882160285543248  0.5844766556435986  0.5917232640247649  1.0000
  H   H10       1.0  0.8621478176861571  0.428406829671296  0.45856380277750475  1.0000
  H   H11       1.0  0.4927047089640766  0.18560690844374503  0.8315257577962356  1.0000
  H   H12       1.0  0.9130687509514316  0.4340857144804887  0.3660427522345273  1.0000
  H   H13       1.0  0.18080032649804428  0.456375762329543  0.49241824887651126  1.0000
  H   H14       1.0  0.0242005129698697  0.3365376784980539  0.33620476117885534  1.0000
  H   H15       1.0  0.054391529780438895  0.3791882105784338  0.6639724769557347  1.0000
  H   H16       1.0  0.9830300184109148  0.44953589918152637  0.6552284279556276  1.0000
  H   H17       1.0  0.8403162143006712  0.275392110169818  0.5083802815870088  1.0000
  H   H18       1.0  0.9245567805086807  0.2197354224290251  0.4931382826061112  1.0000
  H   H19       1.0  0.005697490561914284  0.22935649230842606  0.3676898824936927  1.0000
  H   H20       1.0  0.23537797653569476  0.8324472982227816  0.32991767120638843  1.0000
  H   H21       1.0  0.5346103502192108  0.3979461599902122  0.22083057053227154  1.0000
  H   H22       1.0  0.3984731474344797  0.08660553850045  0.473617101533172  1.0000
  H   H23       1.0  0.26208105159951606  0.8297536870554366  0.4934057065408767  1.0000
  H   H24       1.0  0.3711699012362219  0.08721890252205358  0.6130937349339761  1.0000
  H   H25       1.0  0.7761347007046027  0.6083708025566352  0.11569118264961994  1.0000
  H   H26       1.0  0.5981293280012068  0.579178285813434  0.1882654366502693  1.0000
  H   H27       1.0  0.7512625198360467  0.7455883564121067  0.08427363519308542  1.0000
  H   H28       1.0  0.6222899691291914  0.7442025299725684  0.2142257963830545  1.0000
  H   H29       1.0  0.9925218128729224  0.1736438480911173  0.8915337500778333  1.0000
  H   H30       1.0  0.8819820368544313  0.9199174304988345  0.806191261429099  1.0000
  H   H31       1.0  0.15754776546416596  0.17492394604835232  0.9184664379746083  1.0000
  H   H32       1.0  0.33108177537475575  0.6221174234177553  0.6449528081602907  1.0000
  H   H33       1.0  0.024209132621770654  0.9169915785159546  0.7991412295824531  1.0000
  H   H34       1.0  0.729716149138781  0.4098124090774319  0.051875504701236384  1.0000
  H   H35       1.0  0.14106337316167125  0.611916039220432  0.81899910681976  1.0000
  H   H36       1.0  0.31753489026517906  0.8211389172441415  0.6584661985461436  1.0000
  H   H37       1.0  0.3321550775117715  0.18512279510795798  0.00248971349084581  1.0000
  H   H38       1.0  0.5024519466046797  0.8424971989491254  0.18745069627948396  1.0000
  C   C1        1.0  0.2073134574087874  0.9095819199046176  0.8736527783661429  1.0000
  C   C2        1.0  0.3813872670045343  0.002405977714346398  0.7016662648489743  1.0000
  C   C3        1.0  0.6431956264669693  0.4541135341756473  0.14845529554023074  1.0000
  C   C4        1.0  0.19514105603474258  0.5723319948309822  0.6895607284090488  1.0000
  C   C5        1.0  0.5389770245055275  0.8496559806288034  0.13454108286859426  1.0000
  C   C6        1.0  0.7979330235306322  0.1880563922434249  0.19961226367767196  1.0000
  C   C7        1.0  0.4184285628676249  0.09362659183673117  0.2978918498030936  1.0000
  C   C8        1.0  0.7023337971747521  0.9149188434222992  0.8219222701936957  1.0000
  C   C9        1.0  0.7912983906365625  0.1000192726799015  0.9057185259841776  1.0000
  C   C10       1.0  0.32015936795303185  0.9085166166623748  0.2042042728296636  1.0000
  C   C11       1.0  0.6331989088891774  0.8506615012559138  0.04230351160907022  1.0000
  C   C12       1.0  0.45879981398831415  0.09690655240122933  0.804665369147223  1.0000
  C   C13       1.0  0.7062637307686754  0.18774290982915415  0.2937488115355292  1.0000
  C   C14       1.0  0.6190474415914905  0.8254956295632283  0.12169642381002187  1.0000
  C   C15       1.0  0.811878143312498  0.22437857093493113  0.3055463452608366  1.0000
  C   C16       1.0  0.356898453049233  0.0013672536471886667  0.3053271413106843  1.0000
  C   C17       1.0  0.7999715616973403  0.006990181670516894  0.8493834440961764  1.0000
  C   C18       1.0  0.03728457384905691  0.5215157151312794  0.5312937142685783  1.0000
  C   C19       1.0  0.9264608668685524  0.42532250563793644  0.4372144384381616  1.0000
  C   C20       1.0  0.12011534017099022  0.40116539746821894  0.506044797953912  1.0000
  C   C21       1.0  0.01232021033716531  0.40034514515365766  0.610448202565152  1.0000
  C   C22       1.0  0.0955396791772856  0.47615744215310934  0.5878808890893764  1.0000
  C   C23       1.0  0.5796536600940954  0.3831069215827653  0.1763524725034387  1.0000
  C   C24       1.0  0.9153102690584521  0.3094749279253151  0.40853082625498893  1.0000
  C   C25       1.0  0.015529876881359471  0.31300564677039944  0.39630851529674527  1.0000
  C   C26       1.0  0.9170042703079773  0.29327414767890747  0.5047741113308106  1.0000
  C   C27       1.0  0.2861424766885321  0.9143435186599191  0.4046457624655915  1.0000
  C   C28       1.0  0.3462871738790767  0.004494116595949941  0.3993509243557725  1.0000
  C   C29       1.0  0.293026880451457  0.9130138799788342  0.50228319374218  1.0000
  C   C30       1.0  0.34429715606998473  0.003833173605528437  0.6032679925655132  1.0000
  C   C31       1.0  0.72041136962644  0.629150913313886  0.14061859696002438  1.0000
  C   C32       1.0  0.6547149512400808  0.559837843915858  0.16389853645077324  1.0000
  C   C33       1.0  0.713833402900036  0.7199690030051612  0.1312926849396945  1.0000
  C   C34       1.0  0.2990711094003445  0.6351659336072188  0.7028198578414759  1.0000
  C   C35       1.0  0.6558027644972596  0.7652076128860867  0.1629358693188507  1.0000
  C   C36       1.0  0.9855632467151737  0.09146975724299014  0.8635438780954275  1.0000
  C   C37       1.0  0.8901492021325197  0.0026214258532136596  0.8347079932342468  1.0000
  C   C38       1.0  0.08467601357663301  0.09161933705674818  0.8744507794795879  1.0000
  C   C39       1.0  0.09683149811890265  0.0009321984685897511  0.8470686620636984  1.0000
  C   C40       1.0  0.6800642956506805  0.39001492703622626  0.09129375050525833  1.0000
  C   C41       1.0  0.2022788360740222  0.6303468104024432  0.7913254742128544  1.0000
  C   C42       1.0  0.369643406566034  0.9108291866551992  0.7157265558694872  1.0000
  C   C43       1.0  0.3013919186437732  0.09558446605537795  0.9662157484690256  1.0000
  C   C44       1.0  0.19688483903983206  0.003387467216000929  0.8878256630989015  1.0000
  C   C45       1.0  0.16856309918834708  0.34951729693028  0.5518071928330528  1.0000
  N   N1        1.0  0.3084304589633575  0.9439358938382371  0.939876550801813  1.0000
  N   N2        1.0  0.6920942757619387  0.13559349910217827  0.13088865526771085  1.0000
  N   N3        1.0  0.41808460720964996  0.05870754349057702  0.2011125366707489  1.0000
  N   N4        1.0  0.6415236983634074  0.950148091013176  0.8587280182803597  1.0000
  N   N5        1.0  0.6971981185159706  0.065603665373331  0.9112760821213541  1.0000
  N   N6        1.0  0.3569550327777619  0.9432247255434804  0.14298919011751818  1.0000
  N   N7        1.0  0.564880244998399  0.8835224798469951  0.009789516526602433  1.0000
  N   N8        1.0  0.6358044171277655  0.13557330249867758  0.18885432891910645  1.0000
  N   N9        1.0  0.4920980605028049  0.06349231129609477  0.8724935444588623  1.0000
  N   N10       1.0  0.5793567557632713  0.28602967368659193  0.1395586310386961  1.0000
  N   N11       1.0  0.36283160395371533  0.7234999363239395  0.8043009997345578  1.0000
  N   N12       1.0  0.641622109147342  0.29038563627811714  0.086076945396073  1.0000
  N   N13       1.0  0.30257434371951325  0.7207389013285592  0.8595822621479456  1.0000
  N   N14       1.0  0.43687483660438187  0.9491416810640985  0.8176730057399126  1.0000
  N   N15       1.0  0.3660520227826183  0.0581991410263072  0.9965976900724415  1.0000
  N   N16       1.0  0.5066662276139908  0.8827748821122868  0.06610690444930609  1.0000
  N   N17       1.0  0.20685768215711425  0.3078706112884575  0.5883304601128643  1.0000
  Cl  Cl1       1.0  0.11864415574957121  0.6007467837800037  0.48542195173536135  1.0000
