data_image0
_chemical_formula_structural       Mg2H24C32N20O8
_chemical_formula_sum              "Mg2 H24 C32 N20 O8"
_cell_length_a       8.543381943977998
_cell_length_b       9.75389100079961
_cell_length_c       12.11440136574305
_cell_angle_alpha    112.15996629194592
_cell_angle_beta     110.62989604201239
_cell_angle_gamma    89.99107857196083

_space_group_name_H-M_alt    "P 1"
_space_group_IT_number       1

loop_
  _space_group_symop_operation_xyz
  'x, y, z'

loop_
  _atom_site_type_symbol
  _atom_site_label
  _atom_site_symmetry_multiplicity
  _atom_site_fract_x
  _atom_site_fract_y
  _atom_site_fract_z
  _atom_site_occupancy
  Mg  Mg1       1.0  0.5466127008960413  0.2499515572382336  3.8934901759509814e-05  1.0000
  Mg  Mg2       1.0  0.45338639288063104  0.7500496633526339  0.9999615823628075  1.0000
  H   H1        1.0  0.29079787519942357  0.2644113322959639  0.16120829051116906  1.0000
  H   H2        1.0  0.1299025237060363  0.2356097010209268  0.8388683407444262  1.0000
  H   H3        1.0  0.7092012160792649  0.7355898936534118  0.8387930532113616  1.0000
  H   H4        1.0  0.8701003256017046  0.7643915197745557  0.16113229103775234  1.0000
  H   H5        1.0  0.0912900400181087  0.152159042021708  0.0506225865040051  1.0000
  H   H6        1.0  0.04100064062517818  0.3479362490739462  0.9495372978571837  1.0000
  H   H7        1.0  0.9087078027475426  0.847842176714785  0.949377617102037  1.0000
  H   H8        1.0  0.9589998984329139  0.6520660882146528  0.050463090507640945  1.0000
  H   H9        1.0  0.552836990153743  0.25705056376855134  0.5681110653265192  1.0000
  H   H10       1.0  0.984543032728098  0.24259644330233945  0.431870460274041  1.0000
  H   H11       1.0  0.44716403032777646  0.7429472999254756  0.4318889275560238  1.0000
  H   H12       1.0  0.015455495723315874  0.7574013952489054  0.5681255994596199  1.0000
  H   H13       1.0  0.6507680039473344  0.3151648160323858  0.8032987403585137  1.0000
  H   H14       1.0  0.8472472065216151  0.1842942215016734  0.19664608516351478  1.0000
  H   H15       1.0  0.34923571282662635  0.6848341662137473  0.19670143728281178  1.0000
  H   H16       1.0  0.15274939022898337  0.8157069846634357  0.8033521518680827  1.0000
  H   H17       1.0  0.24656173311663568  0.0298299528991777  0.7469083192752067  1.0000
  H   H18       1.0  0.49961485947595446  0.4699957904011143  0.25316543576823847  1.0000
  H   H19       1.0  0.7534396734076692  0.9701701458400719  0.253091614948758  1.0000
  H   H20       1.0  0.5003829807917057  0.530005433693887  0.7468355942957671  1.0000
  H   H21       1.0  0.1292711567061886  0.9592701036138821  0.5086238408973073  1.0000
  H   H22       1.0  0.6205413579021624  0.5406467687725325  0.4914702227941489  1.0000
  H   H23       1.0  0.8707288045367108  0.0407288784276432  0.4913762222264069  1.0000
  H   H24       1.0  0.37946148640960314  0.4593544627399667  0.5085320619039564  1.0000
  C   C1        1.0  0.30145005172101236  0.039688141752691294  0.03087762982803347  1.0000
  C   C2        1.0  0.27078409933022124  0.4603474839336101  0.969107734901918  1.0000
  C   C3        1.0  0.6985517258581737  0.9603142241828238  0.9691272044851188  1.0000
  C   C4        1.0  0.7292156726382615  0.5396503725475339  0.030891117864143638  1.0000
  C   C5        1.0  0.21961211125085353  0.15141357610660577  0.11432599835192994  1.0000
  C   C6        1.0  0.10556463178640028  0.3486255030737482  0.8857344106860694  1.0000
  C   C7        1.0  0.7803846622842271  0.8485887824114187  0.8856775813271226  1.0000
  C   C8        1.0  0.8944369690082964  0.6513757105088515  0.1142650809796207  1.0000
  C   C9        1.0  0.2563711755445297  0.08268118503828958  0.3840418707970271  1.0000
  C   C10       1.0  0.872224385259365  0.4171207324217079  0.6159770011233192  1.0000
  C   C11       1.0  0.7436300342114065  0.9173178042161111  0.6159593324431681  1.0000
  C   C12       1.0  0.12777683199053053  0.5828782407571679  0.38402172274299307  1.0000
  C   C13       1.0  0.32955761217531426  0.1062690278615221  0.519469623122184  1.0000
  C   C14       1.0  0.809926320198961  0.39345194868222677  0.48054585406632794  1.0000
  C   C15       1.0  0.6704448535876182  0.8937299525302367  0.4805302408606096  1.0000
  C   C16       1.0  0.19007239253089372  0.6065470261464085  0.5194530689409047  1.0000
  C   C17       1.0  0.481055266651907  0.2043008383803198  0.603905821997756  1.0000
  C   C18       1.0  0.8770046074611457  0.2953528993651488  0.396083658671472  1.0000
  C   C19       1.0  0.5189484501220462  0.7956981438658133  0.3960943556435693  1.0000
  C   C20       1.0  0.12299430703305347  0.7046471742313187  0.6039123424036035  1.0000
  C   C21       1.0  0.5358180893973026  0.23690458132736578  0.7346482944120182  1.0000
  C   C22       1.0  0.800994042884902  0.2626458925083668  0.2653224472505613  1.0000
  C   C23       1.0  0.46418543560424996  0.7630932807169017  0.26535149932961116  1.0000
  C   C24       1.0  0.1990009193098672  0.7373530713986441  0.7346747083231334  1.0000
  C   C25       1.0  0.30985803275984836  0.07810523706819342  0.7031484599963491  1.0000
  C   C26       1.0  0.6066950338989087  0.4216803164053715  0.2969034525861289  1.0000
  C   C27       1.0  0.6901444330030841  0.9218937433235649  0.29685140398645143  1.0000
  C   C28       1.0  0.3933040573797796  0.5783209095440043  0.7030978911364016  1.0000
  C   C29       1.0  0.24526721522100559  0.03886463607869929  0.5708535397079331  1.0000
  C   C30       1.0  0.674324226024353  0.46097088423629634  0.4292143606643818  1.0000
  C   C31       1.0  0.754733129566695  0.9611365863665496  0.429147291215159  1.0000
  C   C32       1.0  0.32567592699094655  0.5390292180070873  0.5707860863590212  1.0000
  N   N1        1.0  0.20483740952134605  0.10912423130451998  0.21301544041580198  1.0000
  N   N2        1.0  0.9920373467552677  0.39095901825167084  0.787080236830782  1.0000
  N   N3        1.0  0.7951606200207305  0.8908781183508552  0.7869868000058557  1.0000
  N   N4        1.0  0.00796675855946918  0.6090421936811694  0.21291905569400169  1.0000
  N   N5        1.0  0.32209866047489294  0.15470976228296957  0.33122789776076894  1.0000
  N   N6        1.0  0.9909073271267842  0.3451853437357997  0.6687909754031907  1.0000
  N   N7        1.0  0.6779000472589869  0.8452892232626823  0.6687726781623766  1.0000
  N   N8        1.0  0.009094084393502984  0.6548147442864334  0.3312073059048543  1.0000
  N   N9        1.0  0.10478215609772684  0.9958803392205481  0.298403880968756  1.0000
  N   N10       1.0  0.8063402176775013  0.5040055215698018  0.7016769170112551  1.0000
  N   N11       1.0  0.8952181886899664  0.004120883224700798  0.7015969499543359  1.0000
  N   N12       1.0  0.19366138311719536  0.49599569201279786  0.29832257465444195  1.0000
  N   N13       1.0  0.07411349728190689  0.013342646694994199  0.19044694783863747  1.0000
  N   N14       1.0  0.8837883969363247  0.48667340878777315  0.8096944885674588  1.0000
  N   N15       1.0  0.9258855939967813  0.9866585792543815  0.8095543958838929  1.0000
  N   N16       1.0  0.11621320385837919  0.5133278047948338  0.1903050030982385  1.0000
  N   N17       1.0  0.4505036878993066  0.17820169806995517  0.7853044743529125  1.0000
  N   N18       1.0  0.66516274799001  0.32147802630617406  0.2147181769673594  1.0000
  N   N19       1.0  0.5494989671380424  0.8217984078821772  0.21469659998754048  1.0000
  N   N20       1.0  0.33483384626259743  0.6785231852174435  0.7852808865222017  1.0000
  O   O1        1.0  0.36174439363298916  0.08756460267453998  0.9685785748463189  1.0000
  O   O2        1.0  0.3931930383285688  0.4124917828022276  0.031576090777676286  1.0000
  O   O3        1.0  0.6382518120788487  0.91243437916237  0.031421373759783745  1.0000
  O   O4        1.0  0.6068060554481036  0.5875094377886398  0.9684244264868909  1.0000
  O   O5        1.0  0.2945988676475082  0.9088073320911153  0.027281538621686335  1.0000
  O   O6        1.0  0.2675456173729813  0.5911932147437184  0.9726082685160478  1.0000
  O   O7        1.0  0.7053998300944286  0.0911916748885702  0.9727223431333057  1.0000
  O   O8        1.0  0.7324549166891358  0.4088091332618973  0.027393772764696612  1.0000
