data_image0
_chemical_formula_structural       CoH26C32N10O6
_chemical_formula_sum              "Co1 H26 C32 N10 O6"
_cell_length_a       8.297928836285548
_cell_length_b       9.027863095748181
_cell_length_c       11.200900246570676
_cell_angle_alpha    83.98283910758089
_cell_angle_beta     68.93337560797077
_cell_angle_gamma    73.8960354400972

_space_group_name_H-M_alt    "P 1"
_space_group_IT_number       1

loop_
  _space_group_symop_operation_xyz
  'x, y, z'

loop_
  _atom_site_type_symbol
  _atom_site_label
  _atom_site_symmetry_multiplicity
  _atom_site_fract_x
  _atom_site_fract_y
  _atom_site_fract_z
  _atom_site_occupancy
  Co  Co1       1.0  0.4999887283737863  0.5000010726114398  0.5000054779386218  1.0000
  H   H1        1.0  0.2770929689644888  0.23147831236973818  0.7653280463065784  1.0000
  H   H2        1.0  0.7229113163077727  0.76853540428273  0.23467469082406464  1.0000
  H   H3        1.0  0.9472771500034439  0.33709285435971037  0.8805065947441405  1.0000
  H   H4        1.0  0.05272465980473845  0.6629106632687111  0.11949578813720053  1.0000
  H   H5        1.0  0.854273496366993  0.600911924686912  0.7800965054279273  1.0000
  H   H6        1.0  0.14570498121553746  0.39907627511523464  0.2198930242187913  1.0000
  H   H7        1.0  0.28774062876904355  0.719630723737154  0.3752108575280317  1.0000
  H   H8        1.0  0.7122608716365095  0.2803682652967723  0.6247946550605405  1.0000
  H   H9        1.0  0.8094749409451153  0.24299172826035692  0.10072873536441307  1.0000
  H   H10       1.0  0.19052769776309475  0.7569991706434821  0.8992709226226978  1.0000
  H   H11       1.0  0.7452688073940126  0.8075741755137005  0.6392995281604287  1.0000
  H   H12       1.0  0.2547244638292341  0.19242039426588783  0.3606922184475039  1.0000
  H   H13       1.0  0.18183817289671114  0.4665953503374354  0.7123093927067643  1.0000
  H   H14       1.0  0.8181484025892658  0.5334075624485382  0.2876948678338421  1.0000
  H   H15       1.0  0.3355331195157659  0.9707677303017165  0.08170594470949773  1.0000
  H   H16       1.0  0.6644732980279998  0.02923332027344829  0.9182937621949491  1.0000
  H   H17       1.0  0.45793120816544797  0.8334032206287604  0.45141894163180746  1.0000
  H   H18       1.0  0.5420636607331989  0.1665960263239157  0.5485899102843914  1.0000
  H   H19       1.0  0.49370501739859657  0.6974404266257823  0.14194151159525603  1.0000
  H   H20       1.0  0.5063159762541433  0.3025578626948828  0.858060327347644  1.0000
  H   H21       1.0  0.5114227471522526  0.2303763619735122  0.07754558846364293  1.0000
  H   H22       1.0  0.488592472821715  0.7696290020803218  0.9224588210825501  1.0000
  H   H23       1.0  0.5477094603638762  0.7498634071713824  0.5479417437527657  1.0000
  H   H24       1.0  0.452287524176988  0.2501334462783404  0.4520632301827021  1.0000
  H   H25       1.0  0.708897785786462  0.14990737460157533  0.3015514841491864  1.0000
  H   H26       1.0  0.29110955867763993  0.8500913086682332  0.6984428374387193  1.0000
  C   C1        1.0  0.21313168177062639  0.1979335074636026  0.8642064631497844  1.0000
  C   C2        1.0  0.7868714314090253  0.8020699628120981  0.1357956143995765  1.0000
  C   C3        1.0  0.029855096969157602  0.2557956559047981  0.9277536564390374  1.0000
  C   C4        1.0  0.9701471762992  0.7442066780709455  0.07224603378403316  1.0000
  C   C5        1.0  0.00925015401543307  0.777522027522487  0.49456657284402883  1.0000
  C   C6        1.0  0.9907456597203818  0.2224805326392953  0.5054337377050045  1.0000
  C   C7        1.0  0.9467000276859849  0.6302780948079845  0.689327117414173  1.0000
  C   C8        1.0  0.053289859069678924  0.3697143237673899  0.3106665042103529  1.0000
  C   C9        1.0  0.18863199765046093  0.6963541912747644  0.46440236383943295  1.0000
  C   C10       1.0  0.811368451461469  0.3036493842839434  0.5356012307077619  1.0000
  C   C11       1.0  0.9530113912678787  0.2034625002140588  0.05106469102203452  1.0000
  C   C12       1.0  0.04699013882192556  0.796532995792127  0.9489339552575871  1.0000
  C   C13       1.0  0.5039993292761408  0.4585059409311398  0.12332426315941808  1.0000
  C   C14       1.0  0.49601055770053654  0.5415007327208555  0.876678622369596  1.0000
  C   C15       1.0  0.5130497572435148  0.40906657296741133  0.2537124931674555  1.0000
  C   C16       1.0  0.4869448726322717  0.5909349143598136  0.7462908680586152  1.0000
  C   C17       1.0  0.9915167640653169  0.029191851180293313  0.23368971253020013  1.0000
  C   C18       1.0  0.008485601073935761  0.9708058801579901  0.7663067630628787  1.0000
  C   C19       1.0  0.06199448782545861  0.09590059455844373  0.1078105028634369  1.0000
  C   C20       1.0  0.9380081687995909  0.9040959848598646  0.8921859990730355  1.0000
  C   C21       1.0  0.9619987815425614  0.8934951319007428  0.4033500520404942  1.0000
  C   C22       1.0  0.03800711035438551  0.10650821193681281  0.596648695843264  1.0000
  C   C23       1.0  0.885662079880014  0.7451447435852857  0.6108241172952305  1.0000
  C   C24       1.0  0.11433115193527502  0.2548555172863445  0.3891653795959584  1.0000
  C   C25       1.0  0.506547157810516  0.3482940451184079  0.04261177052098471  1.0000
  C   C26       1.0  0.4934712242374459  0.6517054379398388  0.9573861210730145  1.0000
  C   C27       1.0  0.49660367371811276  0.6109005829961803  0.08006498151469545  1.0000
  C   C28       1.0  0.5034146952748627  0.3890921205154499  0.9199406241427753  1.0000
  C   C29       1.0  0.12736876843288758  0.5545339159746236  0.6531488370769409  1.0000
  C   C30       1.0  0.8726209118023007  0.4454631263933351  0.3468498118453596  1.0000
  C   C31       1.0  0.24628753057150016  0.04963323289993581  0.03782246746261821  1.0000
  C   C32       1.0  0.7537168010142922  0.9503667181504274  0.9621742511136091  1.0000
  N   N1        1.0  0.08497324400148194  0.9160053985967455  0.2880892415467216  1.0000
  N   N2        1.0  0.9150288641980779  0.0839888926016243  0.7119048994068606  1.0000
  N   N3        1.0  0.8192964002783467  0.0712653047051077  0.31457398832896644  1.0000
  N   N4        1.0  0.1807108246743213  0.9287344987519786  0.6854175879138751  1.0000
  N   N5        1.0  0.24790019843936767  0.5888625341405316  0.5424037376814681  1.0000
  N   N6        1.0  0.752100571842611  0.4111363964704538  0.45759301690018356  1.0000
  N   N7        1.0  0.7973006745339932  0.9869771314881389  0.42357337867250794  1.0000
  N   N8        1.0  0.20270014130536404  0.013030962087498196  0.576426179833568  1.0000
  N   N9        1.0  0.32081541176236067  0.0977271530241168  0.9185106959967227  1.0000
  N   N10       1.0  0.6791852894274156  0.9022809617066445  0.08149067517712892  1.0000
  O   O1        1.0  0.5127231538586231  0.270273111628626  0.2885687374747051  1.0000
  O   O2        1.0  0.487266227985195  0.7297331571693849  0.7114381533753544  1.0000
  O   O3        1.0  0.523432867912497  0.5107798105180024  0.3202166278691863  1.0000
  O   O4        1.0  0.47655328352126264  0.48921859482861413  0.6797925750464273  1.0000
  O   O5        1.0  0.5535531266024806  0.743999225003506  0.458075449368387  1.0000
  O   O6        1.0  0.4464429261561946  0.25600109478371985  0.5419303518707821  1.0000
