data_image0
_chemical_formula_structural       Cu2Ni2H30C24N6O18
_chemical_formula_sum              "Cu2 Ni2 H30 C24 N6 O18"
_cell_length_a       9.24241485569106
_cell_length_b       9.004031565748477
_cell_length_c       10.96013213057643
_cell_angle_alpha    66.93232583644325
_cell_angle_beta     79.16695307180257
_cell_angle_gamma    84.02724639392942

_space_group_name_H-M_alt    "P 1"
_space_group_IT_number       1

loop_
  _space_group_symop_operation_xyz
  'x, y, z'

loop_
  _atom_site_type_symbol
  _atom_site_label
  _atom_site_symmetry_multiplicity
  _atom_site_fract_x
  _atom_site_fract_y
  _atom_site_fract_z
  _atom_site_occupancy
  Cu  Cu1       1.0  0.9239545791200002  0.4962978511508637  0.3554802805753141  1.0000
  Cu  Cu2       1.0  0.07565054102401801  0.5037991387154431  0.6452563272691378  1.0000
  Ni  Ni1       1.0  0.5007446703446234  0.3736303042590307  0.23548422946462472  1.0000
  Ni  Ni2       1.0  0.4989973544640733  0.6271258287587641  0.7634502101842314  1.0000
  H   H1        1.0  0.7354264619918212  0.6628643766095549  0.2118498117543056  1.0000
  H   H2        1.0  0.2616293669501104  0.3357901777345659  0.7912039892486931  1.0000
  H   H3        1.0  0.7585937989664514  0.7606259396782916  0.30479600510177113  1.0000
  H   H4        1.0  0.23875788381185  0.23812815451308464  0.6980779088432172  1.0000
  H   H5        1.0  0.6046033145905554  0.4712861048638715  0.40093088389114223  1.0000
  H   H6        1.0  0.395520724997624  0.5262046078820504  0.6000753724454313  1.0000
  H   H7        1.0  0.4775446996452074  0.6060442117191085  0.3331046521721888  1.0000
  H   H8        1.0  0.5232053988966924  0.3929450166629562  0.6686030104415719  1.0000
  H   H9        1.0  0.5416383541019982  0.16860608442097905  0.11370140683060727  1.0000
  H   H10       1.0  0.45878695235040806  0.8319288654001011  0.8857521065896066  1.0000
  H   H11       1.0  0.4240774449507612  0.30301896428000663  0.04355628586548482  1.0000
  H   H12       1.0  0.5746336658986521  0.6966357277768294  0.9567212738978483  1.0000
  H   H13       1.0  0.6603148068457615  0.4767578536543553  0.9889097516311763  1.0000
  H   H14       1.0  0.3371292831738444  0.5221410875382944  0.012002462075479165  1.0000
  H   H15       1.0  0.7393948809169258  0.4733238749086225  0.11106901921287728  1.0000
  H   H16       1.0  0.26146518037776895  0.5240313183466654  0.8890317224761544  1.0000
  H   H17       1.0  0.0357364382395033  0.6670540801684621  0.0270281849310408  1.0000
  H   H18       1.0  0.960781233403125  0.33435059269217493  0.9739887780813775  1.0000
  H   H19       1.0  0.15112077516486272  0.7978043744704733  0.048833405034749124  1.0000
  H   H20       1.0  0.8446801728894754  0.20491060457919721  0.9513328852411717  1.0000
  H   H21       1.0  0.9537746113527276  0.8983624076976255  0.17415458997825084  1.0000
  H   H22       1.0  0.04164015767998559  0.1028395334281456  0.8269622642943446  1.0000
  H   H23       1.0  0.8692409361754869  0.8838351910162101  0.046386235836806206  1.0000
  H   H24       1.0  0.12553857073401528  0.11593725881813549  0.9557122737346546  1.0000
  H   H25       1.0  0.7275025767367892  0.9897718023990976  0.7670599444227263  1.0000
  H   H26       1.0  0.27559652052053  0.008603369652675495  0.23282136111644283  1.0000
  H   H27       1.0  0.9114367356368902  0.7610869184420963  0.8317887310715477  1.0000
  H   H28       1.0  0.0926812393179972  0.23793995218668576  0.166298644565309  1.0000
  H   H29       1.0  0.24684813518140197  0.06565914999126218  0.5433115414361538  1.0000
  H   H30       1.0  0.7558345329021775  0.9358702191160473  0.45489581757217235  1.0000
  C   C1        1.0  0.2044594056537221  0.3562171583662985  0.36907389636889587  1.0000
  C   C2        1.0  0.7958948081088266  0.6456207848350459  0.6288707214780658  1.0000
  C   C3        1.0  0.21086026498579707  0.5061857297619737  0.23950275657233533  1.0000
  C   C4        1.0  0.7878923670873945  0.49676527728991704  0.7590706717270522  1.0000
  C   C5        1.0  0.056828375995124206  0.71828255203237  0.09822939160697795  1.0000
  C   C6        1.0  0.939667081394596  0.28349107614842234  0.9025780177881656  1.0000
  C   C7        1.0  0.9204431361390775  0.813771591893399  0.13583855496192856  1.0000
  C   C8        1.0  0.0755012994256603  0.1867473530439128  0.8657096476383401  1.0000
  C   C9        1.0  0.7516429647114576  0.27634116290948174  0.5941109086904035  1.0000
  C   C10       1.0  0.25020698484373577  0.7226762349674941  0.40689966901447155  1.0000
  C   C11       1.0  0.8799252327352888  0.15674745051525457  0.6178347344182525  1.0000
  C   C12       1.0  0.12243204145102742  0.8427365053404684  0.38208024044351424  1.0000
  C   C13       1.0  0.8421663406099852  0.005708003485935403  0.7191880553430111  1.0000
  C   C14       1.0  0.16080270859742996  0.9933081196188526  0.2802796979581431  1.0000
  C   C15       1.0  0.9439943279848325  0.8785863113407757  0.7558730571056883  1.0000
  C   C16       1.0  0.0595197852348335  0.12085282538446755  0.24267547827405875  1.0000
  C   C17       1.0  0.09116146735888013  0.9020517335741755  0.6929300138121802  1.0000
  C   C18       1.0  0.9122709088936671  0.09825650455951518  0.3053901435810929  1.0000
  C   C19       1.0  0.13270762479481138  0.05048563179222749  0.5922700333214976  1.0000
  C   C20       1.0  0.870169167827548  0.95030628668529  0.40645869264997  1.0000
  C   C21       1.0  0.0288436866053132  0.17994396072636928  0.5491160000075013  1.0000
  C   C22       1.0  0.9732939705467983  0.8202854761212918  0.45009025304187117  1.0000
  C   C23       1.0  0.20122910145671824  0.7645594099588918  0.7352806447564647  1.0000
  C   C24       1.0  0.8016424326333791  0.23508769274774718  0.26284134789689534  1.0000
  N   N1        1.0  0.08718651021251839  0.5876674372939519  0.2201065770337536  1.0000
  N   N2        1.0  0.9106458144424676  0.41451951650874  0.7803462457830009  1.0000
  N   N3        1.0  0.0686815570197155  0.3241279080193775  0.44123720979841613  1.0000
  N   N4        1.0  0.9322425013606406  0.6764883796927916  0.5579041794957078  1.0000
  N   N5        1.0  0.8144129460221662  0.7038739688264993  0.24449375143935015  1.0000
  N   N6        1.0  0.18284501782842708  0.2955638325842145  0.7577916329409717  1.0000
  O   O1        1.0  0.3243655133942696  0.2759207147986587  0.39089355140259846  1.0000
  O   O2        1.0  0.6764870673646897  0.7259587465690628  0.6055486560114077  1.0000
  O   O3        1.0  0.33442353903090094  0.5353892312706633  0.15885627011244452  1.0000
  O   O4        1.0  0.6632411428970215  0.46921975205618327  0.8386110610504005  1.0000
  O   O5        1.0  0.7568107527316243  0.4092615575132966  0.4877318533765304  1.0000
  O   O6        1.0  0.24353887864725718  0.589191333308875  0.512809804648235  1.0000
  O   O7        1.0  0.6362386513336132  0.24434147538372028  0.6798740947211285  1.0000
  O   O8        1.0  0.3666671388240417  0.7547736125109877  0.322424833024634  1.0000
  O   O9        1.0  0.1491984112371441  0.6246120337047639  0.8052598075038799  1.0000
  O   O10       1.0  0.853098773976626  0.37546112160737255  0.19199563579775972  1.0000
  O   O11       1.0  0.3383009126377273  0.7956406694472518  0.7014655872811134  1.0000
  O   O12       1.0  0.6650367777628502  0.20317663307803704  0.2973119114202945  1.0000
  O   O13       1.0  0.5546684907179654  0.5212555714262874  0.32114335493837126  1.0000
  O   O14       1.0  0.4449504175540895  0.47670997433652207  0.68022851129502  1.0000
  O   O15       1.0  0.4521489030200243  0.22880446505697447  0.1316256890890415  1.0000
  O   O16       1.0  0.5481570894373604  0.7712494891162505  0.8683687930022684  1.0000
  O   O17       1.0  0.6476544011244982  0.5164829115855196  0.06365567398315623  1.0000
  O   O18       1.0  0.35096846370510093  0.4801508354865403  0.9384865660978646  1.0000
