data_image0
_chemical_formula_structural       Cu2H14C12N4Cl2O6
_chemical_formula_sum              "Cu2 H14 C12 N4 Cl2 O6"
_cell_length_a       3.811163240983063
_cell_length_b       11.164097542819102
_cell_length_c       11.388119378478946
_cell_angle_alpha    111.15392401020087
_cell_angle_beta     96.55124593481897
_cell_angle_gamma    96.51966173900482

_space_group_name_H-M_alt    "P 1"
_space_group_IT_number       1

loop_
  _space_group_symop_operation_xyz
  'x, y, z'

loop_
  _atom_site_type_symbol
  _atom_site_label
  _atom_site_symmetry_multiplicity
  _atom_site_fract_x
  _atom_site_fract_y
  _atom_site_fract_z
  _atom_site_occupancy
  Cu  Cu1       1.0  0.6805756601591354  0.024420119108683  0.2867428369966803  1.0000
  Cu  Cu2       1.0  0.31942773192240265  0.9755799055887877  0.7132559602369284  1.0000
  H   H1        1.0  0.408533407118057  0.12935130591903035  0.08097997823799832  1.0000
  H   H2        1.0  0.5914141196173545  0.8706579555915182  0.9190279612259504  1.0000
  H   H3        1.0  0.2702495573522299  0.4816799313299853  0.4070747272841332  1.0000
  H   H4        1.0  0.729792088427466  0.5183227360566605  0.5929185160402285  1.0000
  H   H5        1.0  0.31360179407322164  0.27735741979717693  0.9695486806861526  1.0000
  H   H6        1.0  0.686383665809238  0.72264860097345  0.030458620106422463  1.0000
  H   H7        1.0  0.7329113875196357  0.3679552930576405  0.973904512593606  1.0000
  H   H8        1.0  0.26706578929092456  0.6320449249053509  0.026101292524806773  1.0000
  H   H9        1.0  0.424302877284056  0.44808737574307866  0.06746659390204715  1.0000
  H   H10       1.0  0.5756925694415429  0.551917592432801  0.9325380644768944  1.0000
  H   H11       1.0  0.7662374112290493  0.8817360528765195  0.4285787997275393  1.0000
  H   H12       1.0  0.2337315748721736  0.11827403211120209  0.5714223194992983  1.0000
  H   H13       1.0  0.4202747524327037  0.8185805229843268  0.3190897460878406  1.0000
  H   H14       1.0  0.5796944285376426  0.18142465012810763  0.6809175318885468  1.0000
  C   C1        1.0  0.6930480051439147  0.3296140985924794  0.14247745128889022  1.0000
  C   C2        1.0  0.30693264834910383  0.6703929505918751  0.8575256488640195  1.0000
  C   C3        1.0  0.6016659467729184  0.2085386189373892  0.15300452577588436  1.0000
  C   C4        1.0  0.3983300789829016  0.7914624392616929  0.8469961253171264  1.0000
  C   C5        1.0  0.989072027118482  0.2834021319632214  0.34581120643323976  1.0000
  C   C6        1.0  0.01095837432708161  0.7165888729482359  0.6541844896941242  1.0000
  C   C7        1.0  0.07542882007857793  0.4031247233035558  0.3343511788851075  1.0000
  C   C8        1.0  0.924599890721467  0.596868267150711  0.6656390162450807  1.0000
  C   C9        1.0  0.528341547333909  0.356285452193589  0.03135554867414925  1.0000
  C   C10       1.0  0.4716629694886407  0.6437116270782823  0.9686431177576014  1.0000
  C   C11       1.0  0.15959173732231588  0.2500896747368202  0.4525610182375672  1.0000
  C   C12       1.0  0.8404448855142448  0.7499032467670261  0.5474311995173056  1.0000
  N   N1        1.0  0.7500078580182787  0.18757726510579437  0.2544524844182093  1.0000
  N   N2        1.0  0.25000519025843465  0.8124158259020292  0.7455477079821834  1.0000
  N   N3        1.0  0.9295545263748294  0.42605613481405397  0.2336767954967343  1.0000
  N   N4        1.0  0.07045040489938262  0.573941939353695  0.766314337871954  1.0000
  Cl  Cl1       1.0  0.16962662669296696  0.9325188856672855  0.1436637578711385  1.0000
  Cl  Cl2       1.0  0.830366357025767  0.0674763315378968  0.856333820439254  1.0000
  O   O1        1.0  0.042043292690649985  0.1313975432295535  0.4442805091573519  1.0000
  O   O2        1.0  0.9579458821596701  0.868605520024971  0.5557232393067296  1.0000
  O   O3        1.0  0.3980137549100533  0.3276992096031819  0.5375361061498795  1.0000
  O   O4        1.0  0.6020316664186395  0.6723004862621166  0.4624588507908174  1.0000
  O   O5        1.0  0.6509822423287589  0.8757131814335679  0.34143634936508976  1.0000
  O   O6        1.0  0.348998619159083  0.12428408601593328  0.6585632704524047  1.0000
