data_image0
_chemical_formula_structural       Co3H20C14N2O18
_chemical_formula_sum              "Co3 H20 C14 N2 O18"
_cell_length_a       7.1935536828280515
_cell_length_b       8.369674373728628
_cell_length_c       9.408452637955463
_cell_angle_alpha    110.20073857289941
_cell_angle_beta     100.81211574295394
_cell_angle_gamma    94.5627134488422

_space_group_name_H-M_alt    "P 1"
_space_group_IT_number       1

loop_
  _space_group_symop_operation_xyz
  'x, y, z'

loop_
  _atom_site_type_symbol
  _atom_site_label
  _atom_site_symmetry_multiplicity
  _atom_site_fract_x
  _atom_site_fract_y
  _atom_site_fract_z
  _atom_site_occupancy
  Co  Co1       1.0  0.999892030544693  0.9999681020705965  1.7655669331823022e-05  1.0000
  Co  Co2       1.0  0.6118339888319825  0.8598180350716761  0.3710272573046113  1.0000
  Co  Co3       1.0  0.3900801837496672  0.14035896019790783  0.6300780584405672  1.0000
  H   H1        1.0  0.1225026432710052  0.40620330641745983  0.40174545044045123  1.0000
  H   H2        1.0  0.8765502432607166  0.5945114976460245  0.5976007600761691  1.0000
  H   H3        1.0  0.5132478339017725  0.2143535660617886  0.10527549835321538  1.0000
  H   H4        1.0  0.4867468639879746  0.7855097224773289  0.8952477210727992  1.0000
  H   H5        1.0  0.9572092360894897  0.859205921785268  0.522551670316993  1.0000
  H   H6        1.0  0.04431472612303369  0.14118336327300796  0.4790999430722493  1.0000
  H   H7        1.0  0.8266493360294122  0.9083686819394644  0.6458655459256094  1.0000
  H   H8        1.0  0.17386077811381986  0.09197091498632659  0.3553240569042729  1.0000
  H   H9        1.0  0.38287835825242666  0.7691095062720449  0.08446235249533626  1.0000
  H   H10       1.0  0.6169121098166528  0.23103170279876648  0.9163250584652048  1.0000
  H   H11       1.0  0.36756011569384844  0.96735893541004  0.17801935188685997  1.0000
  H   H12       1.0  0.6326908623939715  0.0325890051365718  0.8227820851827801  1.0000
  H   H13       1.0  0.1790809213109483  0.8620473062848008  0.7563812977985691  1.0000
  H   H14       1.0  0.8214081617814487  0.13778055732117878  0.24394489972161892  1.0000
  H   H15       1.0  0.3218864298829445  0.0219010567929914  0.878924629078675  1.0000
  H   H16       1.0  0.6783273325512768  0.9778770049317416  0.12171908919290078  1.0000
  H   H17       1.0  0.07801320992127361  0.250139575905756  0.8851934595841016  1.0000
  H   H18       1.0  0.9221137169803698  0.7491358044849292  0.11415913535954295  1.0000
  H   H19       1.0  0.9338798373851844  0.3167852725761051  0.9988104958157039  1.0000
  H   H20       1.0  0.0662535947361675  0.6832601651129195  0.00027984346416333255  1.0000
  C   C1        1.0  0.3333228942951152  0.5891852983651943  0.3821770570287554  1.0000
  C   C2        1.0  0.6658654911224031  0.4111913655888698  0.6168455377053945  1.0000
  C   C3        1.0  0.23949023681174  0.424218462574551  0.3473271845336328  1.0000
  C   C4        1.0  0.7595695485690896  0.5762512272391757  0.6519242686399239  1.0000
  C   C5        1.0  0.3005111566194927  0.28209203730525456  0.2431956888889957  1.0000
  C   C6        1.0  0.6989060620530977  0.7181228164175906  0.7566575457393726  1.0000
  C   C7        1.0  0.4549500505762367  0.3184327083673822  0.1804709702064216  1.0000
  C   C8        1.0  0.5445398488171449  0.6815817070444011  0.8193746579390861  1.0000
  C   C9        1.0  0.5356603441092177  0.48749865466730574  0.21734084027415435  1.0000
  C   C10       1.0  0.4635981344781753  0.512498764558238  0.7819534512713631  1.0000
  C   C11       1.0  0.6971350206732582  0.5381157603496118  0.15329446772838654  1.0000
  C   C12       1.0  0.3024154787151829  0.4614763163911704  0.8459440619553931  1.0000
  C   C13       1.0  0.29369586989169255  0.746767838750216  0.501136803391276  1.0000
  C   C14       1.0  0.7062903248649093  0.25358695679047827  0.49846319736236216  1.0000
  N   N1        1.0  0.476422115027198  0.6210744991211  0.3167134444607028  1.0000
  N   N2        1.0  0.522867653332888  0.37908982252079676  0.6823658371833758  1.0000
  O   O1        1.0  0.7461196273200058  0.4266806727411349  0.04286341306926995  1.0000
  O   O2        1.0  0.2528800165598639  0.5725102304653121  0.9562252152415454  1.0000
  O   O3        1.0  0.774396793445618  0.6976001255477228  0.21671941482410514  1.0000
  O   O4        1.0  0.2259883447477478  0.30168211485143814  0.7824944296744932  1.0000
  O   O5        1.0  0.4188543998113873  0.8818251060723482  0.5353481851014195  1.0000
  O   O6        1.0  0.5816100775149166  0.11820243687552077  0.46466078459851445  1.0000
  O   O7        1.0  0.1525357112866743  0.7408894372204314  0.5617421562997507  1.0000
  O   O8        1.0  0.8476785432096607  0.25945835151961927  0.4381897765563211  1.0000
  O   O9        1.0  0.21903252197804332  0.12080788141826561  0.20709075444824526  1.0000
  O   O10       1.0  0.780871210587712  0.8794920502701659  0.7935027847381236  1.0000
  O   O11       1.0  0.8479218654689261  0.9194065274865366  0.545860797613841  1.0000
  O   O12       1.0  0.1527944731551827  0.0802291177232775  0.4550515375177113  1.0000
  O   O13       1.0  0.4578242623733644  0.8803356548187011  0.16335849522969423  1.0000
  O   O14       1.0  0.5423692368596704  0.11963790428151101  0.8370916971321734  1.0000
  O   O15       1.0  0.21351111636256795  0.935818976262574  0.8693401136643785  1.0000
  O   O16       1.0  0.7865266504885184  0.06398778296675542  0.1309774581429508  1.0000
  O   O17       1.0  0.9987949398420923  0.218983627494076  0.9511530775694227  1.0000
  O   O18       1.0  0.001157500424639579  0.7807997088599874  0.04830726403591961  1.0000
