data_image0
_chemical_formula_structural       Cd2H40C34S2N8O12
_chemical_formula_sum              "Cd2 H40 C34 S2 N8 O12"
_cell_length_a       8.62747562385878
_cell_length_b       8.627485494189145
_cell_length_c       14.21349751601538
_cell_angle_alpha    90.000124907924
_cell_angle_beta     90.00005085974803
_cell_angle_gamma    114.30517260618521

_space_group_name_H-M_alt    "P 1"
_space_group_IT_number       1

loop_
  _space_group_symop_operation_xyz
  'x, y, z'

loop_
  _atom_site_type_symbol
  _atom_site_label
  _atom_site_symmetry_multiplicity
  _atom_site_fract_x
  _atom_site_fract_y
  _atom_site_fract_z
  _atom_site_occupancy
  Cd  Cd1       1.0  0.5650108100530886  0.5650082256458403  0.5419825370442055  1.0000
  Cd  Cd2       1.0  0.4349916221055422  0.4349889242528774  0.04198232914295372  1.0000
  H   H1        1.0  0.2721288417973824  0.44657198311440277  0.7036048101806713  1.0000
  H   H2        1.0  0.7278706145542344  0.5534285728353723  0.20360491497584127  1.0000
  H   H3        1.0  0.4465752036441373  0.2721304988169209  0.7036026309432232  1.0000
  H   H4        1.0  0.5534289585989995  0.7278674589434146  0.2036028728732262  1.0000
  H   H5        1.0  0.44242815474227365  0.4424269363131188  0.33284881667259475  1.0000
  H   H6        1.0  0.5575706073080083  0.557574285335086  0.8328490107872213  1.0000
  H   H7        1.0  0.37753373765396236  0.88329238767799  0.4587350658195959  1.0000
  H   H8        1.0  0.6224677817725847  0.11670944986325789  0.9587333055185284  1.0000
  H   H9        1.0  0.8832878535964354  0.37753100635732306  0.45873486701444943  1.0000
  H   H10       1.0  0.11671028990749474  0.6224683095154119  0.9587342078777114  1.0000
  H   H11       1.0  0.16688566890498893  0.7709681050134944  0.4154894218659565  1.0000
  H   H12       1.0  0.8331162299378433  0.22903478520478868  0.9154879222915043  1.0000
  H   H13       1.0  0.7709707056274481  0.16688553833425604  0.4154842595194027  1.0000
  H   H14       1.0  0.22903128092112723  0.8331147974119162  0.9154881597401927  1.0000
  H   H15       1.0  0.3263676577271184  0.6926221294690578  0.3953486979120769  1.0000
  H   H16       1.0  0.6736331025644728  0.3073781151872196  0.8953486237256174  1.0000
  H   H17       1.0  0.6926235811634242  0.3263658805105365  0.3953464432752511  1.0000
  H   H18       1.0  0.30737549115620766  0.6736331032963392  0.8953452499083526  1.0000
  H   H19       1.0  0.9749426530801274  0.6661213260594536  0.5699821552504504  1.0000
  H   H20       1.0  0.02505632743557134  0.33387855294093066  0.06998300214698361  1.0000
  H   H21       1.0  0.6661067350592446  0.9749340279361647  0.5699773517352399  1.0000
  H   H22       1.0  0.3338923331546865  0.025063296581414804  0.06997865942472  1.0000
  H   H23       1.0  0.9944374883844486  0.36926050721960735  0.7860441966765708  1.0000
  H   H24       1.0  0.00555790650289363  0.6307328467281719  0.2860475356902655  1.0000
  H   H25       1.0  0.3692631630229356  0.9944428992395797  0.7860437388669868  1.0000
  H   H26       1.0  0.6307411173691263  0.005560585099587502  0.2860444757259017  1.0000
  H   H27       1.0  0.8312550398570975  0.39535701160840375  0.7198845218150964  1.0000
  H   H28       1.0  0.1687451833168511  0.6046397896688946  0.21988720994441022  1.0000
  H   H29       1.0  0.395352681014323  0.8312499415675063  0.7198853967086977  1.0000
  H   H30       1.0  0.6046481632887009  0.16874557701331128  0.21988563149353277  1.0000
  H   H31       1.0  0.9663690080740392  0.5606717795294572  0.7943082913517261  1.0000
  H   H32       1.0  0.03362508626158697  0.43932673612670914  0.2943085784613331  1.0000
  H   H33       1.0  0.5606686334747123  0.9663745198978118  0.7943077472682063  1.0000
  H   H34       1.0  0.43933460951042475  0.0336264627726237  0.2943063083225255  1.0000
  H   H35       1.0  0.2300985786486152  0.23009995686355472  0.5480482916180875  1.0000
  H   H36       1.0  0.7698995272030941  0.769906202634985  0.0480508152704928  1.0000
  H   H37       1.0  0.9654714215768222  0.9654732655648529  0.535026844134798  1.0000
  H   H38       1.0  0.03452779244728531  0.03453281703018261  0.035027300943369304  1.0000
  H   H39       1.0  0.9993828800733764  0.9993828619601713  0.2318073481323211  1.0000
  H   H40       1.0  0.0006150764610949998  0.0006140215722610001  0.7318072132763123  1.0000
  C   C1        1.0  0.27649690164732016  0.7562583917507125  0.44607797175550706  1.0000
  C   C2        1.0  0.7235051938386263  0.24374209897553809  0.9460771366362197  1.0000
  C   C3        1.0  0.7562562806449333  0.2764938931276433  0.446074265386713  1.0000
  C   C4        1.0  0.24374528141768792  0.7235053258229841  0.9460766216644317  1.0000
  C   C5        1.0  0.2237691521921406  0.6588222666567561  0.5355414471929336  1.0000
  C   C6        1.0  0.7762313936373173  0.34117869869296413  0.0355405940762026  1.0000
  C   C7        1.0  0.6588158153680367  0.2237660900282208  0.5355377583967851  1.0000
  C   C8        1.0  0.341184197035595  0.7762336035423231  0.03553865441856631  1.0000
  C   C9        1.0  0.07522714866594529  0.6265973098313182  0.5877825745645424  1.0000
  C   C10       1.0  0.9247725163717531  0.3734013766587125  0.08778536106687802  1.0000
  C   C11       1.0  0.6265930746199826  0.0752202175188899  0.5877774329316594  1.0000
  C   C12       1.0  0.3734118297137671  0.9247771425305871  0.08777994935126542  1.0000
  C   C13       1.0  0.08178267787810262  0.5319541287112415  0.6658174942439106  1.0000
  C   C14       1.0  0.9182167316291652  0.4680436813483269  0.16581969861949375  1.0000
  C   C15       1.0  0.5319499497718566  0.0817777737041254  0.665815910174281  1.0000
  C   C16       1.0  0.4680535444953549  0.9182187208589311  0.16581635779314044  1.0000
  C   C17       1.0  0.9621501687982527  0.4599096326089905  0.7456826128037195  1.0000
  C   C18       1.0  0.03784499464719464  0.5400860713242324  0.24568725651095494  1.0000
  C   C19       1.0  0.4599095276615159  0.9621533256781021  0.7456842173382158  1.0000
  C   C20       1.0  0.5400958512675728  0.03784738880281681  0.2456842448692953  1.0000
  C   C21       1.0  0.29033573708634447  0.2903371729891616  0.22189498549786896  1.0000
  C   C22       1.0  0.7096626298533264  0.7096634865537297  0.7218961651249317  1.0000
  C   C23       1.0  0.19901708278074173  0.19901969430439687  0.3074044665752496  1.0000
  C   C24       1.0  0.800980346404806  0.8009839638350299  0.8074072226087523  1.0000
  C   C25       1.0  0.26410235785435526  0.26410227662209707  0.3977236055505885  1.0000
  C   C26       1.0  0.7358984108967235  0.7358979800691046  0.8977248338133493  1.0000
  C   C27       1.0  0.17902734831963577  0.17903186830980636  0.4792404087072769  1.0000
  C   C28       1.0  0.8209694505208132  0.8209752257625381  0.9792424982421652  1.0000
  C   C29       1.0  0.0315699607552204  0.0315729084992498  0.47171503061891684  1.0000
  C   C30       1.0  0.9684292080929779  0.9684315711281855  0.9717166899652627  1.0000
  C   C31       1.0  0.967196789985081  0.9671993943620973  0.3822481227246257  1.0000
  C   C32       1.0  0.032802593682021104  0.03280590377742241  0.8822494546531702  1.0000
  C   C33       1.0  0.049625882480071895  0.0496280712286392  0.30090065087971146  1.0000
  C   C34       1.0  0.9503727658049286  0.950372988571047  0.800902980307896  1.0000
  S   S1        1.0  0.7785426140630349  0.7785433081279294  0.37628600921658534  1.0000
  S   S2        1.0  0.22145523584038776  0.2214555900531536  0.8762876908836433  1.0000
  N   N1        1.0  0.3182820434061425  0.5886042774850964  0.5797290019562809  1.0000
  N   N2        1.0  0.6817203477395138  0.4113981725602827  0.0797281910731371  1.0000
  N   N3        1.0  0.5886015344341898  0.3182780547469122  0.5797253779124389  1.0000
  N   N4        1.0  0.41139925645401837  0.6817205799894311  0.0797261866612331  1.0000
  N   N5        1.0  0.2293574588822977  0.5129740444722799  0.6583598211388804  1.0000
  N   N6        1.0  0.77064192406646  0.48702372780374503  0.1583612682277007  1.0000
  N   N7        1.0  0.5129769075674132  0.2293579557486325  0.6583583025435973  1.0000
  N   N8        1.0  0.4870281603899611  0.7706423163274393  0.15835856548655164  1.0000
  O   O1        1.0  0.2354561159770086  0.23545933899075774  0.1402281950604305  1.0000
  O   O2        1.0  0.7645413390115718  0.7645421895098037  0.6402287728686391  1.0000
  O   O3        1.0  0.42727012270626114  0.4272713897250782  0.23453239609344936  1.0000
  O   O4        1.0  0.5727289103644964  0.5727280511435922  0.7345326183047334  1.0000
  O   O5        1.0  0.4076877600185044  0.4076882832902697  0.4045475341180733  1.0000
  O   O6        1.0  0.5923084148479418  0.5923120516903566  0.9045484961899535  1.0000
  O   O7        1.0  0.6450588741524683  0.811649570702855  0.4263489724901533  1.0000
  O   O8        1.0  0.3549391540265674  0.18834958110256386  0.9263499781616036  1.0000
  O   O9        1.0  0.8116497592997473  0.645062083659866  0.42635031412254426  1.0000
  O   O10       1.0  0.1883499568474889  0.3549383289896184  0.9263521543134987  1.0000
  O   O11       1.0  0.742302925443866  0.742300275619492  0.2753122358104463  1.0000
  O   O12       1.0  0.25770024990419665  0.2577006108268591  0.775314688224988  1.0000
