data_image0
_chemical_formula_structural       Zn2H38C48N12O10
_chemical_formula_sum              "Zn2 H38 C48 N12 O10"
_cell_length_a       9.519460268215106
_cell_length_b       11.93348335120013
_cell_length_c       11.974
_cell_angle_alpha    115.72087585858782
_cell_angle_beta     90.2096595375598
_cell_angle_gamma    102.47789687376059

_space_group_name_H-M_alt    "P 1"
_space_group_IT_number       1

loop_
  _space_group_symop_operation_xyz
  'x, y, z'

loop_
  _atom_site_type_symbol
  _atom_site_label
  _atom_site_symmetry_multiplicity
  _atom_site_fract_x
  _atom_site_fract_y
  _atom_site_fract_z
  _atom_site_occupancy
  Zn  Zn1       1.0  0.40049920163606595  0.6592177186011838  0.2412533012100085  1.0000
  Zn  Zn2       1.0  0.599505398321277  0.3407814885983953  0.7587467868421528  1.0000
  H   H1        1.0  0.962840085927695  0.6794944687869915  0.21354839777903584  1.0000
  H   H2        1.0  0.03716187693073889  0.3205143237156918  0.786453322997531  1.0000
  H   H3        1.0  0.19418338009824507  0.0748487563467606  0.4014593678683696  1.0000
  H   H4        1.0  0.8058159674253033  0.9251504508528186  0.5985440454749877  1.0000
  H   H5        1.0  0.7275243267542136  0.9745780248379533  0.3240298693879567  1.0000
  H   H6        1.0  0.2724750207693347  0.0254211823616259  0.6759743790982071  1.0000
  H   H7        1.0  0.15932761835820486  0.2451815095621868  0.39271257706963075  1.0000
  H   H8        1.0  0.8406693666583465  0.7548167391070848  0.6072887445327951  1.0000
  H   H9        1.0  0.1266781670087269  0.26975535112943316  0.5480675250891311  1.0000
  H   H10       1.0  0.8733253781090511  0.7302476901913835  0.4519367236525938  1.0000
  H   H11       1.0  0.8877786463988357  0.3775756330927038  0.6139520553882394  1.0000
  H   H12       1.0  0.11221912757098101  0.6224216570462531  0.3860488539269157  1.0000
  H   H13       1.0  0.184278846764947  0.4253267375649799  0.35769402555447277  1.0000
  H   H14       1.0  0.8157168262313519  0.574670552573977  0.6423052073630444  1.0000
  H   H15       1.0  0.5406266759543499  0.4159542281900741  0.135111177075018  1.0000
  H   H16       1.0  0.45937267156919864  0.5840449790095121  0.8648847199830529  1.0000
  H   H17       1.0  0.10715648287695959  0.1950043648743289  0.01713684562600554  1.0000
  H   H18       1.0  0.8928415482735376  0.8049977179161801  0.9828653022067686  1.0000
  H   H19       1.0  0.3856074713617517  0.11654961749991341  0.9054744033110681  1.0000
  H   H20       1.0  0.6143895136547997  0.8834486311693581  0.0945235777201248  1.0000
  H   H21       1.0  0.3097946540855148  0.07049415314669721  0.019315121658451104  1.0000
  H   H22       1.0  0.6902044275517483  0.9295079296438119  0.9806878643731385  1.0000
  H   H23       1.0  0.6273652577811574  0.2032295134677184  0.9105508126171815  1.0000
  H   H24       1.0  0.3726311998156149  0.7967706522621754  0.08944799604457629  1.0000
  H   H25       1.0  0.8835933635808928  0.2537105122639574  0.9921063148273177  1.0000
  H   H26       1.0  0.11640703442941455  0.7462886949356218  0.007888750143955387  1.0000
  H   H27       1.0  0.9429867983243625  0.24194455270402673  0.19174914344750962  1.0000
  H   H28       1.0  0.057011760245920605  0.7580556130258672  0.8082480010406459  1.0000
  H   H29       1.0  0.7482439097624649  0.1808535819021699  0.3019443454823758  1.0000
  H   H30       1.0  0.2517562223615498  0.8191485008883462  0.6980544678911756  1.0000
  H   H31       1.0  0.3503811638165786  0.1223966523932418  0.2119362881801052  1.0000
  H   H32       1.0  0.649617664992796  0.8775968036244778  0.7880646361595325  1.0000
  H   H33       1.0  0.45151649713311304  0.028492313476093004  0.24062128576915143  1.0000
  H   H34       1.0  0.5484917817042785  0.971504976662871  0.759376313534851  1.0000
  H   H35       1.0  0.521405606073337  0.0990804025932093  0.469404389960289  1.0000
  H   H36       1.0  0.4785958424237292  0.9009188046063699  0.5305981943522724  1.0000
  H   H37       1.0  0.4812758374364847  0.3955202790333558  0.3742188719517048  1.0000
  H   H38       1.0  0.5187279779203848  0.6044760525752935  0.6257774646421694  1.0000
  C   C1        1.0  0.6900582076425366  0.7161707140531206  0.2239470526509565  1.0000
  C   C2        1.0  0.3099419288342772  0.283827534616151  0.7760509375482629  1.0000
  C   C3        1.0  0.8304969781081512  0.8168125625219461  0.2626788269248267  1.0000
  C   C4        1.0  0.16949947948861416  0.1831876032079478  0.7373183114513112  1.0000
  C   C5        1.0  0.9620969195462052  0.7805379414558615  0.25505134897899506  1.0000
  C   C6        1.0  0.0379034741113031  0.219465099864955  0.7449487148806498  1.0000
  C   C7        1.0  0.0916464187644266  0.8745477187071558  0.303626058971851  1.0000
  C   C8        1.0  0.9083526672256353  0.1254505299621158  0.6963735984569797  1.0000
  C   C9        1.0  0.23295046303914543  0.8371439489354486  0.30038142661025086  1.0000
  C   C10       1.0  0.7670528205451389  0.16285813385506742  0.6996232419309933  1.0000
  C   C11       1.0  0.0915113747155871  0.0050370767810577  0.3594734117397281  1.0000
  C   C12       1.0  0.9084903353149656  0.9949630889488361  0.6405287527733137  1.0000
  C   C13       1.0  0.9605110883537405  0.040859271540632805  0.3636318552058242  1.0000
  C   C14       1.0  0.03949114909659098  0.9591389771286387  0.6363703168194661  1.0000
  C   C15       1.0  0.8299429359366144  0.9465084232287354  0.3155135604202429  1.0000
  C   C16       1.0  0.1700535216601509  0.0534917425011514  0.684488588812748  1.0000
  C   C17       1.0  0.0800159529090365  0.2656950167346608  0.4614846099187489  1.0000
  C   C18       1.0  0.919983394614512  0.7343041904649183  0.5385188034246015  1.0000
  C   C19       1.0  0.04033279698858652  0.38780794415603037  0.4831547458730087  1.0000
  C   C20       1.0  0.9596639264944713  0.6121893459829337  0.5168461603861304  1.0000
  C   C21       1.0  0.9366625737953029  0.43073572410646227  0.5635443323253926  1.0000
  C   C22       1.0  0.06333178718075061  0.5692606075021872  0.4364544821928292  1.0000
  C   C23       1.0  0.1031510614218121  0.45794935814850396  0.42027344153055424  1.0000
  C   C24       1.0  0.8968467125480046  0.542047931990453  0.5797266326417871  1.0000
  C   C25       1.0  0.42332306161469546  0.3860777969457915  0.11696221901055284  1.0000
  C   C26       1.0  0.5766754969555876  0.6139223687841024  0.8830349254776027  1.0000
  C   C27       1.0  0.20002499773779187  0.27622638925482335  0.058515023586146214  1.0000
  C   C28       1.0  0.7999717213924669  0.723774735005378  0.9414875409901388  1.0000
  C   C29       1.0  0.38894336419154035  0.1442453922880773  0.005931401298291006  1.0000
  C   C30       1.0  0.6110562448654945  0.8557547734418165  0.9940690868171134  1.0000
  C   C31       1.0  0.5410626255038906  0.1635779901181635  0.05894393505403172  1.0000
  C   C32       1.0  0.45893435951265366  0.8364202585511081  0.9410557162627814  1.0000
  C   C33       1.0  0.654087388940212  0.19596001959378387  0.9954023466128421  1.0000
  C   C34       1.0  0.3459106422102919  0.8040420631967322  0.004597295791498352  1.0000
  C   C35       1.0  0.7985835951367547  0.2237947812769505  0.04122655596170691  1.0000
  C   C36       1.0  0.20141469754723573  0.7762082600438732  0.9587718315003004  1.0000
  C   C37       1.0  0.8311398870862945  0.21743301560695022  0.15184177245931352  1.0000
  C   C38       1.0  0.16885945608444788  0.7825700257138736  0.8481566180587026  1.0000
  C   C39       1.0  0.7198127254695165  0.1836496148175542  0.21501601989948685  1.0000
  C   C40       1.0  0.2801879253686792  0.8163582191548215  0.7849844473349709  1.0000
  C   C41       1.0  0.574192478870259  0.1572200585694006  0.17052038725228166  1.0000
  C   C42       1.0  0.42580713018677574  0.8427801071604861  0.8294784305775096  1.0000
  C   C43       1.0  0.4585363618053506  0.12357947879625192  0.24516856758834393  1.0000
  C   C44       1.0  0.5414656141114946  0.8764178113427122  0.7548298485224195  1.0000
  C   C45       1.0  0.5217665849802698  0.19241633303629874  0.475448116761804  1.0000
  C   C46       1.0  0.47823460198330975  0.8075819156329658  0.5245498764934241  1.0000
  C   C47       1.0  0.4990624758715469  0.344113339957282  0.42681733687738443  1.0000
  C   C48       1.0  0.5009397615787847  0.6558849087119825  0.5731814945766587  1.0000
  N   N1        1.0  0.33756811442584217  0.4663805907586251  0.14561007733469472  1.0000
  N   N2        1.0  0.6624307056779273  0.5336205335015762  0.8543883176395611  1.0000
  N   N3        1.0  0.1954682915126469  0.397635755428368  0.10902346456912679  1.0000
  N   N4        1.0  0.804530790124609  0.6023663273621409  0.890977016034036  1.0000
  N   N5        1.0  0.3398725191922836  0.264288852769333  0.06272808304139942  1.0000
  N   N6        1.0  0.6601260393779995  0.7357113129605608  0.9372707317323759  1.0000
  N   N7        1.0  0.4889974622739643  0.21506544574030784  0.37760009978674003  1.0000
  N   N8        1.0  0.5110016237160977  0.7849328029289638  0.6223978873564704  1.0000
  N   N9        1.0  0.5343592047905473  0.398608663693409  0.5482596095075323  1.0000
  N   N10       1.0  0.4656440831465432  0.6013895849758626  0.45173922500251973  1.0000
  N   N11       1.0  0.548927882940788  0.3023741375917197  0.5782137353727492  1.0000
  N   N12       1.0  0.4510775059698203  0.6976241110775518  0.42178427010652103  1.0000
  O   O1        1.0  0.6873033923490581  0.6094527419467966  0.2198894018130488  1.0000
  O   O2        1.0  0.31269752872822204  0.3905483823134048  0.780109834416031  1.0000
  O   O3        1.0  0.5762984640720674  0.7519440237668746  0.20260469290543176  1.0000
  O   O4        1.0  0.4237035074919717  0.24805710049332672  0.7973937112368503  1.0000
  O   O5        1.0  0.22568280436106383  0.7165042826011359  0.23119037087163727  1.0000
  O   O6        1.0  0.774325204237236  0.2834997172499953  0.7688092945805494  1.0000
  O   O7        1.0  0.3464237848787802  0.919492246430636  0.3608760815127782  1.0000
  O   O8        1.0  0.6535758241782615  0.0805079192992579  0.6391352634591457  1.0000
  O   O9        1.0  0.9483556923626536  0.1648077845063796  0.4131394193083723  1.0000
  O   O10       1.0  0.051644971533939134  0.8351885471022699  0.5868635892599486  1.0000
