data_image0
_chemical_formula_structural       K2H32C30N2O6
_chemical_formula_sum              "K2 H32 C30 N2 O6"
_cell_length_a       6.9772484947524545
_cell_length_b       7.018398742006904
_cell_length_c       16.036590582016213
_cell_angle_alpha    94.99249710981691
_cell_angle_beta     96.019321636987
_cell_angle_gamma    114.17506134369991

_space_group_name_H-M_alt    "P 1"
_space_group_IT_number       1

loop_
  _space_group_symop_operation_xyz
  'x, y, z'

loop_
  _atom_site_type_symbol
  _atom_site_label
  _atom_site_symmetry_multiplicity
  _atom_site_fract_x
  _atom_site_fract_y
  _atom_site_fract_z
  _atom_site_occupancy
  K   K1        1.0  0.17634691582406958  0.3811396449900855  0.4612321266001229  1.0000
  K   K2        1.0  0.8236539590835861  0.6188697806362526  0.5387676812938194  1.0000
  H   H1        1.0  0.6067943217179348  0.8549430867314028  0.42933932626545596  1.0000
  H   H2        1.0  0.3931989774892841  0.1450553031561626  0.5706603730835267  1.0000
  H   H3        1.0  0.5738032528321355  0.6466719062025064  0.3712754622068599  1.0000
  H   H4        1.0  0.42619216029653734  0.3533280597112097  0.6287243832278332  1.0000
  H   H5        1.0  0.17893954686641686  0.3066619933449246  0.19009397654537702  1.0000
  H   H6        1.0  0.8210530993821478  0.6933348250950715  0.8099062593043909  1.0000
  H   H7        1.0  0.8881894662789022  0.990497067456957  0.22425457245307698  1.0000
  H   H8        1.0  0.11180169964084999  0.009506115607699395  0.7757502157051942  1.0000
  H   H9        1.0  0.9644840884508881  0.7902173978252022  0.33618793820037485  1.0000
  H   H10       1.0  0.035512715059411386  0.2097921132476656  0.6638191927245953  1.0000
  H   H11       1.0  0.332792984105339  0.9072728054062081  0.4083017106785646  1.0000
  H   H12       1.0  0.6672059222433475  0.0927350904790387  0.5917023241652541  1.0000
  H   H13       1.0  0.7290907196093883  0.48883903100070103  0.2950642098722226  1.0000
  H   H14       1.0  0.2709054184591508  0.511159341595416  0.7049343557722875  1.0000
  H   H15       1.0  0.6087399925091717  0.9416711948359832  0.02212355092848379  1.0000
  H   H16       1.0  0.3912683920730656  0.05832556817397719  0.977874197862931  1.0000
  H   H17       1.0  0.3870466423227298  0.9384590825864122  0.13562225493454594  1.0000
  H   H18       1.0  0.612958033095836  0.06153924474752869  0.8643735343159302  1.0000
  H   H19       1.0  0.37293632347363104  0.7146969869297736  0.24872500373945158  1.0000
  H   H20       1.0  0.6270612644746478  0.2852981990311534  0.7512710023246921  1.0000
  H   H21       1.0  0.9894827151650888  0.5456204855365739  0.15087132361072256  1.0000
  H   H22       1.0  0.01052059343801654  0.4543810548811677  0.8491295240976054  1.0000
  H   H23       1.0  0.7979978355362435  0.36721785958492603  0.06701620247496007  1.0000
  H   H24       1.0  0.20201197955970673  0.6327820859930923  0.9329842216310875  1.0000
  H   H25       1.0  0.7660506547669428  0.32934393045737653  0.17362286892905118  1.0000
  H   H26       1.0  0.23395625916948148  0.6706560125756268  0.8263768147233602  1.0000
  H   H27       1.0  0.8388196804506193  0.8313469450975501  0.9580119052015089  1.0000
  H   H28       1.0  0.16118507803221863  0.1686514086850011  0.04198638292644569  1.0000
  H   H29       1.0  0.7835399216708298  0.5620205909784346  0.9622731694095489  1.0000
  H   H30       1.0  0.2164662770087347  0.4379777607705435  0.03772517658554619  1.0000
  H   H31       1.0  0.00748566466099722  0.7620532455002048  0.028026781920722478  1.0000
  H   H32       1.0  0.9925184408631863  0.23794353683477  0.9719720427080245  1.0000
  C   C1        1.0  0.6884560639578722  0.2350194838453561  0.3879453494699232  1.0000
  C   C2        1.0  0.3115378577589211  0.7649836554792555  0.6120558061063972  1.0000
  C   C3        1.0  0.4682436461469023  0.17132585968652583  0.3412433016109019  1.0000
  C   C4        1.0  0.531752461472557  0.828675690899068  0.6587572567617453  1.0000
  C   C5        1.0  0.42251954720399715  0.2897608534139167  0.28007447152026527  1.0000
  C   C6        1.0  0.5774751506678159  0.7102375212157738  0.7199240362571042  1.0000
  C   C7        1.0  0.21260295884623304  0.2180460760907792  0.2375308764438485  1.0000
  C   C8        1.0  0.7873918220898587  0.7819523249875217  0.7624701302109994  1.0000
  C   C9        1.0  0.0494520690967732  0.0399572615004047  0.25699561161385265  1.0000
  C   C10       1.0  0.9505411692122934  0.9600474843661005  0.7430080731913973  1.0000
  C   C11       1.0  0.0914416537118825  0.9266130071404106  0.31875292018401047  1.0000
  C   C12       1.0  0.9085530247939104  0.07339173669253539  0.6812508224883725  1.0000
  C   C13       1.0  0.29914755242818797  0.9924450585253126  0.3594150740116503  1.0000
  C   C14       1.0  0.7008492399990515  0.007561261333776796  0.6405888147464507  1.0000
  C   C15       1.0  0.5752588458277402  0.5860062603375411  0.19659028814279364  1.0000
  C   C16       1.0  0.42473947814346497  0.4139905235195655  0.8034076802980362  1.0000
  C   C17       1.0  0.696413718590101  0.5827385689821865  0.13193234319660965  1.0000
  C   C18       1.0  0.3035889467373566  0.41725821538636154  0.8680664235649967  1.0000
  C   C19       1.0  0.7075448796296727  0.7132667270811694  0.06870622452857586  1.0000
  C   C20       1.0  0.29245853140372446  0.2867284705819344  0.9312918871622241  1.0000
  C   C21       1.0  0.5953371410822257  0.8389979185625832  0.07057352886018717  1.0000
  C   C22       1.0  0.4046669229098256  0.16099885054808985  0.9294240463298205  1.0000
  C   C23       1.0  0.4713854312108623  0.8373923327289247  0.13377588778499924  1.0000
  C   C24       1.0  0.5286171510523232  0.162604425191013  0.8662203800991288  1.0000
  C   C25       1.0  0.46182167439542354  0.7111281221495105  0.19705121366868628  1.0000
  C   C26       1.0  0.5381758927867892  0.288867057199262  0.8029441676760878  1.0000
  C   C27       1.0  0.8177540044653994  0.4486269956500947  0.13111697781373263  1.0000
  C   C28       1.0  0.18225083708171755  0.55137138458106  0.8688838091917004  1.0000
  C   C29       1.0  0.8410314292512454  0.7181632482019041  0.0006330329625683043  1.0000
  C   C30       1.0  0.15897346351101044  0.2818319606519281  0.999366386034104  1.0000
  N   N1        1.0  0.5832085856866553  0.4755073179096527  0.2659147439688353  1.0000
  N   N2        1.0  0.4167882980878161  0.5244894679810201  0.7340831666048613  1.0000
  O   O1        1.0  0.8353216990534164  0.4154742418199291  0.3798981418926174  1.0000
  O   O2        1.0  0.16467438779997678  0.5845273021535106  0.6201017917606604  1.0000
  O   O3        1.0  0.7253166045057996  0.11410363428066718  0.4356033416875744  1.0000
  O   O4        1.0  0.27468161703511373  0.8858994923310772  0.5643973627707835  1.0000
  O   O5        1.0  0.5515266459316734  0.6973871009356144  0.4269660856961861  1.0000
  O   O6        1.0  0.4484687671969994  0.3026128649781085  0.5730337597385071  1.0000
