data_image0
_chemical_formula_structural       Zn2H16C22N4O10
_chemical_formula_sum              "Zn2 H16 C22 N4 O10"
_cell_length_a       7.7022073885392315
_cell_length_b       8.478786203340997
_cell_length_c       9.645333498780662
_cell_angle_alpha    114.72313475359354
_cell_angle_beta     91.47538024175621
_cell_angle_gamma    106.25775585791158

_space_group_name_H-M_alt    "P 1"
_space_group_IT_number       1

loop_
  _space_group_symop_operation_xyz
  'x, y, z'

loop_
  _atom_site_type_symbol
  _atom_site_label
  _atom_site_symmetry_multiplicity
  _atom_site_fract_x
  _atom_site_fract_y
  _atom_site_fract_z
  _atom_site_occupancy
  Zn  Zn1       1.0  0.2527823208850037  0.8917951446879543  0.7031089977016125  1.0000
  Zn  Zn2       1.0  0.7472243504514535  0.10821062448276558  0.2968958148916485  1.0000
  H   H1        1.0  0.3243633777561001  0.5854890259996993  0.6169259112371321  1.0000
  H   H2        1.0  0.6756215666066511  0.41450957162340535  0.38307755296288803  1.0000
  H   H3        1.0  0.511887088717188  0.7640610418217051  0.7204778420693289  1.0000
  H   H4        1.0  0.48810924953194496  0.23593645443957456  0.2795224196132722  1.0000
  H   H5        1.0  0.8992254608432187  0.6662916615473337  0.8513087778650856  1.0000
  H   H6        1.0  0.1007643681944117  0.33371820285712767  0.1486919388416865  1.0000
  H   H7        1.0  0.17290367642632987  0.9464913292221195  0.32098557650287773  1.0000
  H   H8        1.0  0.8270914545252595  0.053498005596175305  0.6790104470610102  1.0000
  H   H9        1.0  0.7049036589618891  0.46403262601228323  0.18137824095558847  1.0000
  H   H10       1.0  0.2951106475184702  0.5359639319545195  0.8186170010126901  1.0000
  H   H11       1.0  0.6835012860908163  0.4772655930069761  0.691012034088068  1.0000
  H   H12       1.0  0.316510024076237  0.5227254696420544  0.3089809882000409  1.0000
  H   H13       1.0  0.41419052901621717  0.14469525465379726  0.531024353452139  1.0000
  H   H14       1.0  0.5858277786529414  0.855297340911072  0.4689673953879634  1.0000
  H   H15       1.0  0.5201737695383313  0.22843597529883644  0.991411294477558  1.0000
  H   H16       1.0  0.47981617759712236  0.7715699206565815  0.00858477473748566  1.0000
  C   C1        1.0  0.7818671121059353  0.5497448170279995  0.0024206678075558733  1.0000
  C   C2        1.0  0.21813711042297257  0.450248722878456  0.9975772551104214  1.0000
  C   C3        1.0  0.9059655508846234  0.6764096367688239  0.967330297844761  1.0000
  C   C4        1.0  0.09403597413974299  0.32358788146333944  0.03267116288596133  1.0000
  C   C5        1.0  0.04793292801579703  0.8196178054856913  0.08121055999372835  1.0000
  C   C6        1.0  0.9520684601587275  0.1803960872333548  0.9187972469855694  1.0000
  C   C7        1.0  0.06326925154916563  0.8358241099393241  0.23133802751733873  1.0000
  C   C8        1.0  0.9367214363043388  0.1641802234702467  0.768662644182676  1.0000
  C   C9        1.0  0.9389214387583282  0.7067380422786087  0.2666009588119423  1.0000
  C   C10       1.0  0.06107801390194109  0.2932609808514072  0.7333968750591069  1.0000
  C   C11       1.0  0.7982972090135264  0.5634566896660544  0.15184023535217517  1.0000
  C   C12       1.0  0.20170442785798312  0.4365409954630195  0.848157144139101  1.0000
  C   C13       1.0  0.18484573984465405  0.9420799310184903  0.02939032939701042  1.0000
  C   C14       1.0  0.8151444906391275  0.0579271261643015  0.9706113851162497  1.0000
  C   C15       1.0  0.9599809686390158  0.7170583813356827  0.4263582768759591  1.0000
  C   C16       1.0  0.040022796520162295  0.28293788234399386  0.5736406888552636  1.0000
  C   C17       1.0  0.6109490863217244  0.3784981428167598  0.7301908266993208  1.0000
  C   C18       1.0  0.3890547906846037  0.6214982877598274  0.2698040577924559  1.0000
  C   C19       1.0  0.47844667402505064  0.21196029763853363  0.650895454805692  1.0000
  C   C20       1.0  0.5215580213340232  0.7880388309108212  0.34910153749375183  1.0000
  C   C21       1.0  0.53081618009859  0.25152107533526197  0.8889946444239314  1.0000
  C   C22       1.0  0.4691949994692949  0.748482226454705  0.11100415786047098  1.0000
  N   N1        1.0  0.4307819327716159  0.1348194335191621  0.7508974529862016  1.0000
  N   N2        1.0  0.5692208554738657  0.8651863296044482  0.24910620524351407  1.0000
  N   N3        1.0  0.6436408367793051  0.4023319593198877  0.8815691638871002  1.0000
  N   N4        1.0  0.3563712358169155  0.5976617178534552  0.1184280068283954  1.0000
  O   O1        1.0  0.15579310772312743  0.8818978258612944  0.88124319491709  1.0000
  O   O2        1.0  0.8441919919089995  0.11810929279906901  0.11875527992832961  1.0000
  O   O3        1.0  0.3106262692029844  0.08210452805414548  0.12216730065747329  1.0000
  O   O4        1.0  0.6893613104900639  0.9178941431407424  0.877835232601811  1.0000
  O   O5        1.0  0.10592805904672534  0.843027738437307  0.5163802627233026  1.0000
  O   O6        1.0  0.8940739855216078  0.15696300412414393  0.4836175483221723  1.0000
  O   O7        1.0  0.8438117290212757  0.6099995868762491  0.46285573005047814  1.0000
  O   O8        1.0  0.1561881872593887  0.3899925771345992  0.5371404947550502  1.0000
  O   O9        1.0  0.39981900138947424  0.7154745157796468  0.6431758958558546  1.0000
  O   O10       1.0  0.6001815871843303  0.2845242729287847  0.3568281045589289  1.0000
