data_image0
_chemical_formula_structural       La2H20C12O22
_chemical_formula_sum              "La2 H20 C12 O22"
_cell_length_a       6.2353333316886586
_cell_length_b       7.350942746180807
_cell_length_c       12.322053577915254
_cell_angle_alpha    73.84301381830636
_cell_angle_beta     88.15513454476397
_cell_angle_gamma    89.41250488401113

_space_group_name_H-M_alt    "P 1"
_space_group_IT_number       1

loop_
  _space_group_symop_operation_xyz
  'x, y, z'

loop_
  _atom_site_type_symbol
  _atom_site_label
  _atom_site_symmetry_multiplicity
  _atom_site_fract_x
  _atom_site_fract_y
  _atom_site_fract_z
  _atom_site_occupancy
  La  La1       1.0  0.595631248409532  0.0759701601705771  0.5598781661926183  1.0000
  La  La2       1.0  0.7512191490198888  0.763920913454527  0.13862841476973392  1.0000
  H   H1        1.0  0.1406237111785487  0.6030987831769749  0.40820623013837587  1.0000
  H   H2        1.0  0.022866227408499595  0.5993642970532066  0.5901828015051934  1.0000
  H   H3        1.0  0.22263164188628787  0.15640261560830027  0.293276244915738  1.0000
  H   H4        1.0  0.3250160385477017  0.3294683005264504  0.10805515341263572  1.0000
  H   H5        1.0  0.32277823324839267  0.6343028937089272  0.9292293731220841  1.0000
  H   H6        1.0  0.04901647344834001  0.631357656247694  0.7700307843150898  1.0000
  H   H7        1.0  0.8650453404268318  0.9250276164095935  0.3336555795154794  1.0000
  H   H8        1.0  0.6839054981816444  0.6528104997458616  0.6171513858354489  1.0000
  H   H9        1.0  0.4936779132668719  0.4121692170057755  0.3646588964468265  1.0000
  H   H10       1.0  0.6804631512459379  0.3860549131970928  0.09052085249130222  1.0000
  H   H11       1.0  0.5576848007831002  0.35437922703122376  0.9397829722085191  1.0000
  H   H12       1.0  0.1523458037325867  0.24354453611744734  0.8628671566107542  1.0000
  H   H13       1.0  0.2308204067421755  0.30059509115256583  0.6812067042336951  1.0000
  H   H14       1.0  0.15611706132798991  0.1919749658058691  0.593116713152348  1.0000
  H   H15       1.0  0.6259302014618555  0.29936854947261793  0.7446632267985862  1.0000
  H   H16       1.0  0.8476046938684264  0.2072395027082052  0.7598140783142002  1.0000
  H   H17       1.0  0.43843765938993334  0.02447982261331561  0.9717712318362859  1.0000
  H   H18       1.0  0.6214641924578999  0.023997824089363497  0.8811149388541184  1.0000
  H   H19       1.0  0.006409012522077299  0.1406045768350737  0.04911063513124962  1.0000
  H   H20       1.0  0.16954248885966897  0.9710229428836286  0.11235730192858286  1.0000
  C   C1        1.0  0.8041635367734512  0.5304158485247257  0.41744825342330233  1.0000
  C   C2        1.0  0.985158663091063  0.6731459321178407  0.41251666403329795  1.0000
  C   C3        1.0  0.9628608239613571  0.7240861721135516  0.5258166680830954  1.0000
  C   C4        1.0  0.09694849790125912  0.8940912875948613  0.5324372584959889  1.0000
  C   C5        1.0  0.5602196062403024  0.0974128750787955  0.2802810227516872  1.0000
  C   C6        1.0  0.3754192038203641  0.2331693910456849  0.2863174432620141  1.0000
  C   C7        1.0  0.3870886917696835  0.38908683261696086  0.17324669194336206  1.0000
  C   C8        1.0  0.25115962476471043  0.5627389157027665  0.17457495180944704  1.0000
  C   C9        1.0  0.4657665338251391  0.6352753983260229  0.7694834218002884  1.0000
  C   C10       1.0  0.3265426818915175  0.5388063379661716  0.8742787873565163  1.0000
  C   C11       1.0  0.09341241640434822  0.5109733293396985  0.8409832622215276  1.0000
  C   C12       1.0  0.9310218508548543  0.5094457142150902  0.938707338046406  1.0000
  O   O1        1.0  0.7960462146610894  0.3822719499926706  0.4992112198941712  1.0000
  O   O2        1.0  0.6668768582108056  0.5741421662116082  0.3395139005315501  1.0000
  O   O3        1.0  0.9707814804543204  0.8311746697851349  0.3149169332781483  1.0000
  O   O4        1.0  0.7439444241716585  0.7575563649069466  0.5500238743353593  1.0000
  O   O5        1.0  0.9971045878713981  0.0224113128261152  0.5664810079768117  1.0000
  O   O6        1.0  0.2943613972851225  0.8946250075041319  0.5080094281383724  1.0000
  O   O7        1.0  0.6947991394899374  0.0660158497252823  0.35929117631757634  1.0000
  O   O8        1.0  0.5740472255167361  0.03097437121419939  0.19607423476692534  1.0000
  O   O9        1.0  0.38896988064697513  0.3013755297307129  0.3831075309236739  1.0000
  O   O10       1.0  0.6031601230313655  0.4490599457815848  0.14367335236085674  1.0000
  O   O11       1.0  0.3466620168796338  0.7205489854312502  0.15776721603589297  1.0000
  O   O12       1.0  0.05110713508832989  0.5359843704717591  0.1897670839285865  1.0000
  O   O13       1.0  0.45641134499108205  0.8132442113831786  0.7339462424422083  1.0000
  O   O14       1.0  0.5812967016995856  0.5280595857952478  0.7252541039009444  1.0000
  O   O15       1.0  0.40058479723509066  0.35365029018796434  0.9311710761318467  1.0000
  O   O16       1.0  0.08389740776976852  0.342773938635041  0.8035394650851234  1.0000
  O   O17       1.0  0.9005410607163994  0.6650976388041485  0.9602454080404075  1.0000
  O   O18       1.0  0.8384297753825648  0.3516311598544561  0.9894401339429567  1.0000
  O   O19       1.0  0.2813805660123805  0.2538948249778911  0.6174193105733751  1.0000
  O   O20       1.0  0.698996348071887  0.1750944566159589  0.7478793631385658  1.0000
  O   O21       1.0  0.5705566389198466  0.9597273374507367  0.9598222780241559  1.0000
  O   O22       1.0  0.05842981053803699  0.010498854414784396  0.055426549897781306  1.0000
