data_image0
_chemical_formula_structural       Al4H12C8O20
_chemical_formula_sum              "Al4 H12 C8 O20"
_cell_length_a       6.71865206167099
_cell_length_b       6.718609093134502
_cell_length_c       10.054269221675428
_cell_angle_alpha    100.69440356113707
_cell_angle_beta     100.69453897610703
_cell_angle_gamma    97.10553809516502

_space_group_name_H-M_alt    "P 1"
_space_group_IT_number       1

loop_
  _space_group_symop_operation_xyz
  'x, y, z'

loop_
  _atom_site_type_symbol
  _atom_site_label
  _atom_site_symmetry_multiplicity
  _atom_site_fract_x
  _atom_site_fract_y
  _atom_site_fract_z
  _atom_site_occupancy
  Al  Al1       1.0  0.7801064965501965  0.21756660878961037  0.7494037469676869  1.0000
  Al  Al2       1.0  0.7824334569843002  0.21989299969144577  0.250595266740639  1.0000
  Al  Al3       1.0  0.7804953620719531  0.717712958248647  0.7494768460936355  1.0000
  Al  Al4       1.0  0.28228724063959737  0.21950446004257174  0.2505236329628103  1.0000
  H   H1        1.0  0.2624282050744426  0.0016411355438492997  0.6578570306520602  1.0000
  H   H2        1.0  0.9983552643519503  0.7375721763673228  0.342143281530312  1.0000
  H   H3        1.0  0.47488752897759656  0.832387043754238  0.41130298440648244  1.0000
  H   H4        1.0  0.16760679185848204  0.5251106335402297  0.5886960244209191  1.0000
  H   H5        1.0  0.0866755776913593  0.6025990230520221  0.08726093751294427  1.0000
  H   H6        1.0  0.3974042867728613  0.9133255409649337  0.9127394095317239  1.0000
  H   H7        1.0  0.8259999923782501  0.42913051887141757  0.5799456989667887  1.0000
  H   H8        1.0  0.5708659370161656  0.17399744855586616  0.42005342335109214  1.0000
  H   H9        1.0  0.7372735256564764  0.0071036658042445  0.9194897296502658  1.0000
  H   H10       1.0  0.9928966194971593  0.26272946998624036  0.0805109286179189  1.0000
  H   H11       1.0  0.29622545968651787  0.43306379135255907  0.8379556191859547  1.0000
  H   H12       1.0  0.5669368419749787  0.703771358228245  0.16204232428545842  1.0000
  C   C1        1.0  0.10888726140304783  0.9865712773517712  0.6827439494414022  1.0000
  C   C2        1.0  0.01341868318085203  0.8911104703729078  0.3172559175711098  1.0000
  C   C3        1.0  0.5731355507095444  0.8748835765324966  0.5162706693824999  1.0000
  C   C4        1.0  0.1251041860994491  0.4268697701457214  0.4837305262685731  1.0000
  C   C5        1.0  0.9879984191098075  0.5600551833182265  0.9824131457699249  1.0000
  C   C6        1.0  0.4399563551684125  0.012001667521424496  0.017584205018010803  1.0000
  C   C7        1.0  0.45095327190932716  0.44865512764974375  0.8148595209584852  1.0000
  C   C8        1.0  0.5513539871773929  0.5490511502377088  0.18514055370965812  1.0000
  O   O1        1.0  0.807371400944987  0.45010634610601125  0.6762257981954958  1.0000
  O   O2        1.0  0.5498885880408153  0.1926279620274087  0.3237753163857561  1.0000
  O   O3        1.0  0.03802315679009642  0.8130643027216704  0.7024258803344663  1.0000
  O   O4        1.0  0.18694081928181558  0.9619793623111901  0.29757257011821264  1.0000
  O   O5        1.0  0.7532915937722394  0.9852880398479229  0.8226809185775817  1.0000
  O   O6        1.0  0.014711396086397604  0.24670795420028918  0.17731909133370036  1.0000
  O   O7        1.0  0.6109076217449568  0.06710872082602748  0.5715774300549368  1.0000
  O   O8        1.0  0.9328911604362062  0.3890930856492573  0.42842069300297675  1.0000
  O   O9        1.0  0.6345117077707699  0.7319759752447439  0.5694170808213312  1.0000
  O   O10       1.0  0.26803554471693747  0.36548862375536817  0.4305767040132407  1.0000
  O   O11       1.0  0.024302107950447304  0.14586965122982318  0.6881962765512666  1.0000
  O   O12       1.0  0.8541326678802718  0.9756970960736167  0.3118031778572428  1.0000
  O   O13       1.0  0.9492816270256698  0.36775188682890547  0.9273439613863488  1.0000
  O   O14       1.0  0.6322500668600313  0.05071598151949531  0.07265706361071267  1.0000
  O   O15       1.0  0.9271078787769936  0.7031677253060521  0.9292568054527803  1.0000
  O   O16       1.0  0.29682991253362445  0.072903857119897  0.07074699511365169  1.0000
  O   O17       1.0  0.522760543565461  0.6225256042159159  0.7961571499890565  1.0000
  O   O18       1.0  0.37747241055421193  0.47724007311423117  0.20384794328975175  1.0000
  O   O19       1.0  0.5356607763511718  0.2894465582446486  0.8100416684685071  1.0000
  O   O20       1.0  0.7105514853844426  0.4643401087044409  0.18995789513349584  1.0000
