data_image0
_chemical_formula_structural       Zn2H18C34N4Cl6O6
_chemical_formula_sum              "Zn2 H18 C34 N4 Cl6 O6"
_cell_length_a       8.234436089749774
_cell_length_b       10.698871893654848
_cell_length_c       12.397399495197817
_cell_angle_alpha    73.68799759988548
_cell_angle_beta     73.7254389321752
_cell_angle_gamma    75.79824481734322

_space_group_name_H-M_alt    "P 1"
_space_group_IT_number       1

loop_
  _space_group_symop_operation_xyz
  'x, y, z'

loop_
  _atom_site_type_symbol
  _atom_site_label
  _atom_site_symmetry_multiplicity
  _atom_site_fract_x
  _atom_site_fract_y
  _atom_site_fract_z
  _atom_site_occupancy
  Zn  Zn1       1.0  0.671125451085473  0.6476090540901114  0.40435070471045986  1.0000
  Zn  Zn2       1.0  0.3288726271044027  0.35239025528962037  0.5956487928278734  1.0000
  H   H1        1.0  0.2656650789274336  0.2288128763170434  0.1853243696220588  1.0000
  H   H2        1.0  0.7343347619143046  0.771184427398943  0.8146809239713234  1.0000
  H   H3        1.0  0.43075164128836735  0.6729321360506121  0.2543964480008256  1.0000
  H   H4        1.0  0.5692518777589516  0.3270710973914888  0.7456010732566581  1.0000
  H   H5        1.0  0.34193865523376826  0.8228304564175417  0.08071733071706431  1.0000
  H   H6        1.0  0.6580656911293802  0.17717474748518214  0.9192803655344193  1.0000
  H   H7        1.0  0.7225926170037412  0.05139698509673712  0.060234373959950446  1.0000
  H   H8        1.0  0.2774181289509982  0.9486022509697069  0.9397627421310163  1.0000
  H   H9        1.0  0.7928532640980137  0.8927736578439254  0.23318841050524944  1.0000
  H   H10       1.0  0.2071504993610702  0.10722857771575181  0.7668117248934723  1.0000
  H   H11       1.0  0.043160392456869055  0.6702618370864786  0.3880013080117166  1.0000
  H   H12       1.0  0.956841824554765  0.3297414165247474  0.611992421803933  1.0000
  H   H13       1.0  0.19525449127082334  0.8226713577891617  0.42465086581685096  1.0000
  H   H14       1.0  0.8047422332778853  0.1773338978042105  0.5753458415511048  1.0000
  H   H15       1.0  0.6948641760125724  0.04720459033528362  0.5491191421796273  1.0000
  H   H16       1.0  0.3051284542680222  0.9527907975496391  0.4508815257222452  1.0000
  H   H17       1.0  0.5670082608763279  0.8804963689131071  0.512528426904659  1.0000
  H   H18       1.0  0.4329896386109411  0.11949800716942605  0.4874690670556135  1.0000
  C   C1        1.0  0.7903877852890774  0.34901458621746434  0.3327818363410132  1.0000
  C   C2        1.0  0.2096092634842391  0.6509837351787341  0.6672197075659769  1.0000
  C   C3        1.0  0.8320228924102508  0.24514427912956901  0.2763304557355397  1.0000
  C   C4        1.0  0.16797693432780386  0.754853029721538  0.7236732260232159  1.0000
  C   C5        1.0  0.0025479900049915905  0.20129110895274493  0.22313428353186282  1.0000
  C   C6        1.0  0.9974520881966743  0.7987051994483707  0.7768728182854474  1.0000
  C   C7        1.0  0.13236474126522785  0.26310610225433356  0.2255211756682272  1.0000
  C   C8        1.0  0.8676355531408431  0.7368892185345859  0.7744853166210676  1.0000
  C   C9        1.0  0.09120075878783498  0.36941294167430533  0.27761213605172946  1.0000
  C   C10       1.0  0.908798024429977  0.6305833843283751  0.7223919802410634  1.0000
  C   C11       1.0  0.9185164903693209  0.4191796867999998  0.33124699805613744  1.0000
  C   C12       1.0  0.0814805725076795  0.5808186294610708  0.6687561576854861  1.0000
  C   C13       1.0  0.6124881738895243  0.387403833099512  0.40157816060513335  1.0000
  C   C14       1.0  0.3875107316161816  0.6125974467408426  0.5984215119271923  1.0000
  C   C15       1.0  0.49056806122116836  0.7589171101706712  0.2080495326087259  1.0000
  C   C16       1.0  0.5094352345698995  0.2410871134511794  0.7919477922594708  1.0000
  C   C17       1.0  0.4430020915420485  0.8438589234462841  0.1101020610881419  1.0000
  C   C18       1.0  0.5570024710255126  0.15614529284424353  0.8898950256353119  1.0000
  C   C19       1.0  0.5239376703121364  0.9533275895087744  0.05214371955946712  1.0000
  C   C20       1.0  0.47607263618195367  0.046673624349615694  0.9478538096702351  1.0000
  C   C21       1.0  0.6527003674292831  0.9696486481905211  0.09831548967465416  1.0000
  C   C22       1.0  0.34730634083607004  0.03035160518478361  0.9016805326265998  1.0000
  C   C23       1.0  0.6936861857038535  0.8803192184881752  0.1964928886636131  1.0000
  C   C24       1.0  0.3063190607361293  0.11968202212797514  0.8035063990623501  1.0000
  C   C25       1.0  0.9724482421747144  0.7564352710890319  0.4225198818859822  1.0000
  C   C26       1.0  0.027551685695712497  0.2435669993024163  0.5774769383603698  1.0000
  C   C27       1.0  0.05531847250563966  0.8431160258159667  0.44324375685006606  1.0000
  C   C28       1.0  0.9446776479834896  0.1568862691370327  0.5567529719131841  1.0000
  C   C29       1.0  0.958851562541128  0.9519791400901099  0.48919214839568775  1.0000
  C   C30       1.0  0.04114628534066611  0.048021162036938805  0.5108063468360413  1.0000
  C   C31       1.0  0.7790501571777286  0.965002815099794  0.5145014295227454  1.0000
  C   C32       1.0  0.220941185170858  0.0349925878191399  0.4854970587719195  1.0000
  C   C33       1.0  0.7058296530380304  0.8741554753990572  0.4920925475968758  1.0000
  C   C34       1.0  0.2941699081327371  0.1258428390371549  0.5079061022686986  1.0000
  N   N1        1.0  0.6142458111880272  0.7764208955421524  0.251345217374663  1.0000
  N   N2        1.0  0.38575667139089387  0.22358135248396852  0.7486535443341681  1.0000
  N   N3        1.0  0.7997139516868047  0.7720009489007114  0.4455852102308242  1.0000
  N   N4        1.0  0.20028560243212473  0.22799736810305407  0.5544126337174404  1.0000
  Cl  Cl1       1.0  0.6696887282786791  0.1747090296108382  0.2668464683015372  1.0000
  Cl  Cl2       1.0  0.3303113217156266  0.8252872890605122  0.7331574098465197  1.0000
  Cl  Cl3       1.0  0.05583116499633431  0.07218489152786131  0.15361395766297653  1.0000
  Cl  Cl4       1.0  0.9441686758454042  0.9278124121881248  0.846391335930413  1.0000
  Cl  Cl5       1.0  0.2526842859119043  0.4451920875318365  0.27966529535002843  1.0000
  Cl  Cl6       1.0  0.7473125607606832  0.5548072163414304  0.7203384699196248  1.0000
  O   O1        1.0  0.5360813448063056  0.5062199753011498  0.37915836961122557  1.0000
  O   O2        1.0  0.46391777690381286  0.49378031692700847  0.6208406933930775  1.0000
  O   O3        1.0  0.5507465926513576  0.2964661116061366  0.4841050162964322  1.0000
  O   O4        1.0  0.4492510460778618  0.7035351755655483  0.5158948943806294  1.0000
  O   O5        1.0  0.8864056549174253  0.5195016252549963  0.3787004913869794  1.0000
  O   O6        1.0  0.11359117059964058  0.48049768632094475  0.6213008561307234  1.0000
