data_image0
_chemical_formula_structural       Zn2H56C60N2Cl4O8
_chemical_formula_sum              "Zn2 H56 C60 N2 Cl4 O8"
_cell_length_a       16.584055860807663
_cell_length_b       17.773732686936814
_cell_length_c       17.58107026916166
_cell_angle_alpha    90.71448603178143
_cell_angle_beta     95.2703609888381
_cell_angle_gamma    91.97626428658211

_space_group_name_H-M_alt    "P 1"
_space_group_IT_number       1

loop_
  _space_group_symop_operation_xyz
  'x, y, z'

loop_
  _atom_site_type_symbol
  _atom_site_label
  _atom_site_symmetry_multiplicity
  _atom_site_fract_x
  _atom_site_fract_y
  _atom_site_fract_z
  _atom_site_occupancy
  Zn  Zn1       1.0  0.5923704161130561  0.5011387806244016  0.5037874680060455  1.0000
  Zn  Zn2       1.0  0.4121530693333071  0.4980913707092468  0.49620497550203163  1.0000
  H   H1        1.0  0.0029802449139779983  0.41720620246775997  0.517772083487273  1.0000
  H   H2        1.0  0.0009835800190458996  0.5852280017949595  0.4807071266701826  1.0000
  H   H3        1.0  0.5578072591677382  0.5722814086304667  0.9939027560339823  1.0000
  H   H4        1.0  0.4523420003844337  0.42902156381263973  0.0053480764736022045  1.0000
  H   H5        1.0  0.6128617145232766  0.11318907362499428  0.5230087170537132  1.0000
  H   H6        1.0  0.355314688354511  0.1271265136904347  0.5373232677594402  1.0000
  H   H7        1.0  0.6150587044883337  0.894723032127601  0.4916868272665127  1.0000
  H   H8        1.0  0.3560488766512933  0.8589600276706263  0.4479142382155247  1.0000
  H   H9        1.0  0.2866983091952304  0.3374764975138972  0.419496814323459  1.0000
  H   H10       1.0  0.3401344679094365  0.417218274590283  0.3880986286995309  1.0000
  H   H11       1.0  0.2431144100698006  0.39072143277080323  0.3426568834838974  1.0000
  H   H12       1.0  0.1084569478732504  0.3862155568292137  0.3469859259306673  1.0000
  H   H13       1.0  0.046799723577983295  0.3654652014926469  0.4213365015232213  1.0000
  H   H14       1.0  0.1386668840340946  0.318078026736373  0.41501228002682927  1.0000
  H   H15       1.0  0.2866577581232335  0.6555677674402316  0.5658443274839584  1.0000
  H   H16       1.0  0.3624906649884707  0.5911303660398984  0.5918279548219374  1.0000
  H   H17       1.0  0.28102972964160944  0.6020682542930372  0.6492986157232039  1.0000
  H   H18       1.0  0.16245575956084218  0.5848407203419868  0.6625471041219129  1.0000
  H   H19       1.0  0.06503569227773909  0.5682642254373816  0.6137666103732258  1.0000
  H   H20       1.0  0.1282809546415891  0.644916441003616  0.5883169271038113  1.0000
  H   H21       1.0  0.8841013513899512  0.3568638308842083  0.4170420140439006  1.0000
  H   H22       1.0  0.9359479117075509  0.43590535036822325  0.3813174769586496  1.0000
  H   H23       1.0  0.8367312694854263  0.4084702158959245  0.3415694186514102  1.0000
  H   H24       1.0  0.7001257502054018  0.4097979306285565  0.35379037856206  1.0000
  H   H25       1.0  0.648001352044183  0.3891533793664621  0.43466843673959243  1.0000
  H   H26       1.0  0.7389983628014533  0.343637516236754  0.4206852184737286  1.0000
  H   H27       1.0  0.8703878525421017  0.6870050359791405  0.5744374759747471  1.0000
  H   H28       1.0  0.9587937312122036  0.6329950239178217  0.5816064767496769  1.0000
  H   H29       1.0  0.8873678760294297  0.6235770219355459  0.6499860861062104  1.0000
  H   H30       1.0  0.7525040707596276  0.6005671903435967  0.6587786012007798  1.0000
  H   H31       1.0  0.66011732345536  0.5977916150430004  0.5998403970017563  1.0000
  H   H32       1.0  0.7355822807238539  0.6688373905109941  0.5877344783586409  1.0000
  H   H33       1.0  0.6993840422876187  0.5242870594671772  0.7352139969950926  1.0000
  H   H34       1.0  0.6524698582465973  0.445788484926986  0.6841942701224824  1.0000
  H   H35       1.0  0.6992799809427197  0.4351358291180603  0.7785926315201762  1.0000
  H   H36       1.0  0.6953078635310136  0.4484383506054285  0.9088761929173828  1.0000
  H   H37       1.0  0.6659369327426817  0.5290309821084448  0.9573663903723073  1.0000
  H   H38       1.0  0.7137256611476985  0.5385515758084836  0.8714465328708343  1.0000
  H   H39       1.0  0.3173133621753479  0.4268896901110466  0.7706627895834472  1.0000
  H   H40       1.0  0.3602322428613007  0.41550022855989244  0.682145067713904  1.0000
  H   H41       1.0  0.3202842937777319  0.5020275475856834  0.7057637111808006  1.0000
  H   H42       1.0  0.31638390257394616  0.5281361704699421  0.846757883639981  1.0000
  H   H43       1.0  0.3718497103152387  0.5348421925980203  0.9381406238937373  1.0000
  H   H44       1.0  0.3346448777771442  0.44636964654230826  0.9006231823225761  1.0000
  H   H45       1.0  0.6658303410225059  0.5690003833272995  0.10804703700721768  1.0000
  H   H46       1.0  0.6396909650938055  0.47851415026262606  0.0683675612005032  1.0000
  H   H47       1.0  0.6906625235150088  0.4883682304357178  0.1615896207257421  1.0000
  H   H48       1.0  0.6824370358518834  0.5045862697970873  0.2899470691491786  1.0000
  H   H49       1.0  0.6296668566318785  0.5751124382771449  0.3344062399174419  1.0000
  H   H50       1.0  0.6706685015252772  0.5926765510669229  0.24594585874116598  1.0000
  H   H51       1.0  0.2912738619196773  0.4533585273497137  0.1225574211124112  1.0000
  H   H52       1.0  0.3436770394229924  0.456089625099473  0.03914330933577051  1.0000
  H   H53       1.0  0.3096476696827182  0.5398673945718284  0.0776655696423774  1.0000
  H   H54       1.0  0.29394434941968933  0.5515813337891371  0.20807587169546338  1.0000
  H   H55       1.0  0.3364152162006633  0.5491499818913608  0.3048719592751823  1.0000
  H   H56       1.0  0.29904709828202414  0.4653460393382715  0.2566780093890273  1.0000
  C   C1        1.0  0.5039190997121068  0.4927238421662352  0.64600016390564  1.0000
  C   C2        1.0  0.5117871617048947  0.6449953920999575  0.4837297789879855  1.0000
  C   C3        1.0  0.4905311948128102  0.50621652677399  0.3537100788708117  1.0000
  C   C4        1.0  0.5044382283280485  0.3541742044251989  0.5166542824245539  1.0000
  C   C5        1.0  0.2478081276107247  0.5406868509088127  0.5442588464708749  1.0000
  C   C6        1.0  0.16367958696714166  0.5352644701945194  0.5501825340607454  1.0000
  C   C7        1.0  0.11668019411246178  0.480971642847436  0.5048820162374383  1.0000
  C   C8        1.0  0.15567604744837377  0.4328130074425617  0.4568753643994937  1.0000
  C   C9        1.0  0.23951673403369264  0.4428475552986199  0.4525570962992305  1.0000
  C   C10       1.0  0.02785621632965979  0.47323674467236265  0.5060346071134135  1.0000
  C   C11       1.0  0.9761968557195219  0.5291481288408092  0.4923386264282783  1.0000
  C   C12       1.0  0.8483575532203318  0.5700524695211798  0.5412415047387854  1.0000
  C   C13       1.0  0.887498470203191  0.5210735646545074  0.49422464228319285  1.0000
  C   C14       1.0  0.8407984973301339  0.465140782248774  0.45101655303623284  1.0000
  C   C15       1.0  0.7571241407624855  0.4583862342773912  0.45868806016001434  1.0000
  C   C16       1.0  0.7645565133205637  0.559911086679918  0.5460213883089011  1.0000
  C   C17       1.0  0.508113522311099  0.4833703213492058  0.7313297573844864  1.0000
  C   C18       1.0  0.43610769110813413  0.47824731181748353  0.7692657197572998  1.0000
  C   C19       1.0  0.44010673431825614  0.4931034354211334  0.8486265211873842  1.0000
  C   C20       1.0  0.5161421611339351  0.5048748422100432  0.8911910018303928  1.0000
  C   C21       1.0  0.5881083587471779  0.4991267140840419  0.8545266973227896  1.0000
  C   C22       1.0  0.5844419996233299  0.48700289581975653  0.7750959910622797  1.0000
  C   C23       1.0  0.5222597767810483  0.521543081842779  0.9741526865296279  1.0000
  C   C24       1.0  0.4876848582404492  0.47950689146199477  0.026228976854355303  1.0000
  C   C25       1.0  0.4154776275342584  0.49639872871557605  0.142224014129873  1.0000
  C   C26       1.0  0.4898793687265126  0.4955936521131718  0.1089859118282561  1.0000
  C   C27       1.0  0.5631696205258551  0.5116558509171012  0.1549116378648989  1.0000
  C   C28       1.0  0.5619212905223067  0.5236108259456103  0.23415286446318356  1.0000
  C   C29       1.0  0.4880249963341257  0.5156857821324505  0.2683687079172259  1.0000
  C   C30       1.0  0.4137785736533957  0.5094594265451421  0.2212080206603773  1.0000
  C   C31       1.0  0.4995600364132073  0.27055326570259547  0.5325970431193383  1.0000
  C   C32       1.0  0.5673099346796064  0.22414406807259007  0.5324484428283681  1.0000
  C   C33       1.0  0.5591081110875178  0.14605251195877858  0.5263067286747969  1.0000
  C   C34       1.0  0.4821332213369942  0.1098887149635459  0.5228327913587805  1.0000
  C   C35       1.0  0.4149602576217291  0.15367033620067622  0.5338281416380326  1.0000
  C   C36       1.0  0.42451430641956717  0.2316600346986704  0.5395530209720434  1.0000
  C   C37       1.0  0.4753315542627091  0.0313894518362332  0.5081473265647674  1.0000
  C   C38       1.0  0.47597466822902845  0.964494096623994  0.49163401860634076  1.0000
  C   C39       1.0  0.4838299130788641  0.8867767764834227  0.4769894320504235  1.0000
  C   C40       1.0  0.5616762684143026  0.8573437196939223  0.4817860550433508  1.0000
  C   C41       1.0  0.5711477719878246  0.7800993075863545  0.4752720008138668  1.0000
  C   C42       1.0  0.504353019440316  0.7280579098360319  0.4670823311693653  1.0000
  C   C43       1.0  0.42757297326867416  0.7603832276602132  0.45224067475512447  1.0000
  C   C44       1.0  0.4166803458987688  0.837413432112889  0.45782668870669596  1.0000
  C   C45       1.0  0.27994559676402997  0.3949139767546228  0.3978365820910454  1.0000
  C   C46       1.0  0.10974607250995662  0.3725896912135838  0.40802697285612055  1.0000
  C   C47       1.0  0.2977061724289313  0.5997502359549713  0.590390190285909  1.0000
  C   C48       1.0  0.1276136238376466  0.5857771256934398  0.6063458828187294  1.0000
  C   C49       1.0  0.8765104784957813  0.41419007226131305  0.3949239272759471  1.0000
  C   C50       1.0  0.7080554459608805  0.3971672005786785  0.41502153611561704  1.0000
  C   C51       1.0  0.8939613163348952  0.6313250011802295  0.5888309672972554  1.0000
  C   C52       1.0  0.7251239177419038  0.6091493250754637  0.6002129348030962  1.0000
  C   C53       1.0  0.6626617732544418  0.4722563192881565  0.7408042879972356  1.0000
  C   C54       1.0  0.669635968622572  0.5044610687633123  0.9004285044272677  1.0000
  C   C55       1.0  0.3542727584496602  0.454395555175509  0.7296684303132039  1.0000
  C   C56       1.0  0.3619316281757392  0.5009857076163939  0.8854824094638261  1.0000
  C   C57       1.0  0.6438021939036176  0.5118676237452533  0.12145804752525889  1.0000
  C   C58       1.0  0.6398752110162959  0.5502031568031427  0.279124331635181  1.0000
  C   C59       1.0  0.3363451561812454  0.48548010952130477  0.09299047153766789  1.0000
  C   C60       1.0  0.3316332396762006  0.5195147020023255  0.24991101051566028  1.0000
  N   N1        1.0  0.2843773947870644  0.49544923218701326  0.496076638044201  1.0000
  N   N2        1.0  0.7201083888811297  0.5051736766367441  0.5050797682476897  1.0000
  Cl  Cl1       1.0  0.6665138318658421  0.25921493908062837  0.5394014719131305  1.0000
  Cl  Cl2       1.0  0.3390498958353446  0.27896113073479256  0.5598309009869027  1.0000
  Cl  Cl3       1.0  0.6706748654163803  0.7529326857858861  0.4780833940436223  1.0000
  Cl  Cl4       1.0  0.34158999718719935  0.7058058546543293  0.422393265141821  1.0000
  O   O1        1.0  0.5654370793676123  0.5213424997105136  0.6169784334282511  1.0000
  O   O2        1.0  0.43684510914371083  0.4755658428963017  0.606831062646009  1.0000
  O   O3        1.0  0.4529009375798125  0.6146061620776776  0.5142851263463513  1.0000
  O   O4        1.0  0.5763903034317366  0.6130849196909834  0.46985941218933647  1.0000
  O   O5        1.0  0.4277331521809202  0.5218723145931676  0.3873567813426462  1.0000
  O   O6        1.0  0.553950912689963  0.4794013005794823  0.38794649065417985  1.0000
  O   O7        1.0  0.5711981633002454  0.3897561802879466  0.5359653038448188  1.0000
  O   O8        1.0  0.4421859416781899  0.38121406439085337  0.48165153229641783  1.0000
