data_image0
_chemical_formula_structural       Zn4H28C44N8O18
_chemical_formula_sum              "Zn4 H28 C44 N8 O18"
_cell_length_a       8.107251703695246
_cell_length_b       10.43772815874499
_cell_length_c       14.2934
_cell_angle_alpha    99.98198833775214
_cell_angle_beta     93.6781617843391
_cell_angle_gamma    105.54749687622416

_space_group_name_H-M_alt    "P 1"
_space_group_IT_number       1

loop_
  _space_group_symop_operation_xyz
  'x, y, z'

loop_
  _atom_site_type_symbol
  _atom_site_label
  _atom_site_symmetry_multiplicity
  _atom_site_fract_x
  _atom_site_fract_y
  _atom_site_fract_z
  _atom_site_occupancy
  Zn  Zn1       1.0  0.7760720787080047  0.8742648568076063  0.9686803204933981  1.0000
  Zn  Zn2       1.0  0.22393096292053372  0.1257372212436962  0.0313198433357869  1.0000
  Zn  Zn3       1.0  0.13886740566589845  0.20469140185375778  0.5247858838783301  1.0000
  Zn  Zn4       1.0  0.8611325692160249  0.7953056033255024  0.4752142258592968  1.0000
  H   H1        1.0  0.550699966013454  0.6392113011510219  0.2695507666094485  1.0000
  H   H2        1.0  0.4492995051536468  0.3607877331770553  0.7304523801438452  1.0000
  H   H3        1.0  0.194101283922457  0.6908795175702878  0.4754503944618946  1.0000
  H   H4        1.0  0.8058944792157873  0.3091195167577894  0.5245491192488104  1.0000
  H   H5        1.0  0.4472797609622958  0.0255053861006971  0.3507356062881755  1.0000
  H   H6        1.0  0.5527147661663321  0.97449364822738  0.6492631628240703  1.0000
  H   H7        1.0  0.7414097730729736  0.0959675788964844  0.3188111054821121  1.0000
  H   H8        1.0  0.2585905679563468  0.9040304408571772  0.681191244874384  1.0000
  H   H9        1.0  0.8966815647191595  0.1210052461940307  0.1528684964961755  1.0000
  H   H10       1.0  0.10331616672350213  0.8789958172828635  0.8471320453091097  1.0000
  H   H11       1.0  0.573607531240583  0.7204827697142164  0.11997651776232492  1.0000
  H   H12       1.0  0.426393542083538  0.2795172791882692  0.8800247168430815  1.0000
  H   H13       1.0  0.3864484824038357  0.4161276943872281  0.242517799710285  1.0000
  H   H14       1.0  0.6135434351381265  0.5838743836640816  0.757480560097953  1.0000
  H   H15       1.0  0.2590220852084854  0.1839321948444734  0.31381530616963715  1.0000
  H   H16       1.0  0.7409696037534985  0.8160658249091952  0.6861832312448257  1.0000
  H   H17       1.0  0.24556729135858288  0.5188523388563553  0.5225130387044388  1.0000
  H   H18       1.0  0.754431813661121  0.48114568089731335  0.4774892666771962  1.0000
  H   H19       1.0  0.003824072944453868  0.5794609849792494  0.7885216285968824  1.0000
  H   H20       1.0  0.9961798385463111  0.4205400784976518  0.21147703921189281  1.0000
  H   H21       1.0  0.9794425990343925  0.1625023541499786  0.7888573292400096  1.0000
  H   H22       1.0  0.020564882917803024  0.8375017530501481  0.2111425533862672  1.0000
  H   H23       1.0  0.726911206070497  0.3750942469367899  0.9922262724711787  1.0000
  H   H24       1.0  0.27309220170543813  0.6249088456889282  0.00777333348246152  1.0000
  H   H25       1.0  0.5348004895792116  0.6828359716453818  0.9339559578772949  1.0000
  H   H26       1.0  0.4652025520493197  0.3171661064059279  0.06604140745748312  1.0000
  H   H27       1.0  0.4406356820335446  0.8019561385850622  0.9452216282294971  1.0000
  H   H28       1.0  0.5593664897327669  0.198046954040656  0.0547793319964853  1.0000
  C   C1        1.0  0.5094789368555226  0.8373526106118377  0.30261431001518  1.0000
  C   C2        1.0  0.49051769614494123  0.162645409141831  0.6973865061695291  1.0000
  C   C3        1.0  0.48136096013129753  0.7015376217505604  0.3100464948148414  1.0000
  C   C4        1.0  0.5186370464462086  0.2984573542798756  0.689953986075409  1.0000
  C   C5        1.0  0.36827049449387056  0.6498541867151317  0.37282604886274134  1.0000
  C   C6        1.0  0.6317256347917706  0.3501458621873539  0.6271757054668328  1.0000
  C   C7        1.0  0.2863701165188175  0.731774982900923  0.4285958476960872  1.0000
  C   C8        1.0  0.7136240444624065  0.2682230368527385  0.571402779668098  1.0000
  C   C9        1.0  0.317362496738042  0.8670644222176591  0.4210632046055808  1.0000
  C   C10       1.0  0.6826309319483812  0.1329315683871855  0.5789351392624837  1.0000
  C   C11       1.0  0.42804210777860147  0.9204756774738385  0.3575638919213944  1.0000
  C   C12       1.0  0.5719525569174521  0.079520313131006  0.642433797297933  1.0000
  C   C13       1.0  0.7269770820211291  0.0246785079562954  0.2520721266062935  1.0000
  C   C14       1.0  0.2730223891459787  0.9753205263717817  0.7479303205234018  1.0000
  C   C15       1.0  0.8058178714495908  0.0343352271935942  0.1708854463708391  1.0000
  C   C16       1.0  0.19418109600268707  0.9656658362833  0.8291158400329053  1.0000
  C   C17       1.0  0.6409535850824142  0.8255957223452056  0.1507944602399007  1.0000
  C   C18       1.0  0.3590471220943101  0.1744033119828714  0.8492066326174452  1.0000
  C   C19       1.0  0.3405569643965052  0.4034597183001409  0.31064101251949683  1.0000
  C   C20       1.0  0.6594279497900075  0.5965332285814711  0.6893629328676526  1.0000
  C   C21       1.0  0.277085728618772  0.2891232697050512  0.34653900647722224  1.0000
  C   C22       1.0  0.7229072873653877  0.710881852069484  0.6534611778224005  1.0000
  C   C23       1.0  0.2659865824243042  0.46084911981913024  0.45579392565419147  1.0000
  C   C24       1.0  0.7340132548901934  0.5391509290833554  0.5442093628471625  1.0000
  C   C25       1.0  0.22512060702058534  0.9532017896526882  0.478576486376774  1.0000
  C   C26       1.0  0.7748765296947012  0.0467942009521565  0.5214226920394722  1.0000
  C   C27       1.0  0.8609914772933607  0.49039859951930964  0.8955117245679319  1.0000
  C   C28       1.0  0.1390144025018145  0.5096044931064085  0.10448797133542341  1.0000
  C   C29       1.0  0.9610873642890354  0.4894296809574641  0.8194155153998396  1.0000
  C   C30       1.0  0.03891691334912652  0.5105723970938456  0.18058399378060133  1.0000
  C   C31       1.0  0.0008222046228993624  0.3703470532709687  0.7796452981994266  1.0000
  C   C32       1.0  0.9991836751722758  0.6296560393547495  0.22035369808033073  1.0000
  C   C33       1.0  0.9477167497991131  0.2545881713526299  0.8193935760695937  1.0000
  C   C34       1.0  0.05228679554424789  0.7454118775498557  0.18060425036752287  1.0000
  C   C35       1.0  0.8502185209334527  0.2552476447193328  0.8967037136577716  1.0000
  C   C36       1.0  0.14978713028175145  0.7447513896087443  0.1032947606046122  1.0000
  C   C37       1.0  0.8048437189007769  0.3726957930308217  0.9331110835784457  1.0000
  C   C38       1.0  0.19516019258998799  0.6273052704460724  0.06688758423032938  1.0000
  C   C39       1.0  0.8003652988012179  0.6111613624292715  0.9339343478945139  1.0000
  C   C40       1.0  0.1996414508561841  0.388840715622031  0.06606665048284553  1.0000
  C   C41       1.0  0.08599721000056348  0.3634296849414937  0.6894773783801896  1.0000
  C   C42       1.0  0.9140074337849953  0.6365734076842244  0.3105208733011012  1.0000
  C   C43       1.0  0.7910171871799463  0.1302480190719209  0.9381705917568652  1.0000
  C   C44       1.0  0.20898782275300934  0.8697560881282059  0.06182710204888053  1.0000
  N   N1        1.0  0.7500451677087981  0.9099038121184436  0.10839401210082403  1.0000
  N   N2        1.0  0.2499534335960831  0.0900962367840421  0.8916064329312617  1.0000
  N   N3        1.0  0.6222009994738754  0.8917723528318575  0.2386621230693393  1.0000
  N   N4        1.0  0.37779934155544476  0.1082256669218111  0.7613388280399535  1.0000
  N   N5        1.0  0.3322257536375446  0.5117198807518974  0.3803023849282141  1.0000
  N   N6        1.0  0.6677700095006998  0.4882791535761797  0.6196985280296943  1.0000
  N   N7        1.0  0.231518905940284  0.3268005050061973  0.4369295944556201  1.0000
  N   N8        1.0  0.7684782307750027  0.6731954855986473  0.56307238245504  1.0000
  O   O1        1.0  0.10823963709704293  0.8995054389872125  0.5270037298573484  1.0000
  O   O2        1.0  0.8917602002174617  0.1004946099152733  0.4729967601495915  1.0000
  O   O3        1.0  0.273117643019738  0.0791266582598098  0.476714299642758  1.0000
  O   O4        1.0  0.7268810958525691  0.9208703469194502  0.5232857651200078  1.0000
  O   O5        1.0  0.8814840802798757  0.7275076829311757  0.9154664126201624  1.0000
  O   O6        1.0  0.1185217995152996  0.2724954096945424  0.08453538215400871  1.0000
  O   O7        1.0  0.6697389819664679  0.5916054406706124  0.9787305481381595  1.0000
  O   O8        1.0  0.33026332736727676  0.4083946082318731  0.0212679329476941  1.0000
  O   O9        1.0  0.11679960520065438  0.46052547058224047  0.6468249528382018  1.0000
  O   O10       1.0  0.8832078767515412  0.5394786366178863  0.3531749297880751  1.0000
  O   O11       1.0  0.11610489166677238  0.24685508519727506  0.6589944287598044  1.0000
  O   O12       1.0  0.8838969139521494  0.7531469928540346  0.341004990470914  1.0000
  O   O13       1.0  0.6776434209721103  0.12015604741260691  0.9942710120175491  1.0000
  O   O14       1.0  0.3223650684097307  0.8798440014898858  0.005728393566208498  1.0000
  O   O15       1.0  0.8626562372668475  0.0342611632616396  0.9116579291758029  1.0000
  O   O16       1.0  0.13734804037130738  0.965740914789663  0.08834088038103258  1.0000
  O   O17       1.0  0.526327650365637  0.7646674852830628  0.9093773325265744  1.0000
  O   O18       1.0  0.47367452140067456  0.23533560734265543  0.09062082920500102  1.0000
