data_image0
_chemical_formula_structural       UCuH2C10O10
_chemical_formula_sum              "U1 Cu1 H2 C10 O10"
_cell_length_a       5.0239139902130905
_cell_length_b       7.049838049790513
_cell_length_c       8.5383058788373
_cell_angle_alpha    97.99131018160561
_cell_angle_beta     107.04018230363123
_cell_angle_gamma    91.25621230739321

_space_group_name_H-M_alt    "P 1"
_space_group_IT_number       1

loop_
  _space_group_symop_operation_xyz
  'x, y, z'

loop_
  _atom_site_type_symbol
  _atom_site_label
  _atom_site_symmetry_multiplicity
  _atom_site_fract_x
  _atom_site_fract_y
  _atom_site_fract_z
  _atom_site_occupancy
  U   U1        1.0  0.49998618883169854  0.5000071803178445  0.5000006438315195  1.0000
  Cu  Cu1       1.0  5.420131600376475e-06  0.9999942620730238  0.5000005558422416  1.0000
  H   H1        1.0  0.7366418722777794  0.6942426755668694  0.9858621010852316  1.0000
  H   H2        1.0  0.2633687027043834  0.30575863874782533  0.014140705588943085  1.0000
  C   C1        1.0  0.6320676516342943  0.8274899517378529  0.9923514438304719  1.0000
  C   C2        1.0  0.3679387606759761  0.1725113727816208  0.007650659933766204  1.0000
  C   C3        1.0  0.5057652043115936  0.8772858509693509  0.11619028756126681  1.0000
  C   C4        1.0  0.49423898126504184  0.12271404316712882  0.8838112830870414  1.0000
  C   C5        1.0  0.6292772976597475  0.950117294040986  0.8765416342508201  1.0000
  C   C6        1.0  0.3707310242654103  0.049882569885980395  0.12345829018435235  1.0000
  C   C7        1.0  0.5306995271463605  0.7496753001292261  0.2444551606232749  1.0000
  C   C8        1.0  0.4692961876887978  0.25032317893142425  0.755544822544195  1.0000
  C   C9        1.0  0.77913991050454  0.8979717534414038  0.7505146870727513  1.0000
  C   C10       1.0  0.2208615858220284  0.10202238385118532  0.2494834563536655  1.0000
  O   O1        1.0  0.8100729846109685  0.721987565560255  0.7060977190954956  1.0000
  O   O2        1.0  0.189918541228927  0.27801090370044795  0.2938992120389656  1.0000
  O   O3        1.0  0.6808046491138242  0.8049730918396351  0.3961793308126146  1.0000
  O   O4        1.0  0.3191949244361751  0.19502249604309443  0.6038198173813356  1.0000
  O   O5        1.0  0.87466867716509  0.03698672430022751  0.6973176968239726  1.0000
  O   O6        1.0  0.12534131622633277  0.9630088480729172  0.30268438320635477  1.0000
  O   O7        1.0  0.7664308608661798  0.34137439995976854  0.4747875066090116  1.0000
  O   O8        1.0  0.23356735833629472  0.6586283704522913  0.5252121984347794  1.0000
  O   O9        1.0  0.40999538619156795  0.5843274857935726  0.20905099324194504  1.0000
  O   O10       1.0  0.5899883163060337  0.4156753603446788  0.7909509498632017  1.0000
