data_image0
_chemical_formula_structural       Mn2P4H36C24N4O16
_chemical_formula_sum              "Mn2 P4 H36 C24 N4 O16"
_cell_length_a       9.385200258752354
_cell_length_b       9.38518793031808
_cell_length_c       9.626597140391413
_cell_angle_alpha    100.9402882366381
_cell_angle_beta     100.94030606857336
_cell_angle_gamma    100.81026119431301

_space_group_name_H-M_alt    "P 1"
_space_group_IT_number       1

loop_
  _space_group_symop_operation_xyz
  'x, y, z'

loop_
  _atom_site_type_symbol
  _atom_site_label
  _atom_site_symmetry_multiplicity
  _atom_site_fract_x
  _atom_site_fract_y
  _atom_site_fract_z
  _atom_site_occupancy
  Mn  Mn1       1.0  0.7768753234651058  0.22312240806157033  0.7500004054146955  1.0000
  Mn  Mn2       1.0  0.22312323585304483  0.7768780267142573  0.24999829791095607  1.0000
  P   P1        1.0  0.6907844964034738  0.39771262019975495  0.05999031742897634  1.0000
  P   P2        1.0  0.6022852653479591  0.3092149445004466  0.44001182300376473  1.0000
  P   P3        1.0  0.30920884030194884  0.6022888138887481  0.9400190281666454  1.0000
  P   P4        1.0  0.3977142515352909  0.6907899562801774  0.5599837325076678  1.0000
  H   H1        1.0  0.578340559734798  0.218865372833676  0.15934890745369754  1.0000
  H   H2        1.0  0.7811308529575313  0.42165927975658235  0.34065302049211243  1.0000
  H   H3        1.0  0.42165315809120335  0.7811327420838479  0.8406536597088132  1.0000
  H   H4        1.0  0.2188664799597078  0.5783455749843824  0.6593462759876303  1.0000
  H   H5        1.0  0.01627029261448598  0.4456097122777578  0.748950131323049  1.0000
  H   H6        1.0  0.5543869294413852  0.9837287639528468  0.7510504011022049  1.0000
  H   H7        1.0  0.9837344291252494  0.5543941714305872  0.25105243474177996  1.0000
  H   H8        1.0  0.445604749281351  0.016264872386876995  0.24894680034494598  1.0000
  H   H9        1.0  0.8766259996039737  0.41375225614856953  0.6076911675910068  1.0000
  H   H10       1.0  0.5862462393167078  0.12337243210500759  0.8923109241904185  1.0000
  H   H11       1.0  0.12336843848482454  0.5862492103619129  0.3923069619080905  1.0000
  H   H12       1.0  0.4137500005730387  0.8766323985714448  0.10769128117485134  1.0000
  H   H13       1.0  0.5320864317815008  0.5345234410985071  0.167534664305883  1.0000
  H   H14       1.0  0.4654807502984681  0.46791417624002213  0.3324677285071473  1.0000
  H   H15       1.0  0.46791318067475623  0.46548700976613583  0.8324681725342912  1.0000
  H   H16       1.0  0.5345140563770842  0.5320839585632839  0.6675360833753388  1.0000
  H   H17       1.0  0.6352767328479632  0.6341538333977397  0.06647305957326911  1.0000
  H   H18       1.0  0.3658451900030073  0.36472280807916496  0.43352713754467226  1.0000
  H   H19       1.0  0.3647200225802649  0.36584323512276035  0.933523644688961  1.0000
  H   H20       1.0  0.6341583358248428  0.6352754941678638  0.5664783248865604  1.0000
  H   H21       1.0  0.04567283236419679  0.8170074158977768  0.6461220518763042  1.0000
  H   H22       1.0  0.18299437337889654  0.9543262554510786  0.8538751752256387  1.0000
  H   H23       1.0  0.9543204129461601  0.1829884722854445  0.3538758587850807  1.0000
  H   H24       1.0  0.8170191839758374  0.045683366678666494  0.14611555468918877  1.0000
  H   H25       1.0  0.8766568617243777  0.6859960815269021  0.4036826863682067  1.0000
  H   H26       1.0  0.31400819136492697  0.12334644731235037  0.0963130149920701  1.0000
  H   H27       1.0  0.12334183305615909  0.3139999113086489  0.5963162558861441  1.0000
  H   H28       1.0  0.685999672950409  0.8766619494851325  0.9036816238888435  1.0000
  H   H29       1.0  0.6551322615884771  0.7895801379915994  0.312317314450965  1.0000
  H   H30       1.0  0.210421337439513  0.3448686456110863  0.1876773147036204  1.0000
  H   H31       1.0  0.34486544513794126  0.21042139026560136  0.6876824724052852  1.0000
  H   H32       1.0  0.7895769877097791  0.6551306778869587  0.8123169835687207  1.0000
  H   H33       1.0  0.6185703706997999  0.017910119480959  0.46054121344483423  1.0000
  H   H34       1.0  0.9820856932309923  0.38142646407910513  0.03946119750948885  1.0000
  H   H35       1.0  0.38142722269737556  0.9820858409326119  0.5394689449060408  1.0000
  H   H36       1.0  0.01791324511876268  0.6185706494363714  0.9605328041858101  1.0000
  C   C1        1.0  0.5675754087220213  0.5241836358832899  0.06439809827163148  1.0000
  C   C2        1.0  0.4758156964861869  0.432422624340326  0.4356060451766197  1.0000
  C   C3        1.0  0.4324216785370325  0.4758200960883767  0.935608215569914  1.0000
  C   C4        1.0  0.5241797265232719  0.567573303614459  0.5643943549247012  1.0000
  C   C5        1.0  0.9242791262877715  0.9893483637278135  0.6797356217675059  1.0000
  C   C6        1.0  0.010651975357738798  0.07572093893294608  0.8202617489180994  1.0000
  C   C7        1.0  0.07572341566389439  0.0106554781195953  0.3202665316601383  1.0000
  C   C8        1.0  0.989347683254806  0.9242795261754966  0.17972781511377883  1.0000
  C   C9        1.0  0.9509830687603725  0.8593481254270114  0.6011654890703965  1.0000
  C   C10       1.0  0.1406516712829813  0.0490171992083361  0.8988318698761759  1.0000
  C   C11       1.0  0.049019644365124286  0.14064127827708714  0.398834014491392  1.0000
  C   C12       1.0  0.8593634831483925  0.9509846733384677  0.10116187246520505  1.0000
  C   C13       1.0  0.8571030737430334  0.7862609236461394  0.4668504679518505  1.0000
  C   C14       1.0  0.2137372560283239  0.1428994312128893  0.03314702945296228  1.0000
  C   C15       1.0  0.14289333836502746  0.2137294699316783  0.5331480491461916  1.0000
  C   C16       1.0  0.7862749657741902  0.8571090472170936  0.9668505115050721  1.0000
  C   C17       1.0  0.7353698767489547  0.8440114187372456  0.4147218651444786  1.0000
  C   C18       1.0  0.15598818473026912  0.2646306254582099  0.08527546592385699  1.0000
  C   C19       1.0  0.2646228950012741  0.15598224166698318  0.5852724274171378  1.0000
  C   C20       1.0  0.8440170178809866  0.7353754933418982  0.9147234494311007  1.0000
  C   C21       1.0  0.7129410355507418  0.9719990651282516  0.4966582316390813  1.0000
  C   C22       1.0  0.027998748166254497  0.2870567725584934  0.0033434112110911026  1.0000
  C   C23       1.0  0.2870628609528297  0.027995907500965703  0.5033508363727961  1.0000
  C   C24       1.0  0.9720032246522764  0.7129392914259186  0.9966478427880433  1.0000
  N   N1        1.0  0.8058599103689659  0.0475292844372817  0.6268805664722379  1.0000
  N   N2        1.0  0.9524685876186184  0.19413778691011166  0.873119292334593  1.0000
  N   N3        1.0  0.19414143880425874  0.9524689790828657  0.3731213681176868  1.0000
  N   N4        1.0  0.0475338587600334  0.8058605048532855  0.12687557976430236  1.0000
  O   O1        1.0  0.7406100673252497  0.38327091180231315  0.9186740089246683  1.0000
  O   O2        1.0  0.6167298070986433  0.25939022365267306  0.581331922947342  1.0000
  O   O3        1.0  0.25939336919649497  0.6167218466287921  0.08131794176956932  1.0000
  O   O4        1.0  0.38328304168159383  0.7406060266533742  0.4186842390679714  1.0000
  O   O5        1.0  0.593926508457038  0.2369792114925957  0.05927140350232916  1.0000
  O   O6        1.0  0.7630197686375126  0.40607307607856297  0.4407320266267972  1.0000
  O   O7        1.0  0.4060693881125488  0.7630189442411748  0.9407326146987458  1.0000
  O   O8        1.0  0.2369825370563348  0.5939296524016981  0.5592677985502732  1.0000
  O   O9        1.0  0.8129224678660308  0.45159437857490287  0.2016304567349038  1.0000
  O   O10       1.0  0.5484045693243473  0.18707408124016917  0.29837240505970897  1.0000
  O   O11       1.0  0.18707111240860994  0.5484081761935328  0.7983739483016663  1.0000
  O   O12       1.0  0.4515931363575874  0.8129274459723489  0.7016284201979205  1.0000
  O   O13       1.0  0.907805569749385  0.3988271409699422  0.7069114360003964  1.0000
  O   O14       1.0  0.6011710567193944  0.09219386052373578  0.7930897622574165  1.0000
  O   O15       1.0  0.09218154049494837  0.6011552937202678  0.2930880303382608  1.0000
  O   O16       1.0  0.39884514771663504  0.9078180249778357  0.2069112288026034  1.0000
