data_image0
_chemical_formula_structural       Cd2H40C44N4O8
_chemical_formula_sum              "Cd2 H40 C44 N4 O8"
_cell_length_a       10.074280367087473
_cell_length_b       10.83112871731925
_cell_length_c       11.286199409662467
_cell_angle_alpha    112.90464427391723
_cell_angle_beta     98.87323689907124
_cell_angle_gamma    106.59390514448016

_space_group_name_H-M_alt    "P 1"
_space_group_IT_number       1

loop_
  _space_group_symop_operation_xyz
  'x, y, z'

loop_
  _atom_site_type_symbol
  _atom_site_label
  _atom_site_symmetry_multiplicity
  _atom_site_fract_x
  _atom_site_fract_y
  _atom_site_fract_z
  _atom_site_occupancy
  Cd  Cd1       1.0  0.9357149278576102  0.11198356121242628  0.14584129227175427  1.0000
  Cd  Cd2       1.0  0.064287133911435  0.8880175134844848  0.8541629669806668  1.0000
  H   H1        1.0  0.2704015131001611  0.1642380984268996  0.24039844254304651  1.0000
  H   H2        1.0  0.7296005265375385  0.8357575595148673  0.7596046229319738  1.0000
  H   H3        1.0  0.46034074506053463  0.20720706369730377  0.43791639305631247  1.0000
  H   H4        1.0  0.5396584113365819  0.7927917581188381  0.5620892111783249  1.0000
  H   H5        1.0  0.1293730361736607  0.15767457017612677  0.6358703037633191  1.0000
  H   H6        1.0  0.8706287934615915  0.842328638546917  0.3641356240549528  1.0000
  H   H7        1.0  0.9526183613234025  0.12137998211323972  0.42945391693384494  1.0000
  H   H8        1.0  0.04738346831184972  0.878623226609804  0.5705520108844269  1.0000
  H   H9        1.0  0.5259052615863168  0.27783855746576336  0.6824468040465206  1.0000
  H   H10       1.0  0.4740954176863638  0.7221614453913998  0.3175559435388848  1.0000
  H   H11       1.0  0.3902200767376769  0.25721179021280705  0.7650203491078572  1.0000
  H   H12       1.0  0.6097821610134844  0.7427871067774702  0.2349839889052205  1.0000
  H   H13       1.0  0.43647753774739345  0.9998734833274839  0.5608878188932422  1.0000
  H   H14       1.0  0.5635271395255331  0.00012884842908529557  0.4391111230885088  1.0000
  H   H15       1.0  0.31787572879815673  0.9927807999654376  0.6597585372515197  1.0000
  H   H16       1.0  0.6821290963810469  0.007219332244240198  0.3402413571541346  1.0000
  H   H17       1.0  0.7131906768951097  0.25569897428239585  0.777326465425972  1.0000
  H   H18       1.0  0.2868122232371135  0.7442988937041335  0.22267580799346828  1.0000
  H   H19       1.0  0.8969598735805493  0.2647561013984543  0.9586029712511677  1.0000
  H   H20       1.0  0.10304311077918983  0.7352418321088338  0.04139668117851872  1.0000
  H   H21       1.0  0.6046937473623187  0.9140948780998174  0.9674217575374372  1.0000
  H   H22       1.0  0.3953061216230296  0.08590835330797827  0.03258210221770949  1.0000
  H   H23       1.0  0.4050287573959607  0.8917349540860184  0.7879683287646273  1.0000
  H   H24       1.0  0.5949746231907014  0.10826945751829702  0.21203386874116606  1.0000
  H   H25       1.0  0.19633006251909527  0.404261994596581  0.11543680391613978  1.0000
  H   H26       1.0  0.8036693184847509  0.5957370019415932  0.884561811012496  1.0000
  H   H27       1.0  0.2692672656606447  0.4103476246482458  0.9812123484234192  1.0000
  H   H28       1.0  0.7307293444059793  0.5896546231253196  0.018785310611832414  1.0000
  H   H29       1.0  0.5067471797989214  0.3685425325753043  0.9748722881614214  1.0000
  H   H30       1.0  0.49325251162174777  0.6314597903723963  0.025124104652270798  1.0000
  H   H31       1.0  0.7491775422540029  0.4162357616608006  0.11265995951071521  1.0000
  H   H32       1.0  0.25082197912904997  0.5837633440786405  0.8873342871016732  1.0000
  H   H33       1.0  0.5914843132902804  0.4754462272384359  0.4552067614953828  1.0000
  H   H34       1.0  0.408513543255431  0.5245485020919815  0.544787321901687  1.0000
  H   H35       1.0  0.34963436517431745  0.43308274835875676  0.31831433705838214  1.0000
  H   H36       1.0  0.6503606421511421  0.5669097717713996  0.6816793439944036  1.0000
  H   H37       1.0  0.8335306764043509  0.4868714491755454  0.47658897735811934  1.0000
  H   H38       1.0  0.16646604596563466  0.5131308859590363  0.5234051870241387  1.0000
  H   H39       1.0  0.9164777325573327  0.5796017773361866  0.390999449807353  1.0000
  H   H40       1.0  0.08351890558513017  0.4204004922776291  0.6089973355646522  1.0000
  C   C1        1.0  0.2437599363420091  0.1627192361983347  0.32976519667361975  1.0000
  C   C2        1.0  0.7562433659616232  0.8372797149703216  0.6702375543812664  1.0000
  C   C3        1.0  0.34841830749459046  0.1857860172519921  0.4400880828290923  1.0000
  C   C4        1.0  0.6515829499316225  0.8142128910806575  0.5599152211524228  1.0000
  C   C5        1.0  0.30952505849788986  0.18414630374815028  0.5533764967440008  1.0000
  C   C6        1.0  0.6904761427766459  0.8158525609039913  0.4466285545640147  1.0000
  C   C7        1.0  0.16422437384838423  0.15905843567400518  0.5494256245568181  1.0000
  C   C8        1.0  0.8357770255396132  0.8409436680266537  0.4505806992892473  1.0000
  C   C9        1.0  0.06594076090004818  0.13804674177710294  0.4356359957420324  1.0000
  C   C10       1.0  0.9340606665637877  0.8619553837638065  0.5643694544407865  1.0000
  C   C11       1.0  0.418836356570587  0.2055322741730592  0.6731260063986753  1.0000
  C   C12       1.0  0.5811663395036746  0.7944677496798532  0.326877061923355  1.0000
  C   C13       1.0  0.422724561849634  0.05978824153904579  0.6597222562173926  1.0000
  C   C14       1.0  0.5772792830046214  0.9402119020130113  0.340276604156699  1.0000
  C   C15       1.0  0.5412952236396292  0.07310360845419688  0.7683624648964624  1.0000
  C   C16       1.0  0.4587075847379937  0.9268965027597319  0.231637108772567  1.0000
  C   C17       1.0  0.6826996681188647  0.17766639737122594  0.8165157003023112  1.0000
  C   C18       1.0  0.3173055030800711  0.8223347743400706  0.1834864190653036  1.0000
  C   C19       1.0  0.7866732824026242  0.18330660350846265  0.9172165538421527  1.0000
  C   C20       1.0  0.21332924363402128  0.8166902031361899  0.08278436827857391  1.0000
  C   C21       1.0  0.6236075076271632  0.9881550795549429  0.9228218348539058  1.0000
  C   C22       1.0  0.3763929956634087  0.011847101008854097  0.07718083397085002  1.0000
  C   C23       1.0  0.5131947266602026  0.9759722627859232  0.8232075379923601  1.0000
  C   C24       1.0  0.4868073351088499  0.024028811910987696  0.17679672126006818  1.0000
  C   C25       1.0  0.18739480795122176  0.198810492695756  0.9694925424372158  1.0000
  C   C26       1.0  0.8125996714278898  0.8011885605543084  0.030500902333613918  1.0000
  C   C27       1.0  0.2613638165310732  0.3635401678224213  0.051672415363029175  1.0000
  C   C28       1.0  0.7386340059942995  0.636459934582639  0.9483246091379341  1.0000
  C   C29       1.0  0.4111072007108945  0.3989531314110052  0.1372650905491141  1.0000
  C   C30       1.0  0.5888884630511271  0.6010437546302968  0.8627285933506743  1.0000
  C   C31       1.0  0.5254852547028578  0.39413709727102025  0.08093691971409099  1.0000
  C   C32       1.0  0.4745110433643731  0.6058587379262832  0.9190555732553136  1.0000
  C   C33       1.0  0.661663125223818  0.42048247555435836  0.1583687856983786  1.0000
  C   C34       1.0  0.33833458341562317  0.5795144533229504  0.8416243452747878  1.0000
  C   C35       1.0  0.6882701821489192  0.45011185485849126  0.2943396524115088  1.0000
  C   C36       1.0  0.3117274984146761  0.5498850521785597  0.7056543522249044  1.0000
  C   C37       1.0  0.5736142951973306  0.4530347675644393  0.3498475312536442  1.0000
  C   C38       1.0  0.42638341344210307  0.5469621613128695  0.6501455997195222  1.0000
  C   C39       1.0  0.43762814421924656  0.42929794185078407  0.2730138137821996  1.0000
  C   C40       1.0  0.5623673214293134  0.5706957051420076  0.7269785975795388  1.0000
  C   C41       1.0  0.8366433801841707  0.47765287909370363  0.3767195888916888  1.0000
  C   C42       1.0  0.1633530819761759  0.522351568226753  0.6232771177196598  1.0000
  C   C43       1.0  0.885772540496923  0.3544922740213892  0.3051511957992901  1.0000
  C   C44       1.0  0.11423046599416142  0.6455110762410567  0.6948496504077966  1.0000
  N   N1        1.0  0.1047983578958238  0.13940386625293397  0.3271407645523112  1.0000
  N   N2        1.0  0.8952042820267536  0.8605961139194704  0.6728640510962195  1.0000
  N   N3        1.0  0.7579098850336409  0.09093327013866309  0.970638862197788  1.0000
  N   N4        1.0  0.24209085039073128  0.9090667763990083  0.029362138061117045  1.0000
  O   O1        1.0  0.10037136022342712  0.1300306290671216  0.015240187221948484  1.0000
  O   O2        1.0  0.8996279646287348  0.8699683237905447  0.9847601750331876  1.0000
  O   O3        1.0  0.2190441285778562  0.13398126757912368  0.8647383359316408  1.0000
  O   O4        1.0  0.780941789668944  0.8660188617332024  0.13525064850681903  1.0000
  O   O5        1.0  0.825632727445026  0.2340686652726589  0.3066445858482823  1.0000
  O   O6        1.0  0.17437341813435833  0.7659378900111519  0.6933606349915422  1.0000
  O   O7        1.0  0.9788205419495172  0.3741052408323071  0.24301752870816526  1.0000
  O   O8        1.0  0.021182866712976443  0.6258991926122588  0.7569837951343744  1.0000
