data_image0
_chemical_formula_structural       Zn4H56C40O16
_chemical_formula_sum              "Zn4 H56 C40 O16"
_cell_length_a       6.8101267073269
_cell_length_b       12.406668878018545
_cell_length_c       12.753366392473199
_cell_angle_alpha    90.00011623464329
_cell_angle_beta     102.88171802127412
_cell_angle_gamma    90.00012863237369

_space_group_name_H-M_alt    "P 1"
_space_group_IT_number       1

loop_
  _space_group_symop_operation_xyz
  'x, y, z'

loop_
  _atom_site_type_symbol
  _atom_site_label
  _atom_site_symmetry_multiplicity
  _atom_site_fract_x
  _atom_site_fract_y
  _atom_site_fract_z
  _atom_site_occupancy
  Zn  Zn1       1.0  0.2055801705722047  0.541954092232821  0.2623302122727224  1.0000
  Zn  Zn2       1.0  0.7944259432367603  0.04194885756955101  0.7376728365483415  1.0000
  Zn  Zn3       1.0  0.6964863911203167  0.4484143696299939  0.2606114343320626  1.0000
  Zn  Zn4       1.0  0.3035067678824248  0.9484070274235776  0.7393885704165726  1.0000
  H   H1        1.0  0.22735244768274754  0.5159096628574673  0.6611413578437747  1.0000
  H   H2        1.0  0.7726459750099792  0.015913231738799997  0.33885918584336844  1.0000
  H   H3        1.0  0.3656997122921055  0.3818150656178644  0.7910942268776889  1.0000
  H   H4        1.0  0.6343095632574459  0.8818150601767488  0.20890044542953484  1.0000
  H   H5        1.0  0.20138366673431554  0.22652420647452232  0.711352366243375  1.0000
  H   H6        1.0  0.7986203281332179  0.7265221487777255  0.2886453129798738  1.0000
  H   H7        1.0  0.1408413995302098  0.10103418736727578  0.5081079865581443  1.0000
  H   H8        1.0  0.8591453538745811  0.6010382738617822  0.49188667620725096  1.0000
  H   H9        1.0  0.003971496550605  0.24141639379180893  0.24646380877589988  1.0000
  H   H10       1.0  0.9960341619954818  0.7414091071537926  0.7535395802258478  1.0000
  H   H11       1.0  0.30819556304315643  0.2740757822523037  0.39540833377485274  1.0000
  H   H12       1.0  0.6918086823837015  0.7740734577150902  0.6045894678964101  1.0000
  H   H13       1.0  0.3967563814744821  0.4803030231394843  0.5809506961301307  1.0000
  H   H14       1.0  0.6032383616152829  0.9803034243345224  0.41904328076920183  1.0000
  H   H15       1.0  0.27283860676377003  0.10371805147514121  0.2662095271987112  1.0000
  H   H16       1.0  0.7271512522498967  0.603712818264171  0.7337909873475609  1.0000
  H   H17       1.0  0.45780427636514526  0.18655207499662657  0.4893052352151485  1.0000
  H   H18       1.0  0.5421980129027519  0.6865550145462931  0.5106929530663109  1.0000
  H   H19       1.0  0.5620595423079563  0.3699787350754632  0.7226737131207555  1.0000
  H   H20       1.0  0.43794814204991883  0.8699802503894603  0.27731918440939296  1.0000
  H   H21       1.0  0.4911643433436197  0.3286200578417109  0.5024904182344159  1.0000
  H   H22       1.0  0.5088357609195953  0.8286205114225071  0.4975132869802933  1.0000
  H   H23       1.0  0.48252388528841555  0.13482558418577636  0.21247408486590294  1.0000
  H   H24       1.0  0.5174812228883995  0.6348194066643771  0.7875298150865502  1.0000
  H   H25       1.0  0.43332811382558845  0.2146519146812693  0.9157714420670968  1.0000
  H   H26       1.0  0.5666879701784922  0.7146604308464433  0.08423466300367008  1.0000
  H   H27       1.0  0.8124521447709016  0.33434946971134144  0.5423483422761776  1.0000
  H   H28       1.0  0.187545022265823  0.8343526773070022  0.45765817251568547  1.0000
  H   H29       1.0  0.8776204176367981  0.4626346102825352  0.601526585541819  1.0000
  H   H30       1.0  0.1223804040650975  0.9626376145952873  0.3984782501996519  1.0000
  H   H31       1.0  0.9612714102113954  0.34394453916160483  0.6751852245993247  1.0000
  H   H32       1.0  0.0387287973681296  0.8439488994393756  0.3248200909367966  1.0000
  H   H33       1.0  0.082414756904889  0.2810272385213324  0.8607434533184345  1.0000
  H   H34       1.0  0.9176045540306034  0.7810330682925652  0.13925374443011404  1.0000
  H   H35       1.0  0.11838999058602441  0.3775045179106798  0.9669333374308308  1.0000
  H   H36       1.0  0.8816252534892185  0.8775036319910257  0.033059661272488876  1.0000
  H   H37       1.0  0.3877761595865792  0.992107888713491  0.08985788653185268  1.0000
  H   H38       1.0  0.6122413074117716  0.4921044116405611  0.9101434349983318  1.0000
  H   H39       1.0  0.15613487389430963  0.975829446761189  0.12698689310391126  1.0000
  H   H40       1.0  0.843879460953957  0.4758261694392659  0.8730116833364787  1.0000
  H   H41       1.0  0.9854623366377099  0.09360774840067883  0.9917686339390099  1.0000
  H   H42       1.0  0.014534989179694  0.5936057686865938  0.0082319363736687  1.0000
  H   H43       1.0  0.9171750075829692  0.28271563524889143  0.9492722324644375  1.0000
  H   H44       1.0  0.08284120946060368  0.7827146333413141  0.05071833931386039  1.0000
  H   H45       1.0  0.5402018776859877  0.17649174830329883  0.05008732105056879  1.0000
  H   H46       1.0  0.4598034951790879  0.6764947107694824  0.9499198279164245  1.0000
  H   H47       1.0  0.4845970890427865  0.3137863903937729  0.017839759917293887  1.0000
  H   H48       1.0  0.515417954651241  0.8137919058198407  0.982162499845195  1.0000
  H   H49       1.0  0.9537905277869642  0.1700435824223447  0.5582757321024018  1.0000
  H   H50       1.0  0.0462041318527469  0.6700409444885128  0.4417207610096979  1.0000
  H   H51       1.0  0.9814196273317037  0.1964486127958907  0.4257096380935152  1.0000
  H   H52       1.0  0.018575194004853298  0.6964478337741226  0.5742884938704832  1.0000
  H   H53       1.0  0.916891644769521  0.15798266213287357  0.1332853708605342  1.0000
  H   H54       1.0  0.08311358543900127  0.6579809663509978  0.8667185887286519  1.0000
  H   H55       1.0  0.9129984942959909  0.30074860476381826  0.11850334818153387  1.0000
  H   H56       1.0  0.08699534778691032  0.8007453328347935  0.8814933080586866  1.0000
  C   C1        1.0  0.21939480115675988  0.2662462311503262  0.5490580930821236  1.0000
  C   C2        1.0  0.7805989042429573  0.7662436886591736  0.45094161602294475  1.0000
  C   C3        1.0  0.29144164890340823  0.44705637198243403  0.6261538168396183  1.0000
  C   C4        1.0  0.708565048106678  0.9470551921401907  0.3738469599963706  1.0000
  C   C5        1.0  0.3205524492009176  0.2534936025183683  0.6715773351435457  1.0000
  C   C6        1.0  0.6794441789888453  0.7534930977641141  0.3284211171601683  1.0000
  C   C7        1.0  0.9989743756868564  0.2327884761334787  0.16021695464266367  1.0000
  C   C8        1.0  0.0010205920035061984  0.7327825947718339  0.8397781291825126  1.0000
  C   C9        1.0  0.12433806179470962  0.3828898944084002  0.5501975462016657  1.0000
  C   C10       1.0  0.8756608334346224  0.8828890757144592  0.4498069107422749  1.0000
  C   C11       1.0  0.0735099264620089  0.4262357850698351  0.43507568335142816  1.0000
  C   C12       1.0  0.9264681545142038  0.9262368826468262  0.564929598695052  1.0000
  C   C13       1.0  0.3980614519214072  0.3659686851026507  0.7119593911915414  1.0000
  C   C14       1.0  0.6019508090661176  0.8659696139987005  0.2880395143383366  1.0000
  C   C15       1.0  0.15011657592242503  0.0951972798706961  0.0008449850523817031  1.0000
  C   C16       1.0  0.849888278351628  0.5952000088192194  0.999155671156387  1.0000
  C   C17       1.0  0.0641024247509847  0.17871897430859465  0.5081189994329944  1.0000
  C   C18       1.0  0.9358892680717689  0.6787199288728659  0.4918771691336942  1.0000
  C   C19       1.0  0.21457283147328346  0.228194488313143  0.14175644740993218  1.0000
  C   C20       1.0  0.7854236634023835  0.7281912000317093  0.8582419397433652  1.0000
  C   C21       1.0  0.3788515222009607  0.264431102112006  0.4809236471940394  1.0000
  C   C22       1.0  0.6211466924555893  0.7644333481696249  0.5190765775777136  1.0000
  C   C23       1.0  0.25656833435887444  0.0361122940811498  0.10405613846732818  1.0000
  C   C24       1.0  0.7434377148409936  0.5361106470535831  0.8959445390330527  1.0000
  C   C25       1.0  0.21666893834052567  0.21624755837478923  0.018179960371810508  1.0000
  C   C26       1.0  0.7833319785713684  0.716250170767978  0.9818165600772698  1.0000
  C   C27       1.0  0.4748681792884638  0.16476804809106943  0.692603762569547  1.0000
  C   C28       1.0  0.5251159876347985  0.6647713436744314  0.30739700084333066  1.0000
  C   C29       1.0  0.3188458303675077  0.1237781790665835  0.19127046426384448  1.0000
  C   C30       1.0  0.6811622434208715  0.6237738549505351  0.8087345395603831  1.0000
  C   C31       1.0  0.3254665471730577  0.33120936134911005  0.18701461130173405  1.0000
  C   C32       1.0  0.6745259604168651  0.8312034262189131  0.8129827353560156  1.0000
  C   C33       1.0  0.1854496953910001  0.04990889536613  0.8971594104835886  1.0000
  C   C34       1.0  0.814548872613649  0.5499121063987218  0.10283886447098917  1.0000
  C   C35       1.0  0.431015887439365  0.23087931508817414  0.0001533786934046887  1.0000
  C   C36       1.0  0.5689912444415981  0.7308833201892784  0.999851727488959  1.0000
  C   C37       1.0  0.9324990420287378  0.38022250672208446  0.5947154678681912  1.0000
  C   C38       1.0  0.0674953316322231  0.8802278775667816  0.4052892473078629  1.0000
  C   C39       1.0  0.0749360347551615  0.2938462352060327  0.9449045899263309  1.0000
  C   C40       1.0  0.9250788023469383  0.7938470600487619  0.055090549636055586  1.0000
  O   O1        1.0  0.19852513083478132  0.489895141642954  0.4065847250952713  1.0000
  O   O2        1.0  0.8014636602942886  0.9899017913923843  0.5934101535878397  1.0000
  O   O3        1.0  0.2269833980210549  0.4197495661502088  0.16695028349397487  1.0000
  O   O4        1.0  0.7730125886445905  0.9197429856669572  0.833047638049372  1.0000
  O   O5        1.0  0.4205037490166745  0.06690288131505889  0.668653733827753  1.0000
  O   O6        1.0  0.5794768445826578  0.5669079048146628  0.3313432889788288  1.0000
  O   O7        1.0  0.6604149116912551  0.1859882394138594  0.7311345955740405  1.0000
  O   O8        1.0  0.3395648708008919  0.6859936488154188  0.26886727300518487  1.0000
  O   O9        1.0  0.5068009459831799  0.32424714150491246  0.23987962005701036  1.0000
  O   O10       1.0  0.4931930312004909  0.8242449070085485  0.7601178821222091  1.0000
  O   O11       1.0  0.32460499267430976  0.9812750134976869  0.8967885217542174  1.0000
  O   O12       1.0  0.675401783137822  0.4812763557215973  0.10320527435331424  1.0000
  O   O13       1.0  0.9117581745486164  0.3911591207708512  0.37370584743091934  1.0000
  O   O14       1.0  0.08821833939923351  0.8911601473136771  0.6263078105477077  1.0000
  O   O15       1.0  0.07743382045119768  0.0840113625479262  0.8073437464411198  1.0000
  O   O16       1.0  0.9225664447921175  0.5840132810120835  0.1926555752001348  1.0000
