data_image0
_chemical_formula_structural       Zn2H40C48N6O12F8
_chemical_formula_sum              "Zn2 H40 C48 N6 O12 F8"
_cell_length_a       14.692881524273899
_cell_length_b       16.103684473843842
_cell_length_c       19.314154237266965
_cell_angle_alpha    90.07147786277852
_cell_angle_beta     90.08872787324296
_cell_angle_gamma    89.69686734911411

_space_group_name_H-M_alt    "P 1"
_space_group_IT_number       1

loop_
  _space_group_symop_operation_xyz
  'x, y, z'

loop_
  _atom_site_type_symbol
  _atom_site_label
  _atom_site_symmetry_multiplicity
  _atom_site_fract_x
  _atom_site_fract_y
  _atom_site_fract_z
  _atom_site_occupancy
  Zn  Zn1       1.0  0.4039038367388343  0.5006639415761214  0.4995384213540675  1.0000
  Zn  Zn2       1.0  0.597246462807  0.500381665547991  0.5000769721703122  1.0000
  H   H1        1.0  0.3562084674745662  0.4674482945482126  0.7157608202004582  1.0000
  H   H2        1.0  0.6435243510667876  0.5156377901453979  0.7218883891121382  1.0000
  H   H3        1.0  0.4473151536226396  0.0739718359956427  0.6003994603090135  1.0000
  H   H4        1.0  0.5669232186174753  0.0736273738474011  0.5954898201561392  1.0000
  H   H5        1.0  0.08296847512052348  0.6353495701615158  0.5155365886777545  1.0000
  H   H6        1.0  0.9253642167134759  0.6337232346044529  0.4994479593061598  1.0000
  H   H7        1.0  0.9229573037699977  0.43583065116349934  0.4041302950514448  1.0000
  H   H8        1.0  0.08132571213877782  0.4439756317816617  0.399892134226846  1.0000
  H   H9        1.0  0.9172719822816903  0.545094923280594  0.39712230287028666  1.0000
  H   H10       1.0  0.07575867085791542  0.5534747332084679  0.3987391854184139  1.0000
  H   H11       1.0  0.9269557399294185  0.3681559917100827  0.5096837975237918  1.0000
  H   H12       1.0  0.08066048941628172  0.3676010956457958  0.5114953573494603  1.0000
  H   H13       1.0  0.9167261964533041  0.595466424540881  0.5843679047668573  1.0000
  H   H14       1.0  0.0753257323659824  0.5779326446115434  0.5931814117679863  1.0000
  H   H15       1.0  0.3542818342579537  0.48612720241634827  0.2816186759206616  1.0000
  H   H16       1.0  0.6474843980428416  0.49809439290267205  0.278007396857717  1.0000
  H   H17       1.0  0.6457878143790837  0.06993488848230811  0.4842409625225912  1.0000
  H   H18       1.0  0.3528578880404964  0.07049956219780282  0.4964494829550148  1.0000
  H   H19       1.0  0.44744796433078454  0.928160383062405  0.6010076897872594  1.0000
  H   H20       1.0  0.5673767799406522  0.9277953812786421  0.5962152309503352  1.0000
  H   H21       1.0  0.9682013315191967  0.5075978832040704  0.6546742432736892  1.0000
  H   H22       1.0  0.9514351753768153  0.4193113559403017  0.7066861454458433  1.0000
  H   H23       1.0  0.7817402113103356  0.4380862425575742  0.6991526165230725  1.0000
  H   H24       1.0  0.83604380072466  0.5252871519870085  0.737489655139143  1.0000
  H   H25       1.0  0.7960086485299911  0.5303999489247246  0.6503900423093967  1.0000
  H   H26       1.0  0.16787025283370127  0.3116500348535923  0.5984093845190657  1.0000
  H   H27       1.0  0.05488457756307241  0.3023485371042582  0.6324337521824717  1.0000
  H   H28       1.0  0.17611575167616422  0.28837500333105476  0.7252294259861785  1.0000
  H   H29       1.0  0.21267098461037648  0.3912645786725903  0.7067603444931692  1.0000
  H   H30       1.0  0.1020894876116643  0.373883374973083  0.741264389060163  1.0000
  H   H31       1.0  0.3781812655900866  0.33579956887395207  0.8892040989002297  1.0000
  H   H32       1.0  0.3194804842909491  0.3335285367145319  0.8083356633837937  1.0000
  H   H33       1.0  0.17606551483883243  0.38274094589561963  0.8685329598657248  1.0000
  H   H34       1.0  0.21621242524005166  0.2869619922169377  0.9037222149930172  1.0000
  H   H35       1.0  0.234886576986483  0.38178691506679036  0.94919162711858  1.0000
  H   H36       1.0  0.6373778281858549  0.6310761351568246  0.8850523368472665  1.0000
  H   H37       1.0  0.7036057414083103  0.6133290138368322  0.8091116965854042  1.0000
  H   H38       1.0  0.8294730476495289  0.5523945263902447  0.8819480370262553  1.0000
  H   H39       1.0  0.802180483531352  0.6548762737174485  0.910662396200749  1.0000
  H   H40       1.0  0.7625528714900582  0.5671152216210444  0.9577246863831875  1.0000
  C   C1        1.0  0.5006863848471497  0.6622509298460387  0.4987510192449705  1.0000
  C   C2        1.0  0.49529997917547064  0.47754375823512873  0.9325974050041096  1.0000
  C   C3        1.0  0.4179426777221735  0.48306264205503174  0.18111841268967055  1.0000
  C   C4        1.0  0.5797226838852368  0.48848024391276107  0.1791209859560325  1.0000
  C   C5        1.0  0.4177004335225831  0.4874463315239765  0.2526529752699034  1.0000
  C   C6        1.0  0.5829178155959339  0.4934041315214869  0.2506554120918807  1.0000
  C   C7        1.0  0.5010253810170654  0.4927776511066  0.2874844864646349  1.0000
  C   C8        1.0  0.49807186872799036  0.4834208922083789  0.1416817083287398  1.0000
  C   C9        1.0  0.41160048157679796  0.9529031697023882  0.4641072028987452  1.0000
  C   C10       1.0  0.583396042690076  0.9524808347731764  0.4571308627120132  1.0000
  C   C11       1.0  0.5840232987184776  0.049231597186015115  0.4571063842192871  1.0000
  C   C12       1.0  0.4103515325543015  0.0496456602223816  0.46427009186741225  1.0000
  C   C13       1.0  0.49895136030953324  0.24829109453663278  0.4991702868259154  1.0000
  C   C14       1.0  0.5002262988610227  0.9174887202184935  0.4972260716163532  1.0000
  C   C15       1.0  0.49966281363691684  0.08298659302802489  0.4959943477942801  1.0000
  C   C16       1.0  0.5015040834936926  0.4982545716286211  0.6341342677683813  1.0000
  C   C17       1.0  0.5052385811000376  0.0486374566033163  0.5712334769641957  1.0000
  C   C18       1.0  0.5054737411086521  0.9525438857245518  0.5720485899237673  1.0000
  C   C19       1.0  0.49938750756869876  0.1729890053639878  0.4968896299534578  1.0000
  C   C20       1.0  0.5004133648761311  0.8276021630181348  0.4969179709240877  1.0000
  C   C21       1.0  0.5004561491100574  0.752344103501116  0.49809365677129586  1.0000
  C   C22       1.0  0.9477408026174174  0.5832652576168869  0.533831249962539  1.0000
  C   C23       1.0  0.05250769685849831  0.5801063463407344  0.5391153428635534  1.0000
  C   C24       1.0  0.9471015110232555  0.4940115772005953  0.4272663828501635  1.0000
  C   C25       1.0  0.0521865604557661  0.4982145030960795  0.4264882972718169  1.0000
  C   C26       1.0  0.9126965362305911  0.5003768131623474  0.5030900136376175  1.0000
  C   C27       1.0  0.0883459864083065  0.5013702981821099  0.5017443669107635  1.0000
  C   C28       1.0  0.05643425457954271  0.42238884644911673  0.5407467780832036  1.0000
  C   C29       1.0  0.948754713891077  0.4208854906000212  0.5418875596087034  1.0000
  C   C30       1.0  0.1869443096695278  0.5016746542918541  0.501290280882472  1.0000
  C   C31       1.0  0.8142782739593102  0.4994887554849043  0.5027779490336073  1.0000
  C   C32       1.0  0.497645220447275  0.3383807992975748  0.4999469968617944  1.0000
  C   C33       1.0  0.5021941835391175  0.49720964023990183  0.36525005662617366  1.0000
  C   C34       1.0  0.41839178517905407  0.47548160271788487  0.7456859484340725  1.0000
  C   C35       1.0  0.5804859040651352  0.5029801987171683  0.7493100650106967  1.0000
  C   C36       1.0  0.417164425469629  0.4686638026661711  0.8174387668341652  1.0000
  C   C37       1.0  0.579162874223897  0.49677805257902463  0.8212642392077002  1.0000
  C   C38       1.0  0.49741082919629775  0.4798550437803045  0.8562798529338879  1.0000
  C   C39       1.0  0.500110788532929  0.4926191830717671  0.7116283446482896  1.0000
  C   C40       1.0  0.49602823379525773  0.47978670931738066  0.0654618066868338  1.0000
  C   C41       1.0  0.9202498759863147  0.45744481241843  0.6657169761138348  1.0000
  C   C42       1.0  0.8281726116074141  0.48984130874811177  0.6891318924738812  1.0000
  C   C43       1.0  0.116993058903553  0.3405206801808233  0.6331198470493575  1.0000
  C   C44       1.0  0.15403774715210972  0.34934586955768054  0.7058375086610766  1.0000
  C   C45       1.0  0.3209912641987743  0.36340590709527737  0.8598433188993297  1.0000
  C   C46       1.0  0.2317163413717296  0.35322279705076204  0.8976282054691113  1.0000
  C   C47       1.0  0.6906747105426945  0.5910115445110123  0.8621991770548476  1.0000
  C   C48       1.0  0.7763476561558063  0.5912505574376468  0.9056783838057498  1.0000
  N   N1        1.0  0.44289027081282484  0.5354067241547825  0.9643751919631641  1.0000
  N   N2        1.0  0.5441598471241066  0.4180941068138821  0.9653352385509492  1.0000
  N   N3        1.0  0.44302039730062864  0.5363771377742738  0.0328030175899698  1.0000
  N   N4        1.0  0.5449210489935368  0.4195022232955381  0.0339413916200968  1.0000
  N   N5        1.0  0.2656919451110086  0.5018779683203575  0.4996762125677989  1.0000
  N   N6        1.0  0.7355022794559645  0.4988108174808233  0.5011742675821722  1.0000
  O   O1        1.0  0.4231271550083591  0.6276638539999624  0.5001704082307654  1.0000
  O   O2        1.0  0.57852860879553  0.6273835325705335  0.49785482982856877  1.0000
  O   O3        1.0  0.4245988728636335  0.4970405576405739  0.6036668834412567  1.0000
  O   O4        1.0  0.5790780219282609  0.5031829798220431  0.6051974443665387  1.0000
  O   O5        1.0  0.41938842244640995  0.37239780362777  0.49880382222065117  1.0000
  O   O6        1.0  0.5748220438667814  0.37370601570901124  0.5015465249181617  1.0000
  O   O7        1.0  0.4250496106772701  0.49945532290013256  0.3950614906495744  1.0000
  O   O8        1.0  0.5797651729430697  0.49797724394166926  0.3944882976779525  1.0000
  O   O9        1.0  0.9094819810630668  0.40299225300129393  0.6063194365640712  1.0000
  O   O10       1.0  0.0959489451996092  0.42251075055270343  0.6072241990866161  1.0000
  O   O11       1.0  0.3366604693421494  0.4513210027064504  0.8510293684591944  1.0000
  O   O12       1.0  0.6574479683421683  0.5067159918610215  0.8597318938365035  1.0000
  F   F1        1.0  0.3370588875266733  0.47538212028013044  0.147468877523103  1.0000
  F   F2        1.0  0.6591536767424486  0.4914186353650151  0.1431022140729254  1.0000
  F   F3        1.0  0.39619538728763365  0.07975972550178062  0.3977553688973217  1.0000
  F   F4        1.0  0.5879138382561778  0.07914768886595883  0.3897828736740792  1.0000
  F   F5        1.0  0.39901896215339144  0.9226345021457406  0.39883603812862845  1.0000
  F   F6        1.0  0.5867089835617135  0.9221207817839032  0.3912283777991945  1.0000
  F   F7        1.0  0.6622093604360942  0.9250561973376604  0.4902026659919372  1.0000
  F   F8        1.0  0.33814425474843546  0.925789077339921  0.5033200490548708  1.0000
