data_image0
_chemical_formula_structural       Cu2H8C8N4Cl4
_chemical_formula_sum              "Cu2 H8 C8 N4 Cl4"
_cell_length_a       6.711097411508442
_cell_length_b       7.3416603670128575
_cell_length_c       7.694549558926247
_cell_angle_alpha    114.1314350130433
_cell_angle_beta     111.18094110776048
_cell_angle_gamma    98.97146271664664

_space_group_name_H-M_alt    "P 1"
_space_group_IT_number       1

loop_
  _space_group_symop_operation_xyz
  'x, y, z'

loop_
  _atom_site_type_symbol
  _atom_site_label
  _atom_site_symmetry_multiplicity
  _atom_site_fract_x
  _atom_site_fract_y
  _atom_site_fract_z
  _atom_site_occupancy
  Cu  Cu1       1.0  0.9999948773919982  2.2866425695013664e-06  9.485064112250694e-07  1.0000
  Cu  Cu2       1.0  0.5000025461445007  8.375640042899562e-06  3.0184129898432333e-06  1.0000
  H   H1        1.0  0.6865011223923858  0.850903769590829  0.5499816358395152  1.0000
  H   H2        1.0  0.3640142988154195  0.6990946437573836  0.5498891620555566  1.0000
  H   H3        1.0  0.3135025932839639  0.14908966338450816  0.4500113071384463  1.0000
  H   H4        1.0  0.6359793568789627  0.3009192674403707  0.45012032944218566  1.0000
  H   H5        1.0  0.6680428694658433  0.6396564134950965  0.18652410502935626  1.0000
  H   H6        1.0  0.018887929446457025  0.5464316455051162  0.1864553768650339  1.0000
  H   H7        1.0  0.3319603818491644  0.36034015914196976  0.8134738269187665  1.0000
  H   H8        1.0  0.9811223821156788  0.45356662662768327  0.8135415933147669  1.0000
  C   C1        1.0  0.8294370960636215  0.8078004289033129  0.5338248532102269  1.0000
  C   C2        1.0  0.20490528832396393  0.725997358280516  0.5337797778985092  1.0000
  C   C3        1.0  0.17056789234958813  0.19218812223970622  0.46617826925469064  1.0000
  C   C4        1.0  0.7950940769444019  0.2739975191333883  0.46622273598255515  1.0000
  C   C5        1.0  0.8215603149962334  0.6907483721554752  0.3345276290742587  1.0000
  C   C6        1.0  0.013436254078236152  0.6435014757031254  0.33451665079968507  1.0000
  C   C7        1.0  0.1784367713550665  0.30924019498425537  0.6654638648404898  1.0000
  C   C8        1.0  0.9865609627204397  0.35649182867548745  0.6654806534728409  1.0000
  N   N1        1.0  0.01651404670976581  0.877263531771682  0.7201218856947519  1.0000
  N   N2        1.0  0.20394603012081805  0.8428931021683612  0.7200733347565773  1.0000
  N   N3        1.0  0.9834819776405227  0.12273935166092538  0.2798749166565244  1.0000
  N   N4        1.0  0.7960546523814146  0.15712248184699007  0.2799377731114631  1.0000
  Cl  Cl1       1.0  0.7016081369068632  0.6920915227293066  0.8565881409962018  1.0000
  Cl  Cl2       1.0  0.6550181272412345  0.1644918280433885  0.8564056403057662  1.0000
  Cl  Cl3       1.0  0.29838988874609385  0.3079081831606487  0.143409349675153  1.0000
  Cl  Cl4       1.0  0.34498492391689695  0.8355127282068298  0.14359277841580836  1.0000
