data_image0
_chemical_formula_structural       Zn4H48C24S8N16O16
_chemical_formula_sum              "Zn4 H48 C24 S8 N16 O16"
_cell_length_a       8.217454508
_cell_length_b       11.088367845
_cell_length_c       13.535
_cell_angle_alpha    90.0
_cell_angle_beta     90.0
_cell_angle_gamma    90.0

_space_group_name_H-M_alt    "P 1"
_space_group_IT_number       1

loop_
  _space_group_symop_operation_xyz
  'x, y, z'

loop_
  _atom_site_type_symbol
  _atom_site_label
  _atom_site_symmetry_multiplicity
  _atom_site_fract_x
  _atom_site_fract_y
  _atom_site_fract_z
  _atom_site_occupancy
  Zn  Zn1       1.0  0.24173787613501213  0.0815656562483014  0.1651643886220882  1.0000
  Zn  Zn2       1.0  0.2582624580317301  0.9184354399454904  0.6651629109715529  1.0000
  Zn  Zn3       1.0  0.7417369933798952  0.418434891848591  0.8348341337273764  1.0000
  Zn  Zn4       1.0  0.7582640091203317  0.5815662043452008  0.3348348725526407  1.0000
  H   H1        1.0  0.7852042251914355  0.19551660174924726  0.2958189878093832  1.0000
  H   H2        1.0  0.714795560386932  0.8044817889065996  0.7958204654599186  1.0000
  H   H3        1.0  0.285202674102834  0.3044857500396176  0.7041795345400813  1.0000
  H   H4        1.0  0.2147988769857605  0.6955162480001604  0.2041802733653526  1.0000
  H   H5        1.0  0.9965665148529225  0.18313335455547988  0.2840317694865178  1.0000
  H   H6        1.0  0.503438138412875  0.81686503610036  0.784033247137053  1.0000
  H   H7        1.0  0.4965613129987503  0.3168671935414125  0.7159674916882182  1.0000
  H   H8        1.0  0.003435370402421299  0.6831330008063929  0.21596896933875334  1.0000
  H   H9        1.0  0.6214235801401315  0.015179871587314198  0.2619416328038398  1.0000
  H   H10       1.0  0.8785786392819546  0.9848185190685256  0.7619438492796462  1.0000
  H   H11       1.0  0.1214195952078185  0.4848233820475301  0.738056889545625  1.0000
  H   H12       1.0  0.3785795220370716  0.5151786159922409  0.2380583671961602  1.0000
  H   H13       1.0  0.7286027557768833  0.8883462505657889  0.2152434429257468  1.0000
  H   H14       1.0  0.771400680567055  0.11165484562800287  0.7152456594015533  1.0000
  H   H15       1.0  0.2286024216101481  0.6116562955708815  0.7847565570742532  1.0000
  H   H16       1.0  0.2713979125565942  0.3883466043148757  0.2847580347247884  1.0000
  H   H17       1.0  0.245832818183942  0.098806245906971  0.8475581824898413  1.0000
  H   H18       1.0  0.254166299060941  0.9011903410569104  0.3475581824898413  1.0000
  H   H19       1.0  0.745833152350684  0.40119159665197657  0.1524425563354299  1.0000
  H   H20       1.0  0.7541690670713947  0.5988085976958288  0.6524410786848873  1.0000
  H   H21       1.0  0.3067190694571238  0.0584224846303343  0.9667912818618376  1.0000
  H   H22       1.0  0.193278830865907  0.9415768078714919  0.46679054303657347  1.0000
  H   H23       1.0  0.8067206205457254  0.4415780634665651  0.0332087181381624  1.0000
  H   H24       1.0  0.6932791650326493  0.5584221308812474  0.5332079793128912  1.0000
  H   H25       1.0  0.0890932829974602  0.2678184960592844  0.8212537864794953  1.0000
  H   H26       1.0  0.41090583424742266  0.7321789927505761  0.3212537864794953  1.0000
  H   H27       1.0  0.5890936171642024  0.23218024834564935  0.17874621352050468  1.0000
  H   H28       1.0  0.9109073853360243  0.7678199460021631  0.6787454746952333  1.0000
  H   H29       1.0  0.0495554918623  0.3670152412769241  0.9185600295530134  1.0000
  H   H30       1.0  0.45044362538259  0.6329831493789158  0.4185600295530136  1.0000
  H   H31       1.0  0.5495558260290423  0.132984404973989  0.0814399704469864  1.0000
  H   H32       1.0  0.9504439595493253  0.8670166912198097  0.5814392316217223  1.0000
  H   H33       1.0  0.5760226594977595  0.1193638250914262  0.4278463243442943  1.0000
  H   H34       1.0  0.9239746922368963  0.8806345655644136  0.927844846693759  1.0000
  H   H35       1.0  0.0760247591747287  0.380633115621535  0.5721529368304417  1.0000
  H   H36       1.0  0.4239743580701542  0.6193643731883256  0.0721544144809769  1.0000
  H   H37       1.0  0.3911162510082704  0.11757275896901828  0.49314000738825564  1.0000
  H   H38       1.0  0.10888408315846479  0.8824292390707598  0.9931370520871781  1.0000
  H   H39       1.0  0.891117802096872  0.3824295928198467  0.5068629479128219  1.0000
  H   H40       1.0  0.6088771157940656  0.6175706015279658  0.0068607314370155  1.0000
  H   H41       1.0  0.3705600069991917  0.34268974957512904  0.4846043590690811  1.0000
  H   H42       1.0  0.1294415440894099  0.6573131503106282  0.9846065755448805  1.0000
  H   H43       1.0  0.8705542565566446  0.1573135040597151  0.5153919468045842  1.0000
  H   H44       1.0  0.6294443120998634  0.8426866902880973  0.015396379756189998  1.0000
  H   H45       1.0  0.5529522549320305  0.2968335868731272  0.5421824898411529  1.0000
  H   H46       1.0  0.9470499644900485  0.7031684111666507  0.042183228666417  1.0000
  H   H47       1.0  0.0529470530778653  0.2031678630697513  0.4578160325083118  1.0000
  H   H48       1.0  0.4470471964795947  0.7968332331240403  0.957817510158847  1.0000
  C   C1        1.0  0.8726741344316054  0.030933317219869097  0.2455966014037685  1.0000
  C   C2        1.0  0.6273317357560444  0.9690731900498193  0.7455988178795747  1.0000
  C   C3        1.0  0.3726713664211515  0.46906542718505756  0.7544041374215027  1.0000
  C   C4        1.0  0.1273301846674499  0.5309329634707822  0.254405615072038  1.0000
  C   C5        1.0  0.1746538418439414  0.21459154613751247  0.956936091614331  1.0000
  C   C6        1.0  0.3253464923228009  0.7854077463643137  0.4569353527890669  1.0000
  C   C7        1.0  0.6746541760106837  0.2854090019593869  0.043063908385669  1.0000
  C   C8        1.0  0.825345609567691  0.7145920942344048  0.5430631695603978  1.0000
  C   C9        1.0  0.364232013342594  0.161419608820708  0.3413084595493173  1.0000
  C   C10       1.0  0.1357658869804368  0.83858238921907  0.8413077207240462  1.0000
  C   C11       1.0  0.8642323475093363  0.3385791355842258  0.6586922792759538  1.0000
  C   C12       1.0  0.6357686549908905  0.66141564768769  0.1586908016254185  1.0000
  C   C13       1.0  0.4601084187711847  0.167351951697448  0.4366442556335456  1.0000
  C   C14       1.0  0.03989191539555749  0.8326491444963436  0.9366427779830104  1.0000
  C   C15       1.0  0.9601087529379269  0.3326476945534651  0.5633564831917255  1.0000
  C   C16       1.0  0.5398898157185883  0.6673497942563955  0.0633564831917255  1.0000
  C   C17       1.0  0.5830893247215769  0.3711438921874972  0.3983775397118591  1.0000
  C   C18       1.0  0.916912894700509  0.6288544984683426  0.8983760620613239  1.0000
  C   C19       1.0  0.08308533978926387  0.1288548522174295  0.6016209826376054  1.0000
  C   C20       1.0  0.4169125605337669  0.8711444402843966  0.1016217214628767  1.0000
  C   C21       1.0  0.4869585826248652  0.2962780497475492  0.4714732175840409  1.0000
  C   C22       1.0  0.013041751541877  0.7037230464462496  0.971472478758777  1.0000
  C   C23       1.0  0.9869540491041774  0.20372159650336386  0.5285253047654237  1.0000
  C   C24       1.0  0.5130433026304715  0.796276794152476  0.028526782415958993  1.0000
  S   S1        1.0  0.0423184575784958  0.9482207072288913  0.21174141115626094  1.0000
  S   S2        1.0  0.4576830935101057  0.051779487118921  0.7117443664573313  1.0000
  S   S3        1.0  0.5423175748233788  0.5517791333698341  0.788258588843739  1.0000
  S   S4        1.0  0.9576846445987073  0.4482219628239647  0.2882608053195383  1.0000
  S   S5        1.0  0.17780080176623864  0.25541450640790936  0.0799002585888431  1.0000
  S   S6        1.0  0.3221995324005035  0.7445847860939167  0.5799002585888431  1.0000
  S   S7        1.0  0.6778011359329807  0.24458784538095557  0.9200990025858855  1.0000
  S   S8        1.0  0.8221962158016751  0.7554168581967744  0.4200990025858857  1.0000
  N   N1        1.0  0.8846157886147168  0.1440753068739866  0.277946804580715  1.0000
  N   N2        1.0  0.61538521388551  0.8559221819358739  0.7779490210565213  1.0000
  N   N3        1.0  0.3846105867605515  0.35593065229880944  0.7220546730698202  1.0000
  N   N4        1.0  0.11538731356247917  0.6440767568168653  0.22205541189508435  1.0000
  N   N5        1.0  0.7290992598945607  0.9755141740610255  0.24024233468784925  1.0000
  N   N6        1.0  0.7709017426056659  0.024485118440800598  0.7402452899889196  1.0000
  N   N7        1.0  0.2290916241966769  0.5244910776135966  0.7597584041374218  1.0000
  N   N8        1.0  0.2709038422826424  0.4755145278101125  0.2597598817879572  1.0000
  N   N9        1.0  0.23750907268180294  0.1123664021086626  0.9220096047284798  1.0000
  N   N10       1.0  0.2624888276412207  0.8876319885471844  0.4220088659032157  1.0000
  N   N11       1.0  0.7375106237704045  0.3876332441422505  0.07799113409678429  1.0000
  N   N12       1.0  0.762489161807963  0.6123678520515412  0.577989656446249  1.0000
  N   N13       1.0  0.10600971373214207  0.2914865420394079  0.8932700406353928  1.0000
  N   N14       1.0  0.3939894035127408  0.708511848616439  0.39327004063539306  1.0000
  N   N15       1.0  0.6060088309770322  0.20851310421150518  0.10672995936460689  1.0000
  N   N16       1.0  0.893989737679483  0.7914879919822865  0.6067292205393429  1.0000
  O   O1        1.0  0.4152149545431953  0.08888323455506959  0.2732257111193235  1.0000
  O   O2        1.0  0.0847853796235469  0.9111160579467563  0.7732257111193235  1.0000
  O   O3        1.0  0.9152165056317969  0.411118215387809  0.7267735500554124  1.0000
  O   O4        1.0  0.5847832799465706  0.5888828808059827  0.22677502770594765  1.0000
  O   O5        1.0  0.2370393408449871  0.2240455975782041  0.33068858514960897  1.0000
  O   O6        1.0  0.2629609933217552  0.7759518912316565  0.8306885851496091  1.0000
  O   O7        1.0  0.7370433257773001  0.2759531468267227  0.6693136313261903  1.0000
  O   O8        1.0  0.7629637613322087  0.7240398327532205  0.1693091983745845  1.0000
  O   O9        1.0  0.6098348332955581  0.4822639431475294  0.4247720724048776  1.0000
  O   O10       1.0  0.8901673861265278  0.5177353493542967  0.9247713335796062  1.0000
  O   O11       1.0  0.1098296314413858  0.017733899411418  0.5752257111193231  1.0000
  O   O12       1.0  0.3901707027253565  0.982265393090408  0.0752294052456577  1.0000
  O   O13       1.0  0.6326642873335899  0.3268217695027218  0.3183243442925772  1.0000
  O   O14       1.0  0.8673354982447776  0.673176621153118  0.8183221278167707  1.0000
  O   O15       1.0  0.1326627362449884  0.1731733675182738  0.6816719615810882  1.0000
  O   O16       1.0  0.36733638099989446  0.8268232194456004  0.1816749168821588  1.0000
