data_image0
_chemical_formula_structural       Co2H32C32N4O8
_chemical_formula_sum              "Co2 H32 C32 N4 O8"
_cell_length_a       4.862551780194202
_cell_length_b       9.470805474843452
_cell_length_c       15.366856024712305
_cell_angle_alpha    102.51092424781999
_cell_angle_beta     90.0128758371699
_cell_angle_gamma    90.00387920123559

_space_group_name_H-M_alt    "P 1"
_space_group_IT_number       1

loop_
  _space_group_symop_operation_xyz
  'x, y, z'

loop_
  _atom_site_type_symbol
  _atom_site_label
  _atom_site_symmetry_multiplicity
  _atom_site_fract_x
  _atom_site_fract_y
  _atom_site_fract_z
  _atom_site_occupancy
  Co  Co1       1.0  0.9999925258724076  0.49999801755211587  0.4999986578676073  1.0000
  Co  Co2       1.0  0.4999943997634801  0.9999994176016358  0.5000008307004151  1.0000
  H   H1        1.0  0.7182401658300748  0.1746263703477027  0.3689263785940895  1.0000
  H   H2        1.0  0.7823828684614328  0.6743774031414491  0.3697344505618574  1.0000
  H   H3        1.0  0.2817493463783336  0.8253724323373746  0.6310677611044824  1.0000
  H   H4        1.0  0.21760048294191853  0.32562172017674135  0.630267538826928  1.0000
  H   H5        1.0  0.2458141732969494  0.4051185836349164  0.2822143480590569  1.0000
  H   H6        1.0  0.2542503531110398  0.9037224550092521  0.28227016657229603  1.0000
  H   H7        1.0  0.7541650699383949  0.5948881619331416  0.7177898478519182  1.0000
  H   H8        1.0  0.7457165421247537  0.0962807808536965  0.7177271038864959  1.0000
  H   H9        1.0  0.3462782221045373  0.37661428623991366  0.12179875953662393  1.0000
  H   H10       1.0  0.15539043777445727  0.8741286262546311  0.12159932321990401  1.0000
  H   H11       1.0  0.653707183649523  0.6233943278379785  0.8781984973971007  1.0000
  H   H12       1.0  0.8446134703984284  0.1258627402824217  0.8783971882657653  1.0000
  H   H13       1.0  0.08976241239560069  0.19516836821269834  0.00903396875363431  1.0000
  H   H14       1.0  0.41295717510553226  0.6921517347344661  0.009539523649095822  1.0000
  H   H15       1.0  0.9102456161834452  0.8048296455309014  0.9909672370178129  1.0000
  H   H16       1.0  0.5870858091767347  0.30785352504196345  0.9904547291188024  1.0000
  H   H17       1.0  0.7280220915533774  0.0427979091115844  0.0590645053664289  1.0000
  H   H18       1.0  0.7768212297233815  0.5415268797471029  0.06037878914833072  1.0000
  H   H19       1.0  0.2719921036938473  0.9571999974775313  0.9409340836411246  1.0000
  H   H20       1.0  0.2232197131953555  0.458492756363441  0.9396249809909493  1.0000
  H   H21       1.0  0.6284715858244  0.07111089205743333  0.21993515214460055  1.0000
  H   H22       1.0  0.8739705726608875  0.5710377340673533  0.22149226631260185  1.0000
  H   H23       1.0  0.3715364439725519  0.9288850392825341  0.7800677593770403  1.0000
  H   H24       1.0  0.1260333492266881  0.42897433593081763  0.7785106075409942  1.0000
  H   H25       1.0  0.5709621229203563  0.38866381944918527  0.42791579332973134  1.0000
  H   H26       1.0  0.9287348040641987  0.8881350582046464  0.4289820389181855  1.0000
  H   H27       1.0  0.42903356010030796  0.6113297100995538  0.5720809751541083  1.0000
  H   H28       1.0  0.07125677664620872  0.11186311675505321  0.5710230923499751  1.0000
  H   H29       1.0  0.740513829893672  0.4604530385799565  0.35575783374311243  1.0000
  H   H30       1.0  0.7626368253310006  0.9596919868724854  0.3561579456371788  1.0000
  H   H31       1.0  0.2594798041812965  0.5395492743638002  0.6442432318086303  1.0000
  H   H32       1.0  0.23736503462370004  0.04030499942687981  0.6438444403679995  1.0000
  C   C1        1.0  0.13271019438899148  0.22450789358399706  0.4101766804542564  1.0000
  C   C2        1.0  0.3678553753640941  0.7241507804006132  0.41071758893905047  1.0000
  C   C3        1.0  0.8672752088970057  0.7754857433960185  0.5898227049939706  1.0000
  C   C4        1.0  0.6321320984177206  0.2758656956754209  0.589287761258234  1.0000
  C   C5        1.0  0.8740899033237638  0.2540642408233539  0.36019114273690184  1.0000
  C   C6        1.0  0.6264536702100402  0.7536478032563708  0.36082605878381463  1.0000
  C   C7        1.0  0.1259098974086257  0.7459315843308688  0.6398091527225631  1.0000
  C   C8        1.0  0.3735379031714672  0.24635010485505401  0.6391725313264516  1.0000
  C   C9        1.0  0.9334447641657205  0.2380156681049571  0.26198229520021243  1.0000
  C   C10       1.0  0.5676050877003574  0.7372915717508237  0.2626408531716393  1.0000
  C   C11       1.0  0.0665673733088425  0.761971559756077  0.7380182815006507  1.0000
  C   C12       1.0  0.43238237922142275  0.2627129574358876  0.7373617775095982  1.0000
  C   C13       1.0  0.1347182332107266  0.32414397338245493  0.233385522611087  1.0000
  C   C14       1.0  0.36623306104484493  0.8228613480314168  0.23367940750048183  1.0000
  C   C15       1.0  0.8653021267431312  0.6758495011359288  0.7666099364382077  1.0000
  C   C16       1.0  0.6337400040116846  0.1771280716020129  0.7663220818180321  1.0000
  C   C17       1.0  0.1893598783696646  0.3087315544143081  0.1427447807551587  1.0000
  C   C18       1.0  0.31238191451394204  0.8066671867086015  0.14293014688752953  1.0000
  C   C19       1.0  0.8106358134456998  0.6912622953523668  0.8572598371181641  1.0000
  C   C20       1.0  0.6876199508350139  0.19334169311043334  0.8570736504021212  1.0000
  C   C21       1.0  0.04525679803879261  0.2069530786662455  0.07973813493314451  1.0000
  C   C22       1.0  0.4573085027246364  0.704626563729292  0.08031674984324871  1.0000
  C   C23       1.0  0.9547779561766419  0.7930371511962165  0.9202569385186622  1.0000
  C   C24       1.0  0.5427159742188082  0.2953755603447945  0.9196797353942614  1.0000
  C   C25       1.0  0.8441206566201842  0.12133438175158767  0.1077711115643254  1.0000
  C   C26       1.0  0.6592046232283053  0.6198276664878151  0.10876296179626624  1.0000
  C   C27       1.0  0.155889430432147  0.8786551954997533  0.892234300644489  1.0000
  C   C28       1.0  0.3407910737441782  0.3801823216602855  0.8912416182085039  1.0000
  C   C29       1.0  0.7883213753619386  0.13695910492511842  0.1985236688866792  1.0000
  C   C30       1.0  0.7140965785815324  0.6363120065124407  0.1996110565722304  1.0000
  C   C31       1.0  0.21170926798567546  0.8630312052686052  0.8014733671129904  1.0000
  C   C32       1.0  0.2859196768849018  0.3636987946325264  0.800387109570764  1.0000
  N   N1        1.0  0.7650360452811712  0.4003489994515805  0.40306118514897094  1.0000
  N   N2        1.0  0.7355670554649408  0.9000359638453403  0.4035731941230765  1.0000
  N   N3        1.0  0.23495758291991106  0.5996467193784982  0.5969364941480749  1.0000
  N   N4        1.0  0.2644286370940705  0.09996429324121443  0.5964302311944039  1.0000
  O   O1        1.0  0.22983249383727866  0.33394035671711464  0.4678964248650672  1.0000
  O   O2        1.0  0.2709211669919824  0.8334898467258257  0.46850120847759774  1.0000
  O   O3        1.0  0.7701590790538405  0.6660564701652446  0.5321020369466112  1.0000
  O   O4        1.0  0.7290704090732022  0.166506032351613  0.5315003956144366  1.0000
  O   O5        1.0  0.24145494199891  0.10163005021103541  0.39335815932964385  1.0000
  O   O6        1.0  0.25861559470355633  0.6014078942156827  0.3936668419332179  1.0000
  O   O7        1.0  0.7585366308922091  0.8983667766713312  0.6066403024820346  1.0000
  O   O8        1.0  0.7413574686608159  0.39859209754489916  0.6063300433290664  1.0000
