data_image0
_chemical_formula_structural       Y8H72C114O66F36
_chemical_formula_sum              "Y8 H72 C114 O66 F36"
_cell_length_a       7.887889537771751
_cell_length_b       21.351436135443706
_cell_length_c       22.947264224183208
_cell_angle_alpha    82.56440624339336
_cell_angle_beta     82.42046014757562
_cell_angle_gamma    80.01879131228532

_space_group_name_H-M_alt    "P 1"
_space_group_IT_number       1

loop_
  _space_group_symop_operation_xyz
  'x, y, z'

loop_
  _atom_site_type_symbol
  _atom_site_label
  _atom_site_symmetry_multiplicity
  _atom_site_fract_x
  _atom_site_fract_y
  _atom_site_fract_z
  _atom_site_occupancy
  Y   Y1        1.0  0.8058568398099196  0.42186412019381697  0.2878103450865622  1.0000
  Y   Y2        1.0  0.3794107796914972  0.47154623635940146  0.43392936244679  1.0000
  Y   Y3        1.0  0.4686861121890332  0.247068153275208  0.09745693018604838  1.0000
  Y   Y4        1.0  0.23157134122438086  0.09489397369119248  0.0362266093659542  1.0000
  Y   Y5        1.0  0.1941513550545154  0.5781373772148511  0.7121848068130278  1.0000
  Y   Y6        1.0  0.6205946801960992  0.5284557419258675  0.566069779589526  1.0000
  Y   Y7        1.0  0.5313105444614549  0.7529304843588349  0.9025443291627154  1.0000
  Y   Y8        1.0  0.7684238328160264  0.905105143355442  0.9637746604585827  1.0000
  H   H1        1.0  0.5036331080125648  0.41580349896368324  0.2231437982774835  1.0000
  H   H2        1.0  0.632372309335473  0.4587397681602212  0.18457624446224938  1.0000
  H   H3        1.0  0.005748583241754131  0.4523869491256818  0.16173043443144763  1.0000
  H   H4        1.0  0.9251693016074968  0.3881607370733846  0.1666125065468478  1.0000
  H   H5        1.0  0.19923771552448946  0.4009502362161684  0.2585558736892892  1.0000
  H   H6        1.0  0.15653874281704822  0.4516659512400522  0.3044374848083891  1.0000
  H   H7        1.0  0.07364513975209523  0.423832656127388  0.40240308789918083  1.0000
  H   H8        1.0  0.9957940440605173  0.4669678427907088  0.452099618883139  1.0000
  H   H9        1.0  0.8464237588537598  0.2634952110350426  0.05181236431241128  1.0000
  H   H10       1.0  0.819140192686497  0.2706974211574007  0.1216351238262732  1.0000
  H   H11       1.0  0.10636326147555762  0.30734799200831026  0.1098698341879967  1.0000
  H   H12       1.0  0.13322273142618707  0.3050584467169557  0.0415511715359358  1.0000
  H   H13       1.0  0.44144437011703264  0.3676197573261391  0.1422541736925069  1.0000
  H   H14       1.0  0.6022755693598186  0.3623996819000084  0.09369278067077152  1.0000
  H   H15       1.0  0.9076945540048699  0.032653538275951605  0.053369940636144995  1.0000
  H   H16       1.0  0.868088559680686  0.10070026021841019  0.0801058978092328  1.0000
  H   H17       1.0  0.38637455810894045  0.9572920453876962  0.07662520029584387  1.0000
  H   H18       1.0  0.1835369098509717  0.9579882634981942  0.0796318758694312  1.0000
  H   H19       1.0  0.5684208801433073  0.6395144132250365  0.24396942192272772  1.0000
  H   H20       1.0  0.5380199410288711  0.7124692759629809  0.44136589562064904  1.0000
  H   H21       1.0  0.4389154332788863  0.7896010645001895  0.35946801754076313  1.0000
  H   H22       1.0  0.36783160343252785  0.7664814096539487  0.12187774816490558  1.0000
  H   H23       1.0  0.9925219358659585  0.7460491919128813  0.14472051074665873  1.0000
  H   H24       1.0  0.7797031329754277  0.7440945604432727  0.2335773409382753  1.0000
  H   H25       1.0  0.33006995853982346  0.28725256587723885  0.43739286954047435  1.0000
  H   H26       1.0  0.3295811800584758  0.18098971415195564  0.25823052042593275  1.0000
  H   H27       1.0  0.22662268079579911  0.1286404059170465  0.3554159377102978  1.0000
  H   H28       1.0  0.9760129390041992  0.26618818042374665  0.4127404551123418  1.0000
  H   H29       1.0  0.9885878040267428  0.3137557447682013  0.6174258006002091  1.0000
  H   H30       1.0  0.15433523742073868  0.21241844286784334  0.5850219158006738  1.0000
  H   H31       1.0  0.6447399961105373  0.09593837063435731  0.21595562288436554  1.0000
  H   H32       1.0  0.8387122479633573  0.8751604924071827  0.1631814147987996  1.0000
  H   H33       1.0  0.9017894346471139  0.9025808647760344  0.2578998355878497  1.0000
  H   H34       1.0  0.0323706302789333  0.0665541279390496  0.2086951094073655  1.0000
  H   H35       1.0  0.7628720314764196  0.2461697940907541  0.32281761691360333  1.0000
  H   H36       1.0  0.7027128271504209  0.1375781219055909  0.3595907087936467  1.0000
  H   H37       1.0  0.4963671834965879  0.5841956140605119  0.776857235886368  1.0000
  H   H38       1.0  0.3676209546087533  0.5412607847564673  0.8154218894903025  1.0000
  H   H39       1.0  0.9942587687417443  0.5476135929839501  0.8382692296463291  1.0000
  H   H40       1.0  0.07483359054558746  0.611841243070309  0.8333854464045416  1.0000
  H   H41       1.0  0.8007633235332889  0.5990531807652887  0.7414472205201149  1.0000
  H   H42       1.0  0.8434556422521665  0.5483350798419977  0.6955670763658972  1.0000
  H   H43       1.0  0.9263564880340385  0.5761693252765809  0.5975971021594829  1.0000
  H   H44       1.0  0.0042084536069708495  0.5330350943706892  0.5478999797431285  1.0000
  H   H45       1.0  0.15356999848651037  0.7365072549623762  0.9481894377131468  1.0000
  H   H46       1.0  0.18085105982913774  0.7293079161856824  0.8783655752011869  1.0000
  H   H47       1.0  0.8936351289375535  0.692652557038727  0.8901293710191283  1.0000
  H   H48       1.0  0.8667737129812706  0.6949406691712811  0.9584487324581659  1.0000
  H   H49       1.0  0.5585476474605143  0.632380797156415  0.857748811197844  1.0000
  H   H50       1.0  0.39771686370365705  0.6375999159213706  0.9063116080136524  1.0000
  H   H51       1.0  0.09230128667400814  0.9673470129351074  0.9466306893165921  1.0000
  H   H52       1.0  0.13190897585130298  0.8992993333258568  0.9198960770224006  1.0000
  H   H53       1.0  0.6136223616942756  0.0427089832756735  0.9233757579407325  1.0000
  H   H54       1.0  0.8164587305850618  0.042012766170785205  0.920369141282322  1.0000
  H   H55       1.0  0.43156895818524527  0.3604851859963746  0.7560298569309865  1.0000
  H   H56       1.0  0.46197439303956145  0.287531754253223  0.5586312597004834  1.0000
  H   H57       1.0  0.5610807928854484  0.2103985295403703  0.64052965982183  1.0000
  H   H58       1.0  0.6321680573476272  0.23351913823468345  0.878120091211784  1.0000
  H   H59       1.0  0.007480116406227908  0.2539518329827004  0.8552823900213441  1.0000
  H   H60       1.0  0.2202922443078776  0.2559040781963802  0.7664239773256655  1.0000
  H   H61       1.0  0.6699397609353356  0.7127484528318888  0.5626083708212306  1.0000
  H   H62       1.0  0.6704340184616128  0.8190074745390988  0.741773108897597  1.0000
  H   H63       1.0  0.7733896154140181  0.8713606110864519  0.6445877986515994  1.0000
  H   H64       1.0  0.023995686346395994  0.7338123605784119  0.5872582787734189  1.0000
  H   H65       1.0  0.011398671596005314  0.6862457702451722  0.3825747092414886  1.0000
  H   H66       1.0  0.8456480218293198  0.7875816401451344  0.41498065865843614  1.0000
  H   H67       1.0  0.35526431874279035  0.9040602606604226  0.7840426691428489  1.0000
  H   H68       1.0  0.1612799039471113  0.12483671407927943  0.8368206611672876  1.0000
  H   H69       1.0  0.09819417417893558  0.09741539203758978  0.7421036209400853  1.0000
  H   H70       1.0  0.967628579105835  0.9334445075819032  0.7913051608342201  1.0000
  H   H71       1.0  0.23712568329808914  0.7538293206390704  0.6771809212500628  1.0000
  H   H72       1.0  0.29728576050548833  0.862421948632601  0.6404076735760427  1.0000
  C   C1        1.0  0.4295866484430915  0.7649332105237008  0.24147451559454683  1.0000
  C   C2        1.0  0.494085128171811  0.720236250830581  0.29498518895763937  1.0000
  C   C3        1.0  0.5562812551638744  0.6559185154522496  0.2875704404452009  1.0000
  C   C4        1.0  0.6010927485521055  0.6111051815260921  0.3353888885876373  1.0000
  C   C5        1.0  0.5937016401103179  0.6319653974945256  0.39152449351623625  1.0000
  C   C6        1.0  0.5409470766253434  0.6968462012872861  0.39795091822074374  1.0000
  C   C7        1.0  0.4867390116414896  0.7403895676874653  0.3510869247082553  1.0000
  C   C8        1.0  0.660038995681262  0.5434346999765935  0.32137766918309296  1.0000
  C   C9        1.0  0.6272395749536129  0.5899170702663101  0.4474049029809564  1.0000
  C   C10       1.0  0.5566482678053362  0.7574089467450591  0.18502104585394355  1.0000
  C   C11       1.0  0.5032746524364242  0.7627135867834697  0.12862663652413892  1.0000
  C   C12       1.0  0.6237247068913233  0.7655714315628259  0.0782540119188653  1.0000
  C   C13       1.0  0.8007761003610911  0.7619383401361687  0.08347535471181539  1.0000
  C   C14       1.0  0.8551990675615782  0.751798212072579  0.139899356704241  1.0000
  C   C15       1.0  0.7346637797093647  0.7503039011121331  0.18997995323455544  1.0000
  C   C16       1.0  0.5669874557295884  0.7721174102734523  0.018235594871356394  1.0000
  C   C17       1.0  0.9292692623804587  0.7707982367778214  0.029354022837907195  1.0000
  C   C18       1.0  0.2471562098324469  0.7499341510904145  0.23450953224471496  1.0000
  C   C19       1.0  0.40790110364441307  0.836953096554147  0.2521002375658341  1.0000
  C   C20       1.0  0.2009920021973741  0.17751816184453872  0.4669728170029899  1.0000
  C   C21       1.0  0.27024425148065484  0.20384124885800498  0.40416414525389394  1.0000
  C   C22       1.0  0.32993693653288153  0.2628244332834058  0.3985854011379928  1.0000
  C   C23       1.0  0.3862610428877745  0.29245803883421917  0.3435706484742482  1.0000
  C   C24       1.0  0.3851763713877929  0.2630380587782284  0.2922662988967417  1.0000
  C   C25       1.0  0.33038918829757347  0.20354125178617724  0.2980472450568996  1.0000
  C   C26       1.0  0.2717277625417367  0.1742810929247938  0.3532179783778631  1.0000
  C   C27       1.0  0.45715011968131597  0.353463652088351  0.3420693214309551  1.0000
  C   C28       1.0  0.43034911377504415  0.2946610772782847  0.2315515478353305  1.0000
  C   C29       1.0  0.08182567824790972  0.23287121383838644  0.4956767718815058  1.0000
  C   C30       1.0  0.9785634630065729  0.2755071770886062  0.45812311257972027  1.0000
  C   C31       1.0  0.8859310499260645  0.33251402677747416  0.476208197502821  1.0000
  C   C32       1.0  0.8936898195531809  0.3469554250792228  0.5337997100700704  1.0000
  C   C33       1.0  0.9846980350909291  0.30209970733974245  0.5728558537809221  1.0000
  C   C34       1.0  0.07907534778120615  0.2452778241081646  0.5541935038475572  1.0000
  C   C35       1.0  0.7835602948816387  0.3759905479670921  0.4318527910098595  1.0000
  C   C36       1.0  0.821707388171376  0.41212986066808815  0.5503583574024304  1.0000
  C   C37       1.0  0.36213519146568274  0.15077639301540566  0.5004879135055944  1.0000
  C   C38       1.0  0.09223873446941155  0.12290327244811293  0.46777519977801774  1.0000
  C   C39       1.0  0.820679403951033  0.0245429346639838  0.3007148792681562  1.0000
  C   C40       1.0  0.7798004682442538  0.0017197849283406002  0.24404357227238901  1.0000
  C   C41       1.0  0.6863522095410061  0.046869235020857  0.2057482693283248  1.0000
  C   C42       1.0  0.6516758760571761  0.03176824388877719  0.15171459222015926  1.0000
  C   C43       1.0  0.706664622929175  0.9693725539246574  0.1361671379074707  1.0000
  C   C44       1.0  0.7942989339962098  0.9234453227986351  0.17532805531916298  1.0000
  C   C45       1.0  0.8310656909270123  0.9393404355203285  0.22885291694139206  1.0000
  C   C46       1.0  0.5716570497759006  0.08395853806276682  0.1090411162041107  1.0000
  C   C47       1.0  0.7071594833735587  0.9533689471742407  0.07461447373332672  1.0000
  C   C48       1.0  0.8595202299964982  0.0934708037391871  0.286110222627471  1.0000
  C   C49       1.0  0.9719858039193738  0.1052293337261858  0.2347619050678773  1.0000
  C   C50       1.0  0.008668546763424002  0.1663070516489853  0.21449642771976582  1.0000
  C   C51       1.0  0.9293227941372137  0.21815400482422828  0.24590194306881588  1.0000
  C   C52       1.0  0.823606589926669  0.20592742577441916  0.298626075672189  1.0000
  C   C53       1.0  0.7883969815188223  0.14441130857827034  0.3188523296830894  1.0000
  C   C54       1.0  0.14217672653089863  0.1715787308335521  0.1621104169585124  1.0000
  C   C55       1.0  0.9394769654200201  0.28680206707023365  0.22399148882963263  1.0000
  C   C56       1.0  0.6593731575339846  0.018087442587152204  0.3466926374622332  1.0000
  C   C57       1.0  0.9836522426607741  0.9836061545063829  0.32603050781276005  1.0000
  C   C58       1.0  0.5704099812069785  0.235065426651957  0.7585228230084339  1.0000
  C   C59       1.0  0.5059136657270359  0.2797633413515541  0.7050136774898731  1.0000
  C   C60       1.0  0.443717535734919  0.3440810766789539  0.7124279903638921  1.0000
  C   C61       1.0  0.39890288288378895  0.3888958479900919  0.6646108216488501  1.0000
  C   C62       1.0  0.4062923084726505  0.36803658989217775  0.608475614395033  1.0000
  C   C63       1.0  0.45904175148884  0.3031557900709245  0.6020489897127987  1.0000
  C   C64       1.0  0.5132584968900815  0.2596100253984162  0.6489111293775878  1.0000
  C   C65       1.0  0.3399615379802938  0.45656680372039926  0.6786200143996198  1.0000
  C   C66       1.0  0.37276547844819424  0.41008586483293635  0.5525941421765524  1.0000
  C   C67       1.0  0.4433541609521754  0.24259112082722822  0.8149775954086564  1.0000
  C   C68       1.0  0.4967279855640712  0.2372860024836996  0.871372924454704  1.0000
  C   C69       1.0  0.37628070808666797  0.2344276775407863  0.9217476578611468  1.0000
  C   C70       1.0  0.19922931161685398  0.2380607689165188  0.916525879429777  1.0000
  C   C71       1.0  0.14480405483480754  0.24820329012251818  0.8601025654323422  1.0000
  C   C72       1.0  0.26533589907106847  0.24969664708209643  0.8100204999726657  1.0000
  C   C73       1.0  0.4330211127112165  0.2278802613433157  0.9817639242044222  1.0000
  C   C74       1.0  0.0707360896876494  0.22919800283855102  0.9706475608552764  1.0000
  C   C75       1.0  0.7528453370435245  0.25006496052071725  0.7654879578966031  1.0000
  C   C76       1.0  0.5920940523957228  0.1630460201868971  0.7478984184281785  1.0000
  C   C77       1.0  0.7990038534817356  0.822482389621186  0.533029991141845  1.0000
  C   C78       1.0  0.7297750452936711  0.7961583277946146  0.5958385705735125  1.0000
  C   C79       1.0  0.6700819327553305  0.7371760998266552  0.6014141683416555  1.0000
  C   C80       1.0  0.6137539822987962  0.7075424971908147  0.6564282264740768  1.0000
  C   C81       1.0  0.614838211403523  0.7369605650319216  0.7077363138317381  1.0000
  C   C82       1.0  0.6696294418382892  0.7964568907020179  0.7019561106423069  1.0000
  C   C83       1.0  0.7282883657695363  0.8257199209600046  0.6467847099616718  1.0000
  C   C84       1.0  0.5428564043303864  0.64653880339457  0.6579279706971023  1.0000
  C   C85       1.0  0.5696488851525174  0.7053404288373955  0.7684497386850921  1.0000
  C   C86       1.0  0.9181727181652873  0.7671293353105212  0.5043233046024653  1.0000
  C   C87       1.0  0.021441781637946612  0.7244952793999246  0.5418742384635067  1.0000
  C   C88       1.0  0.11407608081426442  0.6674869934335492  0.5237888043050205  1.0000
  C   C89       1.0  0.10631307259990311  0.6530465550644706  0.4661982428813261  1.0000
  C   C90       1.0  0.015293752243309233  0.6979013250914079  0.4271431619242421  1.0000
  C   C91       1.0  0.9209091788358421  0.7547222576954695  0.4458072691427049  1.0000
  C   C92       1.0  0.2164487668641045  0.6240119051480804  0.5681413338189074  1.0000
  C   C93       1.0  0.17829510349601918  0.5878730763914463  0.4496403699469909  1.0000
  C   C94       1.0  0.6378572475978859  0.8492232049078368  0.49951734645566853  1.0000
  C   C95       1.0  0.9077636792878682  0.8770967948695158  0.5322212632924774  1.0000
  C   C96       1.0  0.17931873830957562  0.9754552236083927  0.6992868052432685  1.0000
  C   C97       1.0  0.22020043599361827  0.9982778929258276  0.7559580428480928  1.0000
  C   C98       1.0  0.31364505383811553  0.9531279673412884  0.7942526997002303  1.0000
  C   C99       1.0  0.3483256259091902  0.9682279985406982  0.848285425664848  1.0000
  C   C100      1.0  0.2933364785514954  0.030624645420658705  0.8638336543755757  1.0000
  C   C101      1.0  0.20569449428140274  0.07655188263127852  0.8246735260933279  1.0000
  C   C102      1.0  0.16893050232791043  0.0606562895423082  0.7711490307185755  1.0000
  C   C103      1.0  0.4283372423829663  0.916039623022712  0.8909590024991373  1.0000
  C   C104      1.0  0.2928367008812244  0.0466277777356012  0.9253861670113891  1.0000
  C   C105      1.0  0.14047494104386957  0.9065283132565228  0.7138906115586464  1.0000
  C   C106      1.0  0.02801319922245683  0.8947697801508242  0.765237881095885  1.0000
  C   C107      1.0  0.9913264210340532  0.8336925437537133  0.785504358026941  1.0000
  C   C108      1.0  0.0706732377843693  0.7818460677761152  0.7540969927696395  1.0000
  C   C109      1.0  0.17639241021510801  0.7940716880516588  0.7013732748531467  1.0000
  C   C110      1.0  0.21160032676989718  0.8555887629655318  0.6811461116017696  1.0000
  C   C111      1.0  0.8578208060010439  0.828420862659783  0.8378911222346943  1.0000
  C   C112      1.0  0.06052053111136502  0.7131975258119211  0.7760048227025252  1.0000
  C   C113      1.0  0.340628222099653  0.9819121480421489  0.6533100319007303  1.0000
  C   C114      1.0  0.016349719701118204  0.016392000443566705  0.6739683861226241  1.0000
  O   O1        1.0  0.786838720706946  0.5331980559068228  0.28117060638299307  1.0000
  O   O2        1.0  0.5841400877453893  0.4969169477346825  0.346506533635619  1.0000
  O   O3        1.0  0.5640694664812358  0.5376457493674849  0.4585171450517506  1.0000
  O   O4        1.0  0.7043720998697012  0.608245634981955  0.48553476422803504  1.0000
  O   O5        1.0  0.6456067729923447  0.8062860930474474  0.9759197497770415  1.0000
  O   O6        1.0  0.45192897159437717  0.7419581632099791  0.007065010343801184  1.0000
  O   O7        1.0  0.9551149318131209  0.8283076777490949  0.013076276930256396  1.0000
  O   O8        1.0  0.002901918372678779  0.7225668281084694  0.004035204414265107  1.0000
  O   O9        1.0  0.61050585291585  0.3539918157285484  0.3170212215923485  1.0000
  O   O10       1.0  0.3621233665914616  0.3988956057002754  0.36682345399312055  1.0000
  O   O11       1.0  0.5108237896889137  0.259553300677645  0.19297905276594926  1.0000
  O   O12       1.0  0.3803940593433026  0.3554010749830283  0.21998838179875693  1.0000
  O   O13       1.0  0.8688387491586127  0.38976375241684025  0.3812728140440598  1.0000
  O   O14       1.0  0.6243619650626185  0.3931274651046053  0.4453699101936621  1.0000
  O   O15       1.0  0.750201077568157  0.4214050746034913  0.6020411518336672  1.0000
  O   O16       1.0  0.8312930209282569  0.4591718561927607  0.5094042730573065  1.0000
  O   O17       1.0  0.5873420306921204  0.14112427323384222  0.11526207996933381  1.0000
  O   O18       1.0  0.5009688161815689  0.0675442916182121  0.06792296645079432  1.0000
  O   O19       1.0  0.6004669021262359  0.9210812192261174  0.0600410433613021  1.0000
  O   O20       1.0  0.8320883768234495  0.9690884766721697  0.03711305351372115  1.0000
  O   O21       1.0  0.24377671195335887  0.21186488317304963  0.160641828505419  1.0000
  O   O22       1.0  0.15115969309998428  0.1328585602996526  0.1237432232317133  1.0000
  O   O23       1.0  0.9480876810200911  0.32367007614854504  0.2621789903902965  1.0000
  O   O24       1.0  0.9283998929815596  0.3066472326541856  0.168973145543525  1.0000
  O   O25       1.0  0.5760924674267828  0.4491455262848304  0.2244766509142408  1.0000
  O   O26       1.0  0.900989521924238  0.43405864622782536  0.17528701383415776  1.0000
  O   O27       1.0  0.10649292517409488  0.4343301921303535  0.2744948722882867  1.0000
  O   O28       1.0  0.08897506208403874  0.46258754922233447  0.4183814363121456  1.0000
  O   O29       1.0  0.7612098145676144  0.2612117705386865  0.08865372362996028  1.0000
  O   O30       1.0  0.1928566921947449  0.31228306189755284  0.0749054532281548  1.0000
  O   O31       1.0  0.4772807868651584  0.3628666593272598  0.09940556537219437  1.0000
  O   O32       1.0  0.9593398420868128  0.06641612646551208  0.0680126421655203  1.0000
  O   O33       1.0  0.270664122975248  0.9847117589734679  0.08094831201788108  1.0000
  O   O34       1.0  0.2131575653672257  0.4668044075700521  0.718826721428009  1.0000
  O   O35       1.0  0.4158553254473815  0.5030845599338319  0.6534909499693597  1.0000
  O   O36       1.0  0.43593431655352777  0.4623571868901664  0.5414832659361863  1.0000
  O   O37       1.0  0.29563637914778707  0.39175825381256857  0.5144631360283043  1.0000
  O   O38       1.0  0.35440139796281755  0.1937125355361006  0.024080979335181493  1.0000
  O   O39       1.0  0.5480886957497758  0.25803615352422327  0.9929344943167635  1.0000
  O   O40       1.0  0.044887721187606595  0.1716919117727329  0.9869254622406912  1.0000
  O   O41       1.0  0.997102823966756  0.2774308467288691  0.9959662339607006  1.0000
  O   O42       1.0  0.3895051758358717  0.6460120709019606  0.6829752539183929  1.0000
  O   O43       1.0  0.6378845921206634  0.6011035011374588  0.6331759197644402  1.0000
  O   O44       1.0  0.489168006645464  0.7404477319063008  0.8070212698544735  1.0000
  O   O45       1.0  0.6196028724601061  0.6445999538840681  0.7800143189915117  1.0000
  O   O46       1.0  0.13117624002740066  0.6102367829970062  0.6187208332432165  1.0000
  O   O47       1.0  0.37565053129894477  0.6068759418586397  0.5546243766492011  1.0000
  O   O48       1.0  0.2498022180706626  0.5785959486752931  0.3979564623581098  1.0000
  O   O49       1.0  0.16871074710627454  0.540831079810232  0.4905939597385327  1.0000
  O   O50       1.0  0.41264568538830565  0.8588743716941349  0.8847417699777367  1.0000
  O   O51       1.0  0.499029119836102  0.9324543450102212  0.9320782339828071  1.0000
  O   O52       1.0  0.3995299517670574  0.0789169398990737  0.9399593931500333  1.0000
  O   O53       1.0  0.1679112390471005  0.030909202034813205  0.9628873136066716  1.0000
  O   O54       1.0  0.7562159602624732  0.7881371052701951  0.8393587739594467  1.0000
  O   O55       1.0  0.8488419346861491  0.8671434211043161  0.8762569668269508  1.0000
  O   O56       1.0  0.05191454149447587  0.6763304697797992  0.7378191667944805  1.0000
  O   O57       1.0  0.07159572945418802  0.6933537967091965  0.8310252577776964  1.0000
  O   O58       1.0  0.4239088882064763  0.5508540639370099  0.775522533341352  1.0000
  O   O59       1.0  0.0990148528389199  0.5659428545032767  0.8247109286414656  1.0000
  O   O60       1.0  0.8935064100304403  0.5656741823650934  0.7255055701269555  1.0000
  O   O61       1.0  0.9110252773347651  0.5374144330344491  0.5816175057464364  1.0000
  O   O62       1.0  0.23878333604402274  0.7387921307306228  0.9113483687158066  1.0000
  O   O63       1.0  0.8071421047041485  0.6877165303355142  0.9250938488577843  1.0000
  O   O64       1.0  0.5227123068366878  0.6371343725566733  0.9005973121635763  1.0000
  O   O65       1.0  0.040655331953601624  0.9335829905811296  0.9319886276590168  1.0000
  O   O66       1.0  0.7293355618052786  0.015288789322625004  0.9190530124661791  1.0000
  F   F1        1.0  0.14544065950038038  0.7452914380137727  0.2869212693842016  1.0000
  F   F2        1.0  0.15654219087797128  0.7963040323296013  0.19805385231481407  1.0000
  F   F3        1.0  0.2593035264864483  0.6936743329150943  0.2112035164466732  1.0000
  F   F4        1.0  0.27518135135674276  0.853191928303268  0.2944235893888417  1.0000
  F   F5        1.0  0.5546900427080818  0.8502236915902655  0.26974384261047396  1.0000
  F   F6        1.0  0.37631928813080867  0.8770158805353745  0.20226000524768745  1.0000
  F   F7        1.0  0.44722925290125215  0.19881244015984822  0.5092443394161137  1.0000
  F   F8        1.0  0.47853856654182175  0.1095078724185186  0.46932288043019094  1.0000
  F   F9        1.0  0.3216304274593895  0.1194219976123776  0.554519587249807  1.0000
  F   F10       1.0  0.012633897603436108  0.10795636403450709  0.5227194220578255  1.0000
  F   F11       1.0  0.1883990456968689  0.06800088614946989  0.44991968525929593  1.0000
  F   F12       1.0  0.9647885606610561  0.1416216276786528  0.4313969908174328  1.0000
  F   F13       1.0  0.6103279138170451  0.9598287799248196  0.3487812702114966  1.0000
  F   F14       1.0  0.5215378161494469  0.062227873345982204  0.3309817878566861  1.0000
  F   F15       1.0  0.6856468111511591  0.02623658016507589  0.40227322084832917  1.0000
  F   F16       1.0  0.9591825358449242  0.9230948451335267  0.34827273096011874  1.0000
  F   F17       1.0  0.12068294932370802  0.9785740412446697  0.2830717676179972  1.0000
  F   F18       1.0  0.0321199780291153  0.0108143957624094  0.3701273580264157  1.0000
  F   F19       1.0  0.8545593448556802  0.2547052835736423  0.7130765807844668  1.0000
  F   F20       1.0  0.8434561935350404  0.20369651661557242  0.8019444816154717  1.0000
  F   F21       1.0  0.7406992907565666  0.3063247775376253  0.7887926078642025  1.0000
  F   F22       1.0  0.7248150301408315  0.14680431809772193  0.7055762285184316  1.0000
  F   F23       1.0  0.44530384296500364  0.14977542630919063  0.730256179213974  1.0000
  F   F24       1.0  0.6236795117681312  0.12298371174862412  0.7977397324766713  1.0000
  F   F25       1.0  0.5527580117837873  0.801184292400457  0.4907619413958457  1.0000
  F   F26       1.0  0.5214499835104932  0.8904888592380403  0.5306842127434379  1.0000
  F   F27       1.0  0.6783445039493189  0.8805766575245075  0.44548615876423264  1.0000
  F   F28       1.0  0.9873795755760925  0.8920326946906274  0.4772761179894047  1.0000
  F   F29       1.0  0.8116059686132431  0.9320049167053241  0.5500646342787264  1.0000
  F   F30       1.0  0.03521075054310778  0.8583827464093332  0.5685999664904458  1.0000
  F   F31       1.0  0.3896643070034003  0.04017129615074571  0.651221763118258  1.0000
  F   F32       1.0  0.4784616264786835  0.937770284277313  0.6690228872085129  1.0000
  F   F33       1.0  0.3143563052451341  0.973764921928165  0.597727830011415  1.0000
  F   F34       1.0  0.040819229274170296  0.076903788325275  0.6517269858127008  1.0000
  F   F35       1.0  0.8793187468854101  0.021421722625021303  0.7169269917911548  1.0000
  F   F36       1.0  0.9678928799086322  0.9891851852052086  0.6298695534389509  1.0000
