data_image0
_chemical_formula_structural       Zn2H58C72N4O12F6
_chemical_formula_sum              "Zn2 H58 C72 N4 O12 F6"
_cell_length_a       16.45465522566282
_cell_length_b       16.813643593190807
_cell_length_c       23.687029056417632
_cell_angle_alpha    88.91944449755583
_cell_angle_beta     87.62010816593146
_cell_angle_gamma    88.45861906406374

_space_group_name_H-M_alt    "P 1"
_space_group_IT_number       1

loop_
  _space_group_symop_operation_xyz
  'x, y, z'

loop_
  _atom_site_type_symbol
  _atom_site_label
  _atom_site_symmetry_multiplicity
  _atom_site_fract_x
  _atom_site_fract_y
  _atom_site_fract_z
  _atom_site_occupancy
  Zn  Zn1       1.0  0.5919426689455137  0.4973245083231036  0.5007370632593364  1.0000
  Zn  Zn2       1.0  0.4102632836448025  0.5033485723934844  0.5087459999157602  1.0000
  H   H1        1.0  0.3773657042898861  0.3633632047890885  0.06655270413894242  1.0000
  H   H2        1.0  0.597417891898978  0.6878405644816252  0.9428433609820176  1.0000
  H   H3        1.0  0.6084811768660785  0.896095725423649  0.4439243559826522  1.0000
  H   H4        1.0  0.3953125498427284  0.10467310508813198  0.4464489584105423  1.0000
  H   H5        1.0  0.29974136179739463  0.5421759617487821  0.42607569348803764  1.0000
  H   H6        1.0  0.705520449826075  0.41252718225315727  0.5626954801387855  1.0000
  H   H7        1.0  0.9897364693348437  0.4731967087427833  0.5671882865948561  1.0000
  H   H8        1.0  0.009288239853148594  0.5219517600574975  0.4419697714570106  1.0000
  H   H9        1.0  0.10999496044959761  0.4591190348155648  0.5782762950776501  1.0000
  H   H10       1.0  0.8877664683553804  0.5850351498821028  0.4514693378494812  1.0000
  H   H11       1.0  0.3929755919652963  0.5683922729871895  0.6770611019994632  1.0000
  H   H12       1.0  0.5980466108512204  0.42346841567462684  0.3217897501904687  1.0000
  H   H13       1.0  0.6109844928574545  0.45674927013156  0.7948789311527947  1.0000
  H   H14       1.0  0.4108325139818803  0.6090882505481757  0.22295376105622472  1.0000
  H   H15       1.0  0.3671071266929076  0.7272521769020555  0.4337722626060625  1.0000
  H   H16       1.0  0.6342503270085301  0.2786102243349831  0.4383806210556997  1.0000
  H   H17       1.0  0.4118262185653876  0.9969792896377642  0.3991241888988527  1.0000
  H   H18       1.0  0.598302402247562  0.009544668986023904  0.4017583630274615  1.0000
  H   H19       1.0  0.7049418307237333  0.5095650508892006  0.3639556582545537  1.0000
  H   H20       1.0  0.710665326291597  0.6065797990463082  0.33368757111527714  1.0000
  H   H21       1.0  0.8016964617242833  0.5538119555194569  0.35128298026197063  1.0000
  H   H22       1.0  0.666344800723806  0.6145655954010252  0.4356836304086258  1.0000
  H   H23       1.0  0.7622812877025071  0.6576423204784804  0.42417928039755287  1.0000
  H   H24       1.0  0.23671735578447792  0.32035462264997255  0.595426089683663  1.0000
  H   H25       1.0  0.33600149521138434  0.3449207068471907  0.5694255011315477  1.0000
  H   H26       1.0  0.31472856273236266  0.33667098687430297  0.6435151568715654  1.0000
  H   H27       1.0  0.3200031384791586  0.4790218491101682  0.6150111714421627  1.0000
  H   H28       1.0  0.21964939396067262  0.4559484051993721  0.639213984420671  1.0000
  H   H29       1.0  0.753937746995497  0.362599455058394  0.6450159163219312  1.0000
  H   H30       1.0  0.7756380252504728  0.2922087774223455  0.5910879736395955  1.0000
  H   H31       1.0  0.8338030525624165  0.2907292268466576  0.6525030872704605  1.0000
  H   H32       1.0  0.9153574397020636  0.3509321104102695  0.573984213169716  1.0000
  H   H33       1.0  0.8922801190794943  0.42130350321011883  0.6263260315170812  1.0000
  H   H34       1.0  0.24251749458399266  0.6320524110955006  0.3616141483384823  1.0000
  H   H35       1.0  0.2522605450040061  0.5330348071980849  0.33751305764722167  1.0000
  H   H36       1.0  0.18047858915798537  0.6001653700641894  0.3074211786893173  1.0000
  H   H37       1.0  0.1073713629622546  0.5082777505122846  0.37282560470975323  1.0000
  H   H38       1.0  0.09820397714628372  0.6061658356602138  0.3970473030941051  1.0000
  H   H39       1.0  0.37787267171724187  0.21313826241588876  0.9298369274735452  1.0000
  H   H40       1.0  0.45946036335649865  0.27642056214025246  0.910428814918923  1.0000
  H   H41       1.0  0.4464804916766312  0.24093833148423013  0.9816297776509374  1.0000
  H   H42       1.0  0.31307532977329083  0.31831117399931935  0.9906704683212767  1.0000
  H   H43       1.0  0.3278657085063513  0.3540930183754866  0.919913109247844  1.0000
  H   H44       1.0  0.748685682310807  0.7346547010418051  0.0734053847371499  1.0000
  H   H45       1.0  0.7198457484925598  0.6354416521783081  0.0893434932042325  1.0000
  H   H46       1.0  0.7435607424423128  0.6652359118469633  0.017961209688934287  1.0000
  H   H47       1.0  0.621733616915087  0.7598247219847281  0.021264108329361896  1.0000
  H   H48       1.0  0.598748850005805  0.7286443991575522  0.09221498451478283  1.0000
  H   H49       1.0  0.2682996929009819  0.5206049191091324  0.7432919315414566  1.0000
  H   H50       1.0  0.29312041478083023  0.4786086826355599  0.8098232590653468  1.0000
  H   H51       1.0  0.22661929336693018  0.5640438266542417  0.8063455722296242  1.0000
  H   H52       1.0  0.36488184180433336  0.6054542865224589  0.832362677281381  1.0000
  H   H53       1.0  0.3416030749192985  0.645240695190658  0.7655496019877505  1.0000
  H   H54       1.0  0.5885834537780497  0.29913645213699874  0.25301281003648063  1.0000
  H   H55       1.0  0.5327651558725037  0.3163585087853419  0.19130889503772863  1.0000
  H   H56       1.0  0.637242379489649  0.2850992918211617  0.1854583188593466  1.0000
  H   H57       1.0  0.6254077787955199  0.4307736333528638  0.1636654908088033  1.0000
  H   H58       1.0  0.6782046968422222  0.4140012522523833  0.2259966673475446  1.0000
  C   C1        1.0  0.5055418587918866  0.34884779684544037  0.49158578329488734  1.0000
  C   C2        1.0  0.48761365642621973  0.6522800460868936  0.48799802839617723  1.0000
  C   C3        1.0  0.4310612688925133  0.5510077489539  0.7624645715361853  1.0000
  C   C4        1.0  0.5590677708504473  0.46406421118340546  0.2400166501092755  1.0000
  C   C5        1.0  0.4404275321773384  0.5443459931234002  0.7038141397586415  1.0000
  C   C6        1.0  0.5567932460442863  0.46323999610011407  0.2990679324309795  1.0000
  C   C7        1.0  0.5086626782183998  0.5083082467647629  0.6765790677902217  1.0000
  C   C8        1.0  0.5030394733279949  0.5113589603563894  0.3315658361877  1.0000
  C   C9        1.0  0.5696534758637103  0.477683056330072  0.7109107230752726  1.0000
  C   C10       1.0  0.45170064949756755  0.5642746189390095  0.3027722713551384  1.0000
  C   C11       1.0  0.5628679829277985  0.48196906126276656  0.7693161240367559  1.0000
  C   C12       1.0  0.45147608860722943  0.567331759367235  0.2443060067032761  1.0000
  C   C13       1.0  0.49384460269868685  0.518426658957189  0.7945244675360784  1.0000
  C   C14       1.0  0.5042098110736007  0.5165065134328656  0.2136981923978709  1.0000
  C   C15       1.0  0.5082390701263364  0.26847105327667714  0.4649564729044187  1.0000
  C   C16       1.0  0.4898189434128143  0.7337108968845099  0.46111813627090464  1.0000
  C   C17       1.0  0.44160469859441065  0.21807196396282794  0.4641210909811804  1.0000
  C   C18       1.0  0.5577113778016739  0.7826285853724216  0.4605852015885219  1.0000
  C   C19       1.0  0.4475979064052568  0.1428923281296406  0.44136778496613976  1.0000
  C   C20       1.0  0.5560820551154039  0.8592248651997991  0.4383763857978451  1.0000
  C   C21       1.0  0.5215958823329103  0.11355496700878122  0.41675474869130374  1.0000
  C   C22       1.0  0.4855911073649324  0.8914448135945675  0.4138754291234008  1.0000
  C   C23       1.0  0.5123975271450262  0.5040266813431487  0.6132171222461835  1.0000
  C   C24       1.0  0.5024409245338576  0.504006621245928  0.3946963767859515  1.0000
  C   C25       1.0  0.586584763057637  0.16641305322234962  0.41488086341721714  1.0000
  C   C26       1.0  0.4200157718007631  0.8398280946097928  0.4110901721728979  1.0000
  C   C27       1.0  0.5814615498445832  0.24087472242667474  0.4387514179666426  1.0000
  C   C28       1.0  0.4205394515468086  0.7639759751348832  0.43467203541957394  1.0000
  C   C29       1.0  0.5346633144961643  0.029981152161425897  0.40386612377200487  1.0000
  C   C30       1.0  0.4749389052234604  0.9761485126094203  0.40243376104397294  1.0000
  C   C31       1.0  0.25425813968684  0.5248526597700689  0.45839043501909776  1.0000
  C   C32       1.0  0.749262620139767  0.44863112642379827  0.5387507713875621  1.0000
  C   C33       1.0  0.17163255856514337  0.5283833581262556  0.4474994737290531  1.0000
  C   C34       1.0  0.8317150328114878  0.4430941636360328  0.549385024396166  1.0000
  C   C35       1.0  0.1166634016340282  0.5047066922024399  0.4920019382798344  1.0000
  C   C36       1.0  0.8840376354898044  0.4928558593146802  0.5163532647039162  1.0000
  C   C37       1.0  0.14957975815452332  0.47880720719933817  0.5430198430221793  1.0000
  C   C38       1.0  0.8495279892580783  0.5440725461041751  0.4761225683709752  1.0000
  C   C39       1.0  0.23300456186941432  0.4763526644280773  0.5506484924321953  1.0000
  C   C40       1.0  0.766003281124128  0.546432797912452  0.4680061673547016  1.0000
  C   C41       1.0  0.029036893614041014  0.5070357134518204  0.4843811897265908  1.0000
  C   C42       1.0  0.9713414557622356  0.49080826017186047  0.5249055897196585  1.0000
  C   C43       1.0  0.5457290060973962  0.5778741682975124  0.1234411631400576  1.0000
  C   C44       1.0  0.4500236621931606  0.4588424854904645  0.8849126409948623  1.0000
  C   C45       1.0  0.45258735371413655  0.46194579349265996  0.1287722083616529  1.0000
  C   C46       1.0  0.5276803447611941  0.5854387548739125  0.8801498451557492  1.0000
  C   C47       1.0  0.4526500592387351  0.46376591791946004  0.06636830064287842  1.0000
  C   C48       1.0  0.529300587581858  0.5824786248972345  0.9425813880492485  1.0000
  C   C49       1.0  0.4947566811463346  0.522879754354186  0.034390871256043516  1.0000
  C   C50       1.0  0.4904286152303072  0.5211668436062098  0.974417297993682  1.0000
  C   C51       1.0  0.5393521554207011  0.5822640278451912  0.061062612476639806  1.0000
  C   C52       1.0  0.44802022739711594  0.4602411503964348  0.9476837218511136  1.0000
  C   C53       1.0  0.4095777408295548  0.40679535251999976  0.0397991533845925  1.0000
  C   C54       1.0  0.5696144190229546  0.6413469851900402  0.9693301193450666  1.0000
  C   C55       1.0  0.4061823477103417  0.4025842540922611  0.9804961794037227  1.0000
  C   C56       1.0  0.5766207891873734  0.6430423102117899  0.028509158881085708  1.0000
  C   C57       1.0  0.7303231491542805  0.600979733251634  0.42400615816166715  1.0000
  C   C58       1.0  0.7377477694968277  0.5654350608719059  0.3646670889780239  1.0000
  C   C59       1.0  0.266176147010306  0.44553905848101033  0.6052338810217606  1.0000
  C   C60       1.0  0.28972790196658593  0.3564817514338685  0.6031644014709414  1.0000
  C   C61       1.0  0.8645611248296277  0.38614779828310464  0.5935789614836722  1.0000
  C   C62       1.0  0.8032465918304725  0.33006336481035686  0.6220105405014706  1.0000
  C   C63       1.0  0.14237471046750022  0.5563159732795597  0.3905484732117727  1.0000
  C   C64       1.0  0.20823691330760138  0.5816730502467706  0.3471199306416608  1.0000
  C   C65       1.0  0.35922216742806523  0.3350817692698271  0.9579581206879269  1.0000
  C   C66       1.0  0.4143328311912812  0.2620566716182111  0.9442132655019934  1.0000
  C   C67       1.0  0.6250272036241853  0.7092666164808108  0.051335538327173004  1.0000
  C   C68       1.0  0.7147421917539631  0.6843982733691262  0.0583243123405381  1.0000
  C   C69       1.0  0.35481767205641296  0.5891624384964304  0.7885263075793106  1.0000
  C   C70       1.0  0.2812532697803363  0.5349225521817258  0.7870445497951053  1.0000
  C   C71       1.0  0.6180171958836455  0.40971529085422276  0.207757979448651  1.0000
  C   C72       1.0  0.5926065411337404  0.3224138600241843  0.209358502893167  1.0000
  N   N1        1.0  0.5001721308466216  0.5191634014614551  0.15292529631412316  1.0000
  N   N2        1.0  0.48959151967358144  0.521664399402667  0.8555732591965892  1.0000
  N   N3        1.0  0.28479878840296646  0.49987088815224473  0.5079249651117692  1.0000
  N   N4        1.0  0.7169082325332212  0.49834915370069405  0.49967241726713507  1.0000
  O   O1        1.0  0.5733716308628446  0.3756937438758854  0.5054567205561113  1.0000
  O   O2        1.0  0.41827341011472907  0.6271246334113839  0.5042495106123539  1.0000
  O   O3        1.0  0.43641964413323825  0.38414022925946506  0.49661126182446946  1.0000
  O   O4        1.0  0.5553904289931353  0.6144555193178506  0.4907734205243913  1.0000
  O   O5        1.0  0.5814943971831144  0.5032905831438229  0.587663994342627  1.0000
  O   O6        1.0  0.4348946958358298  0.5158777185182686  0.4213269428771653  1.0000
  O   O7        1.0  0.4435893201245946  0.5025004296599535  0.5905115836120203  1.0000
  O   O8        1.0  0.5701781980015782  0.48499837408472507  0.41590424040548163  1.0000
  O   O9        1.0  0.5882617224320867  0.6213661342430469  0.15040228040579248  1.0000
  O   O10       1.0  0.42017687520418434  0.4062465180952158  0.8575076780038914  1.0000
  O   O11       1.0  0.41460552307480475  0.41358395103086554  0.15839085306541284  1.0000
  O   O12       1.0  0.5580850698873051  0.6387911579103828  0.8507803462851983  1.0000
  F   F1        1.0  0.6594309906338794  0.14136975610716718  0.3903391897284507  1.0000
  F   F2        1.0  0.3508660636589554  0.8675413706017208  0.38626571185683634  1.0000
  F   F3        1.0  0.6373936414670284  0.44033164716167755  0.6880792765538005  1.0000
  F   F4        1.0  0.4014433069119505  0.6164685256027056  0.33156468742927103  1.0000
  F   F5        1.0  0.3688743716624927  0.23953180156246387  0.4895414590742959  1.0000
  F   F6        1.0  0.6269390463976308  0.757958176442969  0.48595822327772004  1.0000
