data_image0
_chemical_formula_structural       Cu4H12C28N12O4
_chemical_formula_sum              "Cu4 H12 C28 N12 O4"
_cell_length_a       7.809304738382698
_cell_length_b       7.809335868731873
_cell_length_c       12.66845236743184
_cell_angle_alpha    104.34490995549642
_cell_angle_beta     104.34616598868837
_cell_angle_gamma    95.07446219330056

_space_group_name_H-M_alt    "P 1"
_space_group_IT_number       1

loop_
  _space_group_symop_operation_xyz
  'x, y, z'

loop_
  _atom_site_type_symbol
  _atom_site_label
  _atom_site_symmetry_multiplicity
  _atom_site_fract_x
  _atom_site_fract_y
  _atom_site_fract_z
  _atom_site_occupancy
  Cu  Cu1       1.0  0.31501915797178276  0.7169221692622685  0.3791260012835239  1.0000
  Cu  Cu2       1.0  0.2830911454610359  0.6849839708347646  0.12087309817707852  1.0000
  Cu  Cu3       1.0  0.684980339014217  0.2830890359570971  0.6208762677325768  1.0000
  Cu  Cu4       1.0  0.7169200104420312  0.3150085641661774  0.8791249549178988  1.0000
  H   H1        1.0  0.7184084140750643  0.7778265450224066  0.4199225578279951  1.0000
  H   H2        1.0  0.22216992029841265  0.2815844476410589  0.08007854258720933  1.0000
  H   H3        1.0  0.28158800739151973  0.22218194716491266  0.580075679775881  1.0000
  H   H4        1.0  0.7778228451061225  0.7183999866259184  0.919922615285998  1.0000
  H   H5        1.0  0.8371342546145898  0.8747880540208327  0.5659123434478489  1.0000
  H   H6        1.0  0.12520455428796146  0.1628637114171383  0.9340889556935963  1.0000
  H   H7        1.0  0.1628566831359848  0.12521907958578277  0.4340872292362549  1.0000
  H   H8        1.0  0.8747865782715607  0.8371273864945008  0.0659105935689368  1.0000
  H   H9        1.0  0.7658096252804683  0.6375798572068517  0.5137211505450525  1.0000
  H   H10       1.0  0.3624161572842084  0.23419209781454942  0.9862791129993626  1.0000
  H   H11       1.0  0.2341907514190851  0.36242864629794264  0.48627531781109223  1.0000
  H   H12       1.0  0.637577621373957  0.765799016894874  0.01372083830327136  1.0000
  C   C1        1.0  0.8149184534194448  0.06566842011733338  0.2707639319786851  1.0000
  C   C2        1.0  0.934304929433857  0.1850614876578831  0.2292304847501257  1.0000
  C   C3        1.0  0.1850706632575978  0.9343266914687118  0.7292382869940257  1.0000
  C   C4        1.0  0.06568793240410288  0.8149322917549139  0.7707689410580871  1.0000
  C   C5        1.0  0.69250363414006  0.20155987954215246  0.2722246800711049  1.0000
  C   C6        1.0  0.7984372643117937  0.3074865491017106  0.22776772969320552  1.0000
  C   C7        1.0  0.3074950318343781  0.7984459609670862  0.727775074816549  1.0000
  C   C8        1.0  0.2015654566192566  0.6925112871907185  0.7722306396205669  1.0000
  C   C9        1.0  0.5379023055275525  0.21032815134783076  0.3117999688370007  1.0000
  C   C10       1.0  0.7896900820761205  0.4620956085130954  0.1882044505670778  1.0000
  C   C11       1.0  0.4621007497389514  0.7896804013395452  0.6882024369443231  1.0000
  C   C12       1.0  0.2103226069483171  0.537898278377476  0.8117948274647093  1.0000
  C   C13       1.0  0.4648620685573804  0.05946744519010139  0.33672111092215573  1.0000
  C   C14       1.0  0.9405485191587745  0.5351321565046303  0.1632836864229787  1.0000
  C   C15       1.0  0.5351448514951187  0.940549143601842  0.6632807234761631  1.0000
  C   C16       1.0  0.05945758244904908  0.46486171614988325  0.8367193311243355  1.0000
  C   C17       1.0  0.4636911870320547  0.36723888609577654  0.33493424989812587  1.0000
  C   C18       1.0  0.6327709313628135  0.5363099858847631  0.16506794129248456  1.0000
  C   C19       1.0  0.5363097141735763  0.6327642934825872  0.6650654407347008  1.0000
  C   C20       1.0  0.3672361603069873  0.46369054408020094  0.8349299158377762  1.0000
  C   C21       1.0  0.9818661743713053  0.7375783169355753  0.46415049397305813  1.0000
  C   C22       1.0  0.2624210487735041  0.018137487224109294  0.035849843424323104  1.0000
  C   C23       1.0  0.01814185402012919  0.26243693213812236  0.5358497267592457  1.0000
  C   C24       1.0  0.7375713882820207  0.9818536005808196  0.9641467437810721  1.0000
  C   C25       1.0  0.8161783841614325  0.757040280966386  0.4927659979838739  1.0000
  C   C26       1.0  0.24295651733364557  0.1838209652831749  0.007234507637484482  1.0000
  C   C27       1.0  0.1838197665835892  0.24297089272209144  0.5072321161656889  1.0000
  C   C28       1.0  0.7570357282031425  0.8161687975366263  0.9927642187283329  1.0000
  N   N1        1.0  0.11561553610136602  0.7242447299596007  0.44037773029405974  1.0000
  N   N2        1.0  0.27576201129951267  0.8843851605795974  0.05962344917934807  1.0000
  N   N3        1.0  0.8843825520266578  0.27577449627435857  0.5596263263360157  1.0000
  N   N4        1.0  0.7242347964947555  0.1156086208978735  0.9403726258425353  1.0000
  N   N5        1.0  0.4057604550205768  0.9286278466561267  0.35377747923937625  1.0000
  N   N6        1.0  0.0713931272089354  0.5942324543765166  0.1462236325402699  1.0000
  N   N7        1.0  0.5942384163875829  0.07137933271744147  0.6462225087957381  1.0000
  N   N8        1.0  0.9286218202383479  0.4057587947151759  0.8537795350831774  1.0000
  N   N9        1.0  0.40908774268130804  0.5029439280338791  0.3573521963678773  1.0000
  N   N10       1.0  0.4970813879953297  0.5909168305577663  0.1426508651539322  1.0000
  N   N11       1.0  0.5909159335247053  0.4970686458728862  0.6426516996251338  1.0000
  N   N12       1.0  0.5029359630102306  0.40907305945617606  0.857346145207771  1.0000
  O   O1        1.0  0.8166893970392409  0.9208502408522958  0.29221098646741706  1.0000
  O   O2        1.0  0.07915968541363581  0.1832803416466859  0.20778600658991317  1.0000
  O   O3        1.0  0.1832952120687779  0.07915015558430838  0.7077850348605709  1.0000
  O   O4        1.0  0.9208469314236043  0.8167081978285962  0.7922186516954925  1.0000
