data_image0
_chemical_formula_structural       Cu4H16C16N12O12
_chemical_formula_sum              "Cu4 H16 C16 N12 O12"
_cell_length_a       6.517899332005965
_cell_length_b       8.201825347015339
_cell_length_c       11.776288975026404
_cell_angle_alpha    89.9997962592634
_cell_angle_beta     90.0001355855348
_cell_angle_gamma    90.00007802021054

_space_group_name_H-M_alt    "P 1"
_space_group_IT_number       1

loop_
  _space_group_symop_operation_xyz
  'x, y, z'

loop_
  _atom_site_type_symbol
  _atom_site_label
  _atom_site_symmetry_multiplicity
  _atom_site_fract_x
  _atom_site_fract_y
  _atom_site_fract_z
  _atom_site_occupancy
  Cu  Cu1       1.0  0.7500045962595437  0.9339213652156527  0.6600264092236472  1.0000
  Cu  Cu2       1.0  0.24999854391025175  0.5660834842033748  0.1600286343858244  1.0000
  Cu  Cu3       1.0  0.2500000566219924  0.06608701890181118  0.3399713532217205  1.0000
  Cu  Cu4       1.0  0.7499953693034768  0.4339090497757211  0.8399699772366844  1.0000
  H   H1        1.0  0.05659351424196051  0.1954182340819201  0.6857302440193035  1.0000
  H   H2        1.0  0.9434089084586292  0.30458591974358723  0.18573614940420669  1.0000
  H   H3        1.0  0.556590190416344  0.8045923726600106  0.314264723360253  1.0000
  H   H4        1.0  0.4434120898967252  0.6953995146788612  0.8142542181629294  1.0000
  H   H5        1.0  0.9434111386426098  0.8045938077579033  0.3142675184214312  1.0000
  H   H6        1.0  0.0565850047361991  0.695401737289309  0.8142556689129208  1.0000
  H   H7        1.0  0.44342059940552064  0.19541966919383208  0.6857287932646867  1.0000
  H   H8        1.0  0.556584891762789  0.3045844846397472  0.18573505266896004  1.0000
  H   H9        1.0  0.059712768843567715  0.7233095891933273  0.5546509327283644  1.0000
  H   H10       1.0  0.9402899105386529  0.7766860321802296  0.0546450164724277  1.0000
  H   H11       1.0  0.5597091420178445  0.27669126708654085  0.4453508319676445  1.0000
  H   H12       1.0  0.44028521047864194  0.2233091526449016  0.9453606320359141  1.0000
  H   H13       1.0  0.9402903498053805  0.27669026022504534  0.44535192471049356  1.0000
  H   H14       1.0  0.05969939998775691  0.22331137873826626  0.9453620867804062  1.0000
  H   H15       1.0  0.4402939766258669  0.7233134593055718  0.5546477796453217  1.0000
  H   H16       1.0  0.5597117712242438  0.7766846005597471  0.054644772898576784  1.0000
  C   C1        1.0  0.14380551621368207  0.08867869407102799  0.659537123959332  1.0000
  C   C2        1.0  0.8562013946659307  0.4113292481953294  0.1595417982215537  1.0000
  C   C3        1.0  0.6437886759670947  0.9113307907378141  0.3404664466863991  1.0000
  C   C4        1.0  0.35619377384523426  0.5886597465844968  0.8404594968372334  1.0000
  C   C5        1.0  0.8562129448108211  0.9113321285229997  0.3404657334754546  1.0000
  C   C6        1.0  0.14379865550552043  0.5886632857744869  0.8404619083885476  1.0000
  C   C7        1.0  0.3562037030325911  0.08868003184377928  0.6595355615677434  1.0000
  C   C8        1.0  0.6437970708996023  0.41132912966205726  0.1595425114437248  1.0000
  C   C9        1.0  0.14389035425442392  0.8277862982992513  0.587114391913289  1.0000
  C   C10       1.0  0.8561140013327706  0.6722189149843344  0.0871137274722642  1.0000
  C   C11       1.0  0.6438772066685204  0.17222928281451286  0.4128874805077912  1.0000
  C   C12       1.0  0.356107798458318  0.32777495664281986  0.9128952099448924  1.0000
  C   C13       1.0  0.8561219698256866  0.17222940125662228  0.4128876163474473  1.0000
  C   C14       1.0  0.1438783776733388  0.32777727668661066  0.9128967724398578  1.0000
  C   C15       1.0  0.35611517233166984  0.8277888552181663  0.5871119802452539  1.0000
  C   C16       1.0  0.6438891832548564  0.672220015792021  0.087114440807774  1.0000
  N   N1        1.0  0.034698928173973805  0.9551663157630655  0.6283699418208002  1.0000
  N   N2        1.0  0.9653071420467044  0.5448423493629518  0.1283697397405987  1.0000
  N   N3        1.0  0.5346961284314986  0.044841828040063085  0.3716334891759345  1.0000
  N   N4        1.0  0.46529943594084244  0.4551553018720326  0.8716325441297171  1.0000
  N   N5        1.0  0.9653041904906631  0.04484572605682758  0.37163546309444934  1.0000
  N   N6        1.0  0.03468830541986281  0.45515628080823917  0.8716339668588445  1.0000
  N   N7        1.0  0.465306990220988  0.9551689945517547  0.6283668207571935  1.0000
  N   N8        1.0  0.534694477284198  0.5448396705780494  0.1283703133094249  1.0000
  N   N9        1.0  0.7499980038064396  0.5239261777036146  0.6073048865504589  1.0000
  N   N10       1.0  0.25000337159588787  0.9760655231546165  0.107311168388371  1.0000
  N   N11       1.0  0.25000358057295113  0.47608098720312586  0.39268013843531685  1.0000
  N   N12       1.0  0.7499966785414786  0.023917256918551292  0.8926806499388605  1.0000
  O   O1        1.0  0.7500023985216375  0.5491610655791346  0.5025902027576805  1.0000
  O   O2        1.0  0.25000465595829274  0.9508372540513574  0.0025956993298024  1.0000
  O   O3        1.0  0.25000532284230564  0.45084488004574996  0.4974126546764096  1.0000
  O   O4        1.0  0.7500045996370801  0.04914674522535729  0.9974131022806674  1.0000
  O   O5        1.0  0.7500013264273948  0.6421179823504058  0.6786880055732211  1.0000
  O   O6        1.0  0.25000496380005904  0.8578709238140334  0.17868949175613838  1.0000
  O   O7        1.0  0.25000486066934974  0.35788918255042995  0.32130041607128124  1.0000
  O   O8        1.0  0.7500042917640857  0.1421179524660942  0.8213031757332059  1.0000
  O   O9        1.0  0.7499918353680285  0.3792156066838287  0.6478297207228109  1.0000
  O   O10       1.0  0.2500012161862132  0.12077410537442997  0.1478394498446605  1.0000
  O   O11       1.0  0.25000054361444773  0.6207879004657497  0.3521671925569335  1.0000
  O   O12       1.0  0.749985025851217  0.879211113140833  0.8521651059298206  1.0000
