data_image0
_chemical_formula_structural       Zn2H44C64N8O14
_chemical_formula_sum              "Zn2 H44 C64 N8 O14"
_cell_length_a       9.809595203256421
_cell_length_b       11.819943646071032
_cell_length_c       14.07
_cell_angle_alpha    89.6250814277775
_cell_angle_beta     69.826843465581
_cell_angle_gamma    66.92869242846321

_space_group_name_H-M_alt    "P 1"
_space_group_IT_number       1

loop_
  _space_group_symop_operation_xyz
  'x, y, z'

loop_
  _atom_site_type_symbol
  _atom_site_label
  _atom_site_symmetry_multiplicity
  _atom_site_fract_x
  _atom_site_fract_y
  _atom_site_fract_z
  _atom_site_occupancy
  Zn  Zn1       1.0  0.9879228618404311  0.4608013423744595  0.7162852734436668  1.0000
  Zn  Zn2       1.0  0.01207730089754476  0.5391976636990847  0.2837156879169811  1.0000
  H   H1        1.0  0.3217423966132316  0.2632724081114191  0.9353353253042938  1.0000
  H   H2        1.0  0.6782566800916568  0.7367265979621251  0.06466376498067916  1.0000
  H   H3        1.0  0.013900995660669895  0.19367337747658553  0.40923415367804233  1.0000
  H   H4        1.0  0.9861004431408205  0.8063293483816025  0.5907671911562175  1.0000
  H   H5        1.0  0.2896960778178084  0.7222343169780103  0.5032061317714351  1.0000
  H   H6        1.0  0.7103054764317704  0.2777600393647219  0.4967938098488886  1.0000
  H   H7        1.0  0.528074288380857  0.7666848135616674  0.47145468386509737  1.0000
  H   H8        1.0  0.4719268653749892  0.2333123326195476  0.5285453387119928  1.0000
  H   H9        1.0  0.7087100940261948  0.6709087284208124  0.5665791234261375  1.0000
  H   H10       1.0  0.2912905642207164  0.3290893477065708  0.43342172390876493  1.0000
  H   H11       1.0  0.41623164419056735  0.4845977347064975  0.7205963103467211  1.0000
  H   H12       1.0  0.5837705955983665  0.5153994114747178  0.2794048725739913  1.0000
  H   H13       1.0  0.19282776905600937  0.37207889887018547  0.8319737475121013  1.0000
  H   H14       1.0  0.8071713076488717  0.6279201072033587  0.168026764236977  1.0000
  H   H15       1.0  0.918948724639243  0.3303010675552827  0.133465624504403  1.0000
  H   H16       1.0  0.08104985655670303  0.6696988684644225  0.8665350012704278  1.0000
  H   H17       1.0  0.6758368935640179  0.4216273603123497  0.08734229977218178  1.0000
  H   H18       1.0  0.3241617826471383  0.5783744355996774  0.9126582929336705  1.0000
  H   H19       1.0  0.7100357529995236  0.47190861932994477  0.9073962423694295  1.0000
  H   H20       1.0  0.28996242770270425  0.5280941065282434  0.0926051750942278  1.0000
  H   H21       1.0  0.5270024770030304  0.12046336589582299  0.919961947968737  1.0000
  H   H22       1.0  0.47299759071973574  0.8795337802853993  0.08003620353267844  1.0000
  H   H23       1.0  0.7886141948667315  0.9948554738531145  0.9281459551459361  1.0000
  H   H24       1.0  0.2113858728560274  0.0051416723281079  0.0718521963554792  1.0000
  H   H25       1.0  0.5972056516458721  0.10947977177984572  0.254574432057872  1.0000
  H   H26       1.0  0.40279578715561826  0.8905229540783424  0.7454233591161098  1.0000
  H   H27       1.0  0.3299734962120056  0.2343296937204613  0.2474414644219181  1.0000
  H   H28       1.0  0.6700267615411803  0.7656711722454048  0.7525566209415401  1.0000
  H   H29       1.0  0.055666443850469705  0.7855357522057318  0.13798353128769483  1.0000
  H   H30       1.0  0.9443296598007862  0.2144688335447853  0.8620183753479509  1.0000
  H   H31       1.0  0.19325271231198826  0.80125649206947  0.2536033237979751  1.0000
  H   H32       1.0  0.8067434863544777  0.198749953573369  0.7463985497686988  1.0000
  H   H33       1.0  0.947856448928668  0.200754917498017  0.29435240779945815  1.0000
  H   H34       1.0  0.052142912821849866  0.799249668252493  0.7056472940106318  1.0000
  H   H35       1.0  0.8081500395034238  0.1841479389421679  0.18359763424829373  1.0000
  H   H36       1.0  0.19184774070507155  0.8158575767545031  0.8164017319759791  1.0000
  H   H37       1.0  0.33244071320107343  0.9498730480649513  0.4781060424013431  1.0000
  H   H38       1.0  0.6675588590127504  0.05012502806242481  0.5218950660540429  1.0000
  H   H39       1.0  0.405973427075871  0.0063059649225679  0.6193771025997632  1.0000
  H   H40       1.0  0.5940266406468951  0.9936911812586544  0.38062389182987016  1.0000
  H   H41       1.0  0.2575569513436307  0.22254448601308502  0.7149013818280421  1.0000
  H   H42       1.0  0.7424452884453103  0.7774526601681302  0.28509980109267713  1.0000
  H   H43       1.0  0.9728912482556424  0.3263218279293127  0.5411589024313557  1.0000
  H   H44       1.0  0.027111086548508436  0.6736771781442243  0.45884224742037816  1.0000
  C   C1        1.0  0.19348988388168195  0.5749652529708413  0.6325315353598736  1.0000
  C   C2        1.0  0.8065112698741713  0.42503189321037377  0.3674691979492762  1.0000
  C   C3        1.0  0.33638487672834566  0.6019569403145297  0.614988517587541  1.0000
  C   C4        1.0  0.663616772536443  0.3980392759205317  0.3850121016958567  1.0000
  C   C5        1.0  0.3681501070130435  0.6819081316215403  0.5450607961017084  1.0000
  C   C6        1.0  0.6318531237937677  0.31808715466736  0.4549394480354463  1.0000
  C   C7        1.0  0.5011727576210063  0.707320770382637  0.5278062995578381  1.0000
  C   C8        1.0  0.49882938715272457  0.2926745159062563  0.47219278423570177  1.0000
  C   C9        1.0  0.6025672470270395  0.6540515943474645  0.5803493274370695  1.0000
  C   C10       1.0  0.39743390672880713  0.3459455518337577  0.4196521166041336  1.0000
  C   C11       1.0  0.5711769719957258  0.5747541551921387  0.6511278656832358  1.0000
  C   C12       1.0  0.4288257633021503  0.4252420610429226  0.3488724924796783  1.0000
  C   C13       1.0  0.43839913854895934  0.548617088371067  0.6676366502728255  1.0000
  C   C14       1.0  0.5616014246827419  0.45137912786399437  0.3323642301310484  1.0000
  C   C15       1.0  0.6811676929870811  0.5163033191439013  0.7072821508023353  1.0000
  C   C16       1.0  0.3188340512929244  0.4836947569834749  0.2927184354120768  1.0000
  C   C17       1.0  0.0820086821730754  0.3759214364103727  0.8895220865179778  1.0000
  C   C18       1.0  0.9179898990228705  0.6240784996093254  0.11047853925685301  1.0000
  C   C19       1.0  0.0774980875731472  0.3361829770281091  0.9841498421048767  1.0000
  C   C20       1.0  0.9225014846406764  0.6638150990992742  0.015849134154343865  1.0000
  C   C21       1.0  0.9278573918559586  0.3543541250279532  0.05772165250758113  1.0000
  C   C22       1.0  0.07214118933998748  0.645645810991752  0.9422789732672496  1.0000
  C   C23       1.0  0.7935923230412101  0.406047042319031  0.03174227213302316  1.0000
  C   C24       1.0  0.20640576264580088  0.5939538236468351  0.9682584676675602  1.0000
  C   C25       1.0  0.8089904061258153  0.43782423261087905  0.9342228486056141  1.0000
  C   C26       1.0  0.19100718405226047  0.5621775633011481  0.06577871595278141  1.0000
  C   C27       1.0  0.24269047494864537  0.2584125094703111  0.0902523380222675  1.0000
  C   C28       1.0  0.7573102783134825  0.741587426549394  0.909746344047491  1.0000
  C   C29       1.0  0.408900810791593  0.1881848352301603  0.08448297679169767  1.0000
  C   C30       1.0  0.5911004379794702  0.8118141708433839  0.9155163019843541  1.0000
  C   C31       1.0  0.5392249641719715  0.1215634922051265  0.9941515137890774  1.0000
  C   C32       1.0  0.4607762845990918  0.8784355138684177  0.005846343522875904  1.0000
  C   C33       1.0  0.6880237926893499  0.0494712759107472  0.9972887611104254  1.0000
  C   C34       1.0  0.3119758745396907  0.9505286601089581  0.0027101820798165195  1.0000
  C   C35       1.0  0.7088283837882797  0.0447517991400588  0.09092946575021438  1.0000
  C   C36       1.0  0.2911713784559708  0.9552499967719683  0.9090687336389961  1.0000
  C   C37       1.0  0.5809289377416604  0.11197109754706962  0.1817620770084146  1.0000
  C   C38       1.0  0.4190724060446128  0.8880297684187966  0.8182357472345527  1.0000
  C   C39       1.0  0.432036770569205  0.1822043514641933  0.17789487495898015  1.0000
  C   C40       1.0  0.5679646682322855  0.8177983743939948  0.8221029162150085  1.0000
  C   C41       1.0  0.921684961200178  0.9827847726740941  0.1560390307199029  1.0000
  C   C42       1.0  0.078313905041405  0.0172207430225768  0.8439607851159322  1.0000
  C   C43       1.0  0.031324495809350456  0.8755424513593297  0.17463423728711547  1.0000
  C   C44       1.0  0.9686726938749998  0.12446213439118028  0.8253674082280467  1.0000
  C   C45       1.0  0.10822979512848709  0.8848651616304936  0.23855707419639316  1.0000
  C   C46       1.0  0.891765222489688  0.11513942412002362  0.7614443828276903  1.0000
  C   C47       1.0  0.0764687361525915  0.0020951687023398  0.28488842796226516  1.0000
  C   C48       1.0  0.9235301300889914  0.9979103469943383  0.7151113878735699  1.0000
  C   C49       1.0  0.9688513103315586  0.1088362490359387  0.2635453984865066  1.0000
  C   C50       1.0  0.031146469876944118  0.8911692666607323  0.7364546784698189  1.0000
  C   C51       1.0  0.8909449684775481  0.1002630753711173  0.1995833630452352  1.0000
  C   C52       1.0  0.10905330723988267  0.8997415103793925  0.800416599885331  1.0000
  C   C53       1.0  0.1599781706666974  0.0041680186967952  0.3552376656498808  1.0000
  C   C54       1.0  0.840020505544466  0.9958337772152319  0.6447622163239186  1.0000
  C   C55       1.0  0.14897092494801709  0.1338192526703281  0.4971963656257613  1.0000
  C   C56       1.0  0.8510303238230463  0.8661797534032161  0.5028043346144031  1.0000
  C   C57       1.0  0.2709864683770107  0.042613852914279  0.5215030553365523  1.0000
  C   C58       1.0  0.7290141898699004  0.9573842232130972  0.4784970812662904  1.0000
  C   C59       1.0  0.30989125441641363  0.0745835420616103  0.600418156954504  1.0000
  C   C60       1.0  0.6901098993394399  0.9254136041196119  0.3995825763546391  1.0000
  C   C61       1.0  0.22774448353539606  0.19430667081270772  0.6540262772652525  1.0000
  C   C62       1.0  0.7722577562535449  0.8056904753685076  0.34597490565545985  1.0000
  C   C63       1.0  0.06877176382624839  0.2526245245598204  0.5568409023415626  1.0000
  C   C64       1.0  0.9312300754689672  0.7473754114598848  0.44316036153592353  1.0000
  N   N1        1.0  0.9520573764324991  0.4234007676427325  0.8648917304215825  1.0000
  N   N2        1.0  0.0479412047634469  0.5765991683769727  0.13510818462120258  1.0000
  N   N3        1.0  0.22201109522922743  0.2812612866635718  0.9984591264214087  1.0000
  N   N4        1.0  0.7779884769845964  0.7187367894638115  0.0015398498378119154  1.0000
  N   N5        1.0  0.10001193738031589  0.1146530622774478  0.41923878396053726  1.0000
  N   N6        1.0  0.8999895014211744  0.8853496635807403  0.5807618501416696  1.0000
  N   N7        1.0  0.1080435308033785  0.2810845968928462  0.6327503166755832  1.0000
  N   N8        1.0  0.8919582134766201  0.7189134792345371  0.36725169100293426  1.0000
  O   O1        1.0  0.18140448935746187  0.4900574486219114  0.6893915962151878  1.0000
  O   O2        1.0  0.818595082856362  0.5099406275054719  0.3106102229722509  1.0000
  O   O3        1.0  0.09249944200669795  0.6348361168080103  0.5945032578556775  1.0000
  O   O4        1.0  0.9075018067643651  0.3651628892655339  0.40549886384859235  1.0000
  O   O5        1.0  0.6478194522862993  0.4535375329053295  0.7763055377318934  1.0000
  O   O6        1.0  0.3521821969784967  0.5464586833297318  0.22369437081945157  1.0000
  O   O7        1.0  0.8081666389761325  0.5389837760818921  0.6764760580074165  1.0000
  O   O8        1.0  0.1918324377287561  0.4610152299916522  0.3235258752057746  1.0000
  O   O9        1.0  0.1277712427564595  0.2936788577609093  0.1729442469322819  1.0000
  O   O10       1.0  0.8722294154904519  0.7063192183664739  0.8270537574744022  1.0000
  O   O11       1.0  0.8573345420939517  0.9637534244746604  0.0875055843161263  1.0000
  O   O12       1.0  0.14266590568966112  0.0362511612758496  0.9124931456414203  1.0000
  O   O13       1.0  0.27370048765654076  0.9092697387522932  0.3572022772012743  1.0000
  O   O14       1.0  0.7262982835698324  0.0907339170520558  0.6427954395073812  1.0000
