data_image0
_chemical_formula_structural       Mo4H48C60S8N8O12
_chemical_formula_sum              "Mo4 H48 C60 S8 N8 O12"
_cell_length_a       7.812927679
_cell_length_b       13.39934022099669
_cell_length_c       16.417
_cell_angle_alpha    111.52563935281698
_cell_angle_beta     90.0
_cell_angle_gamma    90.0

_space_group_name_H-M_alt    "P 1"
_space_group_IT_number       1

loop_
  _space_group_symop_operation_xyz
  'x, y, z'

loop_
  _atom_site_type_symbol
  _atom_site_label
  _atom_site_symmetry_multiplicity
  _atom_site_fract_x
  _atom_site_fract_y
  _atom_site_fract_z
  _atom_site_occupancy
  Mo  Mo1       1.0  0.5375744116112884  0.7594853606882594  0.0004339453013245316  1.0000
  Mo  Mo2       1.0  0.9624253940313494  0.2594838652751079  0.0004343197833592009  1.0000
  Mo  Mo3       1.0  0.4624258854604477  0.24051361883667252  0.9995659318310501  1.0000
  Mo  Mo4       1.0  0.0375749030403867  0.7405151142498241  0.9995661664737057  1.0000
  H   H1        1.0  0.6243242226740193  0.5997336791122194  0.7141123497516163  1.0000
  H   H2        1.0  0.8756679033890222  0.099736195000439  0.7141133163865804  1.0000
  H   H3        1.0  0.3756735145378514  0.4002653004127126  0.2858881365054486  1.0000
  H   H4        1.0  0.12432727396298303  0.9002667958258641  0.2858871528987308  1.0000
  H   H5        1.0  0.7153861176807157  0.4129971709607148  0.621413241162287  1.0000
  H   H6        1.0  0.7846098481721244  0.9129978641135922  0.621411408175355  1.0000
  H   H7        1.0  0.2846154593209533  0.5870034130847657  0.3785877256058257  1.0000
  H   H8        1.0  0.2153866091098138  0.0870043244524368  0.37858760260505164  1.0000
  H   H9        1.0  0.7844613762999089  0.2818885879464403  0.6915107506776508  1.0000
  H   H10       1.0  0.7155409892025946  0.7818884788390434  0.6915092865598852  1.0000
  H   H11       1.0  0.21554532042149085  0.7181111938387659  0.3084887575855646  1.0000
  H   H12       1.0  0.2844567480092763  0.2181129074667112  0.3084882657156243  1.0000
  H   H13       1.0  0.7735397341823997  0.33843349657682614  0.8535074848964896  1.0000
  H   H14       1.0  0.7264664711099016  0.8384309806886066  0.8535053000121451  1.0000
  H   H15       1.0  0.2264682424689326  0.6615670874686543  0.14649226362224965  1.0000
  H   H16       1.0  0.2735351058917673  0.1615679988363254  0.1464927497461659  1.0000
  H   H17       1.0  0.7451393689011001  0.4664605978787577  0.9921369072195177  1.0000
  H   H18       1.0  0.7548604367415379  0.9664596865110866  0.9921370302202915  1.0000
  H   H19       1.0  0.2548596482407035  0.5335383816461743  0.007862969912864096  1.0000
  H   H20       1.0  0.24513858040026557  0.0335392930138454  0.0078622377873998  1.0000
  H   H21       1.0  0.6911813627194834  0.5479742530161005  0.24035327161867304  1.0000
  H   H22       1.0  0.8088197228530873  0.0479751643837716  0.2403519303685258  1.0000
  H   H23       1.0  0.3088189343522529  0.45202552876910573  0.7596474548939156  1.0000
  H   H24       1.0  0.1911728946390525  0.9520238151411604  0.7596473376391658  1.0000
  H   H25       1.0  0.9034308635637347  0.5956293155505534  0.24006295518830703  1.0000
  H   H26       1.0  0.596570222008836  0.09562862239767611  0.2400635699258657  1.0000
  H   H27       1.0  0.0965707134379343  0.40436966397437873  0.7599369219440676  1.0000
  H   H28       1.0  0.4034287951329674  0.9043719616477973  0.7599373968422468  1.0000
  H   H29       1.0  0.9782325287027691  0.7503026895923313  0.40896557892150304  1.0000
  H   H30       1.0  0.5217698367997414  0.2503027986997282  0.4089627791664512  1.0000
  H   H31       1.0  0.0217703282288397  0.2496954876723265  0.591034667080045  1.0000
  H   H32       1.0  0.478229180342062  0.7496993898663007  0.5910368407386457  1.0000
  H   H33       1.0  0.0222656611128755  0.7512252889073991  0.5583635149737844  1.0000
  H   H34       1.0  0.4777415270376295  0.2512310138367155  0.5583623970074072  1.0000
  H   H35       1.0  0.9777423155384639  0.2487688770558876  0.4416361388748271  1.0000
  H   H36       1.0  0.5222626098239118  0.7487743837704031  0.4416387930444756  1.0000
  H   H37       1.0  0.8806084329300463  0.6145650647972118  0.6047816444245271  1.0000
  H   H38       1.0  0.6193964924323225  0.1145739987676251  0.6047839239789923  1.0000
  H   H39       1.0  0.11939698386142082  0.38542749664552645  0.3952157015389801  1.0000
  H   H40       1.0  0.3806076444292118  0.885433003360049  0.39521835570862857  1.0000
  H   H41       1.0  0.6882311242241315  0.47760800438565815  0.49992735006309624  1.0000
  H   H42       1.0  0.8117712412783717  0.9776127088398994  0.49993159135128457  1.0000
  H   H43       1.0  0.3117704527775374  0.5223885683584513  0.5000705880533332  1.0000
  H   H44       1.0  0.1882277758634316  0.0223902819863966  0.5000700961833999  1.0000
  H   H45       1.0  0.6447007072059208  0.4770544447966146  0.350125830315136  1.0000
  H   H46       1.0  0.855299098436717  0.9770543356892176  0.3501286300701877  1.0000
  H   H47       1.0  0.3552983099358827  0.5229445347283175  0.6498734376925556  1.0000
  H   H48       1.0  0.1446960789152882  0.0229462483562628  0.6498729458226152  1.0000
  C   C1        1.0  0.6888698092606518  0.4996188172624656  0.8756047044518809  1.0000
  C   C2        1.0  0.8111312763119187  0.9996179058947947  0.8756036092032743  1.0000
  C   C3        1.0  0.3111356075308153  0.5003793600021922  0.12439493242497689  1.0000
  C   C4        1.0  0.188866460899952  0.0003818758904117  0.12439589905994101  1.0000
  C   C5        1.0  0.6446533497984035  0.5725129880162072  0.8344845707176276  1.0000
  C   C6        1.0  0.8553451759143089  0.0725122948633299  0.8344864037045596  1.0000
  C   C7        1.0  0.3553482272032654  0.4274851892484506  0.16551567528392036  1.0000
  C   C8        1.0  0.1446525612975691  0.9274890914424248  0.16551419419439378  1.0000
  C   C9        1.0  0.6562123970224931  0.540888690276347  0.7432103200326026  1.0000
  C   C10       1.0  0.8437835688303466  0.0408904039042923  0.7432104372873526  1.0000
  C   C11       1.0  0.343787900049243  0.45911028924858505  0.2567901662244694  1.0000
  C   C12       1.0  0.1562116085216587  0.9591125869220107  0.2567900319979585  1.0000
  C   C13       1.0  0.7069564991425779  0.4371171260978031  0.6923314738353525  1.0000
  C   C14       1.0  0.7930420265701272  0.9371194237712289  0.6923331669829054  1.0000
  C   C15       1.0  0.2930463577890237  0.5628810511668476  0.3076681630415052  1.0000
  C   C16       1.0  0.2069544307118107  0.0628835670550671  0.3076666931777154  1.0000
  C   C17       1.0  0.7475328378756387  0.3634624126043349  0.7317936205662292  1.0000
  C   C18       1.0  0.7524669677669993  0.8634606989763897  0.7317916759374157  1.0000
  C   C19       1.0  0.2524725789158282  0.6365389737014198  0.2682057590833438  1.0000
  C   C20       1.0  0.2475294895149389  0.1365406873293651  0.2682077037121573  1.0000
  C   C21       1.0  0.7400810858062457  0.3948484390428249  0.8221875977753186  1.0000
  C   C22       1.0  0.7599212796962576  0.8948467254148795  0.8221886987699422  1.0000
  C   C23       1.0  0.2599268908450867  0.6051513427423814  0.17781373786196036  1.0000
  C   C24       1.0  0.2400764575156131  0.1051538586306009  0.1778098314994168  1.0000
  C   C25       1.0  0.693880734947989  0.5269582428790187  0.9687388337745801  1.0000
  C   C26       1.0  0.8061177907647163  0.0269559452056001  0.9687377497517176  1.0000
  C   C27       1.0  0.30612212198361294  0.4730391321253578  0.03126056284675371  1.0000
  C   C28       1.0  0.19388122637708705  0.9730454411001546  0.031262239022545636  1.0000
  C   C29       1.0  0.659930593477597  0.7175159167154775  0.1732742450681357  1.0000
  C   C30       1.0  0.8400653723752427  0.2175160258228743  0.1732751000612112  1.0000
  C   C31       1.0  0.3400709835240718  0.2824822605491804  0.8267247826840389  1.0000
  C   C32       1.0  0.1599310849066953  0.782483755962332  0.8267250173266945  1.0000
  C   C33       1.0  0.7828909022722286  0.610024271646509  0.277100302150778  1.0000
  C   C34       1.0  0.7171101833003422  0.11002357849363162  0.2770984803895828  1.0000
  C   C35       1.0  0.21710939479950755  0.389974707878423  0.722900793230977  1.0000
  C   C36       1.0  0.2828824341917979  0.8899745987710262  0.7228993291132113  1.0000
  C   C37       1.0  0.8079672895177696  0.6132654031533704  0.368928582026534  1.0000
  C   C38       1.0  0.6920337960548011  0.1132671167813157  0.3689286992812839  1.0000
  C   C39       1.0  0.1920368473437648  0.3867359831523771  0.6310714067477292  1.0000
  C   C40       1.0  0.3079613812972043  0.8867358740449802  0.6310711608793369  1.0000
  C   C41       1.0  0.9138827713958693  0.6904348189071357  0.42866786481820174  1.0000
  C   C42       1.0  0.5861234338964395  0.1904341257542583  0.4286666521816969  1.0000
  C   C43       1.0  0.0861188056057998  0.3095617538369737  0.571331291547608  1.0000
  C   C44       1.0  0.4138781431052366  0.8095664582912222  0.5713330963370424  1.0000
  C   C45       1.0  0.9383639912226016  0.6913333504139914  0.5131076277421512  1.0000
  C   C46       1.0  0.5616383742799018  0.1913406798638491  0.5131082085361953  1.0000
  C   C47       1.0  0.061641425568865316  0.3086616178095696  0.4868928754866744  1.0000
  C   C48       1.0  0.4383606428619019  0.8086655200035437  0.4868932217712114  1.0000
  C   C49       1.0  0.8574532205138043  0.6150223531533783  0.5393597181718945  1.0000
  C   C50       1.0  0.6425542647084301  0.11502486904159782  0.5393606848068586  1.0000
  C   C51       1.0  0.14255091634773015  0.384973417330457  0.4606398070630817  1.0000
  C   C52       1.0  0.3574498721531043  0.8849781217846981  0.4606410027278258  1.0000
  C   C53       1.0  0.7509041733189223  0.5383487342489346  0.4806612809614634  1.0000
  C   C54       1.0  0.7490956323237228  0.0383568659590736  0.4806657567591586  1.0000
  C   C55       1.0  0.2490999635426192  0.46164944301572325  0.5193371376660139  1.0000
  C   C56       1.0  0.2509008249582152  0.9616493339083265  0.5193362826729384  1.0000
  C   C57       1.0  0.7261976858239907  0.5377406209612587  0.3961933659710581  1.0000
  C   C58       1.0  0.7738085194683109  0.0377391255481072  0.396194349577776  1.0000
  C   C59       1.0  0.2738038911776783  0.46225675404312483  0.6038060306502757  1.0000
  C   C60       1.0  0.2261917776034252  0.9622598539768179  0.6038067458039791  1.0000
  S   S1        1.0  0.5866354058696004  0.8320185143187191  0.15730583668013762  1.0000
  S   S2        1.0  0.9133605599832395  0.33201942568639  0.1573063228040539  1.0000
  S   S3        1.0  0.4133648912021357  0.1679796629459389  0.8426931910720299  1.0000
  S   S4        1.0  0.0866371772286314  0.6679795538385421  0.842694163453018  1.0000
  S   S5        1.0  0.7008998707000558  0.7401163908936539  0.2827122769299066  1.0000
  S   S6        1.0  0.7990960951527839  0.24011569774077665  0.2827110642934016  1.0000
  S   S7        1.0  0.2991029862315457  0.2598833908915523  0.717287840457999  1.0000
  S   S8        1.0  0.20090036212915416  0.7598840840444296  0.7172884439698137  1.0000
  N   N1        1.0  0.6504399130250818  0.6187825470575063  0.028960547592646366  1.0000
  N   N2        1.0  0.8495586126876304  0.11878265616490322  0.028960184336355596  1.0000
  N   N3        1.0  0.3495603840466544  0.38121723472769997  0.9710407880446327  1.0000
  N   N4        1.0  0.15043784459431467  0.8812147188394804  0.9710379940356048  1.0000
  N   N5        1.0  0.686564655451484  0.6239017698657463  0.11277783566801246  1.0000
  N   N6        1.0  0.813430030471423  0.1239026812334174  0.11277832179192873  1.0000
  N   N7        1.0  0.3134343616903195  0.3760964073989115  0.8872218012088452  1.0000
  N   N8        1.0  0.1865651468805822  0.8760971005517888  0.8872211864712867  1.0000
  O   O1        1.0  0.5222037330469931  0.8880628125381378  0.003554186446464823  1.0000
  O   O2        1.0  0.9777973525255776  0.3880637239058089  0.0035558908197544045  1.0000
  O   O3        1.0  0.47779656402474313  0.11193536472652  0.9964436230563295  1.0000
  O   O4        1.0  0.0222055044060241  0.6119376623999457  0.9964465344532627  1.0000
  O   O5        1.0  0.3252493949010002  0.7171324363045102  0.0009427981888662704  1.0000
  O   O6        1.0  0.174747553810036  0.21713094089136584  0.0009425635462107993  1.0000
  O   O7        1.0  0.6747483423108778  0.2828681477409631  0.9990581685792462  1.0000
  O   O8        1.0  0.8252501834018349  0.782867236373292  0.9990564642059567  1.0000
  O   O9        1.0  0.5917397664420392  0.6724754204139032  0.8803529145471315  1.0000
  O   O10       1.0  0.908254919480868  0.1724739250007588  0.8803526799044761  1.0000
  O   O11       1.0  0.4082554109099662  0.3275243613712959  0.11964781196546428  1.0000
  O   O12       1.0  0.0917415378010702  0.8275258567844475  0.11964743748342947  1.0000
