data_image0
_chemical_formula_structural       Co4H24C24N16
_chemical_formula_sum              "Co4 H24 C24 N16"
_cell_length_a       8.856713858195985
_cell_length_b       9.89055777288837
_cell_length_c       14.450314234636208
_cell_angle_alpha    82.11224854895156
_cell_angle_beta     72.16013364110943
_cell_angle_gamma    63.41514065090304

_space_group_name_H-M_alt    "P 1"
_space_group_IT_number       1

loop_
  _space_group_symop_operation_xyz
  'x, y, z'

loop_
  _atom_site_type_symbol
  _atom_site_label
  _atom_site_symmetry_multiplicity
  _atom_site_fract_x
  _atom_site_fract_y
  _atom_site_fract_z
  _atom_site_occupancy
  Co  Co1       1.0  0.6049708526417489  0.4199957058015471  0.8721684483557653  1.0000
  Co  Co2       1.0  0.8973153194250261  0.579838720937502  0.12773808900008995  1.0000
  Co  Co3       1.0  0.2270524035778723  0.9200179550548665  0.627950880235872  1.0000
  Co  Co4       1.0  0.7750485748808699  0.07981878531879968  0.3721850323633901  1.0000
  H   H1        1.0  0.19913033824247614  0.542627464306342  0.9388564550259133  1.0000
  H   H2        1.0  0.6806317632961337  0.45727944756200134  0.06107572768877388  1.0000
  H   H3        1.0  0.8879482405870788  0.042542840457869595  0.5611860776224873  1.0000
  H   H4        1.0  0.49141987599814063  0.9573786271640188  0.4388729774497548  1.0000
  H   H5        1.0  0.5671218651531973  0.2719700047006126  0.09281124400256868  1.0000
  H   H6        1.0  0.9318287872240565  0.7280528412515962  0.9071496625363622  1.0000
  H   H7        1.0  0.4099725545424917  0.7725596195432658  0.4070875556162222  1.0000
  H   H8        1.0  0.5895673074336614  0.22739102134902112  0.5928897121495424  1.0000
  H   H9        1.0  0.23019560151276858  0.3581255483157689  0.2169954559423601  1.0000
  H   H10       1.0  0.805202110015472  0.6418836568603862  0.7829663619619182  1.0000
  H   H11       1.0  0.196897670424555  0.8581116712927821  0.2830371690570601  1.0000
  H   H12       1.0  0.33803965539851083  0.14187607956501574  0.7170033589312793  1.0000
  H   H13       1.0  0.4705092762934767  0.7560021356941036  0.7731969228613522  1.0000
  H   H14       1.0  0.9995168135756599  0.2440342123006046  0.22670474207068744  1.0000
  H   H15       1.0  0.9936737276645285  0.2561367763387423  0.7268383194025886  1.0000
  H   H16       1.0  0.9763111653860509  0.7439593917896871  0.2732667358641265  1.0000
  H   H17       1.0  0.4172361922774213  0.3645151142521996  0.7393550483246472  1.0000
  H   H18       1.0  0.5212446719705994  0.6357696620091032  0.2609449997711835  1.0000
  H   H19       1.0  0.9067254018519861  0.8645574358352516  0.7606350895195177  1.0000
  H   H20       1.0  0.5322831781364172  0.13574205181974716  0.2390345302965287  1.0000
  H   H21       1.0  0.2499694446318658  0.5918841884620247  0.6202940997388424  1.0000
  H   H22       1.0  0.4620510069266787  0.40794273221624167  0.3794938133606395  1.0000
  H   H23       1.0  0.6203803791507737  0.09186804850931198  0.8796610079435466  1.0000
  H   H24       1.0  0.5915588621183192  0.9079327481126496  0.1204738361607127  1.0000
  C   C1        1.0  0.25298359791439384  0.4817902134400783  0.998202495663314  1.0000
  C   C2        1.0  0.7330313360480224  0.5181011470366312  0.0017368838130309417  1.0000
  C   C3        1.0  0.001128902780927037  0.9819387530688457  0.5018035709893525  1.0000
  C   C4        1.0  0.4846336233292162  0.017989970479334295  0.4982523264990705  1.0000
  C   C5        1.0  0.44064772860014056  0.34251956900956765  0.07931896008940242  1.0000
  C   C6        1.0  0.8623630752037316  0.6575194006117683  0.9206541398618597  1.0000
  C   C7        1.0  0.2700051073206709  0.8430222853742604  0.4205591264469248  1.0000
  C   C8        1.0  0.5334573969651827  0.15695124574144606  0.579447048211641  1.0000
  C   C9        1.0  0.27334687280324493  0.38442331521221007  0.1408336185808707  1.0000
  C   C10       1.0  0.7984185239122463  0.6156286842122042  0.8591409877797672  1.0000
  C   C11       1.0  0.16408893184949136  0.8844047980215562  0.3591789381763562  1.0000
  C   C12       1.0  0.4075561139145307  0.11557264701831829  0.6408633323137423  1.0000
  C   C13       1.0  0.4332697326755693  0.6801991918285849  0.7476222739082344  1.0000
  C   C14       1.0  0.8609723651071303  0.31978219886136117  0.25228592269287015  1.0000
  C   C15       1.0  0.93093177653909  0.18028814402214974  0.7524295438485638  1.0000
  C   C16       1.0  0.863281652909599  0.8197067083353102  0.2477247353353746  1.0000
  C   C17       1.0  0.4031923867115309  0.47971336413323223  0.7287199152008484  1.0000
  C   C18       1.0  0.6116246504108531  0.5205251458399542  0.27156379489503735  1.0000
  C   C19       1.0  0.8820477037144419  0.9797712282586629  0.7713068995793224  1.0000
  C   C20       1.0  0.6332346866132424  0.020475196984662596  0.22842404261251656  1.0000
  C   C21       1.0  0.31954527643248537  0.5926176796333139  0.6701695552945353  1.0000
  C   C22       1.0  0.5822083656502527  0.4073913648435265  0.32973002687869973  1.0000
  C   C23       1.0  0.7398693289932651  0.0926112191041355  0.8298555996679795  1.0000
  C   C24       1.0  0.6619646775906245  0.907390951277293  0.17023624162985135  1.0000
  N   N1        1.0  0.4266840779161284  0.40521667273978307  0.9890145346298737  1.0000
  N   N2        1.0  0.8209418085231733  0.5947218236393182  0.010951767262447738  1.0000
  N   N3        1.0  0.16576053321120582  0.9058492215513776  0.5108728254147579  1.0000
  N   N4        1.0  0.5823179736883829  0.09408036940426709  0.48913414220955076  1.0000
  N   N5        1.0  0.15466055200968748  0.4727604049031483  0.08878710214755614  1.0000
  N   N6        1.0  0.7161519674381936  0.5271793543013032  0.9111731974084378  1.0000
  N   N7        1.0  0.9932615232128793  0.9724601346667326  0.4113260682766153  1.0000
  N   N8        1.0  0.37690098465592564  0.0274715375308645  0.5887402223716833  1.0000
  N   N9        1.0  0.47523745215428176  0.5358782395212458  0.7775261563053206  1.0000
  N   N10       1.0  0.788701632726017  0.46435390205374455  0.22276685337330807  1.0000
  N   N11       1.0  0.002842083087458025  0.03596887877620959  0.7225216384755058  1.0000
  N   N12       1.0  0.7615338627834378  0.9642826574134982  0.2772238689007979  1.0000
  N   N13       1.0  0.33919053996544324  0.7195628432344989  0.6824529564440667  1.0000
  N   N14       1.0  0.7410107974055223  0.2802369140620228  0.3172200381429846  1.0000
  N   N15       1.0  0.771724369841401  0.21958871119105786  0.8175854965521551  1.0000
  N   N16       1.0  0.8082416181434835  0.7802301103875917  0.18276778136480942  1.0000
