data_image0
_chemical_formula_structural       Ag2H20C24N10O6
_chemical_formula_sum              "Ag2 H20 C24 N10 O6"
_cell_length_a       7.8909887741215545
_cell_length_b       9.340870198932318
_cell_length_c       9.91991349179019
_cell_angle_alpha    66.1375229206616
_cell_angle_beta     80.30640395882341
_cell_angle_gamma    69.51637350292565

_space_group_name_H-M_alt    "P 1"
_space_group_IT_number       1

loop_
  _space_group_symop_operation_xyz
  'x, y, z'

loop_
  _atom_site_type_symbol
  _atom_site_label
  _atom_site_symmetry_multiplicity
  _atom_site_fract_x
  _atom_site_fract_y
  _atom_site_fract_z
  _atom_site_occupancy
  Ag  Ag1       1.0  0.15911082193782983  0.6105550519208834  0.3063396353143019  1.0000
  Ag  Ag2       1.0  0.8408878431516128  0.38944337817984825  0.6936626804913503  1.0000
  H   H1        1.0  0.13641751895132603  0.45090745675051386  0.1451325472829907  1.0000
  H   H2        1.0  0.8635832748660948  0.5490922099758035  0.8548679799781526  1.0000
  H   H3        1.0  0.39532573979703056  0.2599675183404813  0.06511791945928282  1.0000
  H   H4        1.0  0.6046720575915997  0.7400333688391358  0.9348825561476772  1.0000
  H   H5        1.0  0.5394987700220923  0.35459814810558754  0.8143699485357986  1.0000
  H   H6        1.0  0.4604985759906127  0.6454002454231897  0.18562853488795386  1.0000
  H   H7        1.0  0.18302739059076595  0.8494532764048941  0.7354507129056174  1.0000
  H   H8        1.0  0.8169712567163003  0.1505451383881251  0.2645495950861658  1.0000
  H   H9        1.0  0.8647776016907827  0.9247253457984356  0.7841213380542698  1.0000
  H   H10       1.0  0.1352223333170102  0.07527678566062689  0.21587835291511942  1.0000
  H   H11       1.0  0.6342072289402908  0.0915338929665737  0.9535210138086256  1.0000
  H   H12       1.0  0.3657927196611439  0.9084645430906875  0.04648111875117418  1.0000
  H   H13       1.0  0.7833986071850204  0.9208474136075182  0.22992256648426226  1.0000
  H   H14       1.0  0.216602616037207  0.0791510207524269  0.7700783789227614  1.0000
  H   H15       1.0  0.2352702200842102  0.8925164916420769  0.5122068613811379  1.0000
  H   H16       1.0  0.7647292724388423  0.1074831538199987  0.4877918413119744  1.0000
  H   H17       1.0  0.4600991137021922  0.9074366403003393  0.2697445660697184  1.0000
  H   H18       1.0  0.5399029725184049  0.09256304003637442  0.7302567818525176  1.0000
  H   H19       1.0  0.7501087741733486  0.6210622983631994  0.367102737001268  1.0000
  H   H20       1.0  0.2498920107528804  0.37893736070926554  0.6328967863529371  1.0000
  C   C1        1.0  0.14629773897402024  0.662641049180138  0.9443876945655064  1.0000
  C   C2        1.0  0.8537026165473945  0.3373598422586994  0.05561141064281831  1.0000
  C   C3        1.0  0.20421733660393926  0.497272948114599  0.038855690121707115  1.0000
  C   C4        1.0  0.7957830189174755  0.5027279433242384  0.9611434150866246  1.0000
  C   C5        1.0  0.3491232166669818  0.38891210170974216  0.9917946604843095  1.0000
  C   C6        1.0  0.6508762847472626  0.611087551406186  0.008205046115747896  1.0000
  C   C7        1.0  0.4303303748256511  0.44121883963877195  0.8521931246801059  1.0000
  C   C8        1.0  0.569666980078239  0.5587795615438578  0.14780636265058428  1.0000
  C   C9        1.0  0.36870121499069336  0.6069316300958079  0.7585520997335707  1.0000
  C   C10       1.0  0.6312944358875896  0.3930680051505107  0.24144815660402227  1.0000
  C   C11       1.0  0.2284843707390039  0.719353353253787  0.8056225361471477  1.0000
  C   C12       1.0  0.771513408867243  0.2806475186181173  0.1943759316459364  1.0000
  C   C13       1.0  0.8680045032464181  0.9053921586257657  0.8992820356671699  1.0000
  C   C14       1.0  0.13199458654538895  0.0946087421642403  0.10071926060087581  1.0000
  C   C15       1.0  0.7537215365832707  0.985126214080168  0.9872704286863934  1.0000
  C   C16       1.0  0.24627798261334993  0.0148734543434657  0.01273128572753278  1.0000
  C   C17       1.0  0.8263188222668064  0.8987649338721582  0.12845255687330584  1.0000
  C   C18       1.0  0.1736806880386298  0.10123472689762279  0.8715481536336896  1.0000
  C   C19       1.0  0.3653204335104263  0.8061084109099143  0.5002475393111965  1.0000
  C   C20       1.0  0.6346786473901957  0.19389248222623928  0.49975275304991845  1.0000
  C   C21       1.0  0.48092759936520935  0.8110876716579012  0.3784179555616377  1.0000
  C   C22       1.0  0.5190740396681977  0.1889132257374726  0.6215809664008489  1.0000
  C   C23       1.0  0.6288331720562539  0.6666931846412824  0.42666712824800607  1.0000
  C   C24       1.0  0.37116590884436124  0.3333077084948712  0.5733331641131088  1.0000
  N   N1        1.0  0.9992084172293334  0.7777919739822251  0.9872493783241795  1.0000
  N   N2        1.0  0.0007923765880874592  0.2222076927440924  0.01275114893696379  1.0000
  N   N3        1.0  0.9752381133078956  0.7727603125505739  0.12846745530825388  1.0000
  N   N4        1.0  0.024762671618333273  0.22723934652189123  0.8715320680459513  1.0000
  N   N5        1.0  0.44415175258188105  0.6646551162845211  0.6142173145492864  1.0000
  N   N6        1.0  0.5558468947251854  0.3353432985084978  0.38578299344248995  1.0000
  N   N7        1.0  0.6069536087093965  0.577927666660088  0.5696705011209673  1.0000
  N   N8        1.0  0.3930458838136559  0.4220719788019949  0.4303282015721522  1.0000
  N   N9        1.0  0.9304232620666399  0.7700397256182753  0.5442514709708064  1.0000
  N   N10       1.0  0.0695771112371588  0.22996118112826738  0.45574964205139423  1.0000
  O   O1        1.0  0.021466089366604994  0.6204455542802022  0.5625497044715645  1.0000
  O   O2        1.0  0.9785342928283783  0.37955536012019303  0.4374524124575744  1.0000
  O   O3        1.0  0.9428252055808882  0.8834083191825995  0.42073428715215755  1.0000
  O   O4        1.0  0.057173875319726584  0.11659257395355378  0.5792660052089573  1.0000
  O   O5        1.0  0.8306092676597177  0.8027168407229509  0.647993238007956  1.0000
  O   O6        1.0  0.16938810921529068  0.1972852864768839  0.3520078233600614  1.0000
