data_image0
_chemical_formula_structural       Al4H33C56Br3N4O20
_chemical_formula_sum              "Al4 H33 C56 Br3 N4 O20"
_cell_length_a       6.665652921179427
_cell_length_b       17.123197768116
_cell_length_c       19.269426833559603
_cell_angle_alpha    109.90185328167672
_cell_angle_beta     89.56549941758328
_cell_angle_gamma    91.09340902971773

_space_group_name_H-M_alt    "P 1"
_space_group_IT_number       1

loop_
  _space_group_symop_operation_xyz
  'x, y, z'

loop_
  _atom_site_type_symbol
  _atom_site_label
  _atom_site_symmetry_multiplicity
  _atom_site_fract_x
  _atom_site_fract_y
  _atom_site_fract_z
  _atom_site_occupancy
  Al  Al1       1.0  0.1374345554906924  0.49867466699675606  0.4980263237987116  1.0000
  Al  Al2       1.0  0.636303768420639  0.4982957578329775  0.4972350834761058  1.0000
  Al  Al3       1.0  0.642114049265146  0.0011692499475160001  0.9954828177539664  1.0000
  Al  Al4       1.0  0.1425823205763237  0.9978161373035448  0.00045773171890312335  1.0000
  H   H1        1.0  0.15745299822714293  0.8179576140252466  0.09190305833293878  1.0000
  H   H2        1.0  0.31933805263970083  0.7085163118314173  0.12718633218263878  1.0000
  H   H3        1.0  0.32587921161237426  0.6192929783316004  0.20396643416280105  1.0000
  H   H4        1.0  0.6119163696842378  0.6753046476868294  0.40209485577813087  1.0000
  H   H5        1.0  0.4500329613359852  0.7859720310994264  0.366866688619936  1.0000
  H   H6        1.0  0.44328865956613595  0.8751936877822573  0.2902409400429064  1.0000
  H   H7        1.0  0.02899211246334941  0.793198988912096  0.6515406782963067  1.0000
  H   H8        1.0  0.54519903410246  0.6945003290485875  0.7181495155152006  1.0000
  H   H9        1.0  0.7505793763550344  0.7017725348157741  0.8474017054403119  1.0000
  H   H10       1.0  0.345848087778613  0.1168312582524464  0.26382135282683083  1.0000
  H   H11       1.0  0.6572848564735452  0.23473127865700869  0.32855938350697034  1.0000
  H   H12       1.0  0.4391509867763688  0.3858190776576508  0.2296521950627833  1.0000
  H   H13       1.0  0.133351074892424  0.2663758985703169  0.16348806887864237  1.0000
  H   H14       1.0  0.06329100507449681  0.24731694611178776  0.30379957361095217  1.0000
  H   H15       1.0  0.6650737203793187  0.1770694216416331  0.896933241795814  1.0000
  H   H16       1.0  0.8278153667833266  0.2891313199555228  0.858631949105927  1.0000
  H   H17       1.0  0.8294036485318445  0.37614082058014037  0.7791977256320448  1.0000
  H   H18       1.0  0.6709691418528936  0.415525484556767  0.6791716892074999  1.0000
  H   H19       1.0  0.09555479941552389  0.31240968290778437  0.5916411477432816  1.0000
  H   H20       1.0  0.9339681136773736  0.20211178532301236  0.6315065701491418  1.0000
  H   H21       1.0  0.9257374990238391  0.11934048134759928  0.7123702443960978  1.0000
  H   H22       1.0  0.748003927999477  0.9114820271391295  0.71230875633735  1.0000
  H   H23       1.0  0.6101552120679801  0.9130099100088105  0.7839112495550324  1.0000
  H   H24       1.0  0.3520743578872613  0.8288547190190771  0.7475629654108857  1.0000
  H   H25       1.0  0.2935198820437749  0.8517844670056932  0.8381936386253624  1.0000
  H   H26       1.0  0.8637980445174734  0.294465311599204  0.22009603020958918  1.0000
  H   H27       1.0  0.7648252600163803  0.2646783073607608  0.13634367565359895  1.0000
  H   H28       1.0  0.8972616851478606  0.09822533146245155  0.8066672966918202  1.0000
  H   H29       1.0  0.0191824311087245  0.0605927951346175  0.8677159834376195  1.0000
  H   H30       1.0  0.3922090944092105  0.6029643566207527  0.5479102967579051  1.0000
  H   H31       1.0  0.8823559436443065  0.4037561399711508  0.5117280740667309  1.0000
  H   H32       1.0  0.40152784553959725  0.9073175025625347  0.016706829632560906  1.0000
  H   H33       1.0  0.8971699118798571  0.10197351169291842  0.05091211713397569  1.0000
  C   C1        1.0  0.3773257442517704  0.38204001185745545  0.3847647042925501  1.0000
  C   C2        1.0  0.3876593790261325  0.4178774783586193  0.5803462794204106  1.0000
  C   C3        1.0  0.8931750478136922  0.615584305703287  0.61203734847966  1.0000
  C   C4        1.0  0.8875297649207001  0.5736436734859753  0.4123458892021929  1.0000
  C   C5        1.0  0.7196767465365497  0.8772506994089684  0.1847636626378133  1.0000
  C   C6        1.0  0.8765260009114328  0.8732756248930614  0.13447673344727912  1.0000
  C   C7        1.0  0.0354378983126793  0.8196778450212606  0.13030062693137265  1.0000
  C   C8        1.0  0.04027820961121621  0.768228912785297  0.1731023430165806  1.0000
  C   C9        1.0  0.8823647496808463  0.7728924796797614  0.2246982488057724  1.0000
  C   C10       1.0  0.7201235657988008  0.8289993930524631  0.2315475091195011  1.0000
  C   C11       1.0  0.19913970081292834  0.7112866872510538  0.1666942893764087  1.0000
  C   C12       1.0  0.2029344604186321  0.6618453560120372  0.2091459304737241  1.0000
  C   C13       1.0  0.048804715533606206  0.665440297742528  0.26236665261106396  1.0000
  C   C14       1.0  0.8867968773433506  0.7216524572149438  0.2695187400170268  1.0000
  C   C15       1.0  0.7288455843503456  0.7260489601008049  0.3210666051058836  1.0000
  C   C16       1.0  0.5703008185730455  0.7831488523261427  0.3273841468452118  1.0000
  C   C17       1.0  0.5662573531993759  0.8326223372723264  0.28489374296106  1.0000
  C   C18       1.0  0.04929338540680562  0.6167124610809085  0.3087027236551805  1.0000
  C   C19       1.0  0.8934284072887452  0.6209691038733852  0.35943863639050005  1.0000
  C   C20       1.0  0.733929997100262  0.6743865639839798  0.36380534281421706  1.0000
  C   C21       1.0  0.7753680288946754  0.809576700875731  0.7424652256387104  1.0000
  C   C22       1.0  0.9670363300259694  0.773825404349502  0.6961046671232791  1.0000
  C   C23       1.0  0.8877832336479657  0.6828713313445434  0.6847310480561573  1.0000
  C   C24       1.0  0.6979678223355565  0.718585314422562  0.7317623428983494  1.0000
  C   C25       1.0  0.8120181003979214  0.721696649026484  0.8032977748346253  1.0000
  C   C26       1.0  0.003479932212386006  0.6865372087193793  0.756768132285522  1.0000
  C   C27       1.0  0.08375856079589282  0.7784682604012404  0.7679354224479906  1.0000
  C   C28       1.0  0.8910841184857574  0.8126436945903495  0.8150690567127653  1.0000
  C   C29       1.0  0.5395367594723197  0.2414156122685327  0.2918543111809413  1.0000
  C   C30       1.0  0.36623156125929063  0.17739278978628192  0.25712997078870353  1.0000
  C   C31       1.0  0.4024643922443545  0.18956981698516273  0.17991827542650896  1.0000
  C   C32       1.0  0.576963978864697  0.25364324188919346  0.21591885044558265  1.0000
  C   C33       1.0  0.4179495059392835  0.3254883965687369  0.23686237171124688  1.0000
  C   C34       1.0  0.2468897226623383  0.26096447930778777  0.20197579410928762  1.0000
  C   C35       1.0  0.20925439777820287  0.24867327534967396  0.2779082604900934  1.0000
  C   C36       1.0  0.3823879326979593  0.31244701809787057  0.31360806737199437  1.0000
  C   C37       1.0  0.19845576155743322  0.12471438535297352  0.8197201591622443  1.0000
  C   C38       1.0  0.3727223861662737  0.1250719931103177  0.8627595536416235  1.0000
  C   C39       1.0  0.5385164341915286  0.17625377102021392  0.8610707580088356  1.0000
  C   C40       1.0  0.541746639479591  0.22788809678725394  0.8184492521738915  1.0000
  C   C41       1.0  0.3756051783733981  0.22255978056482212  0.7700723820598225  1.0000
  C   C42       1.0  0.20793119538712554  0.1692953882510579  0.7688179109677404  1.0000
  C   C43       1.0  0.7032536167968575  0.28528807053801597  0.8210600117217906  1.0000
  C   C44       1.0  0.7044333968148706  0.3333328417838289  0.7772378462130545  1.0000
  C   C45       1.0  0.5440609684438797  0.3273931525642341  0.7262349234831972  1.0000
  C   C46       1.0  0.3786139489785186  0.27166050385913115  0.7233912527885022  1.0000
  C   C47       1.0  0.21616080618411362  0.2656156021994606  0.6736403959032484  1.0000
  C   C48       1.0  0.055572444573819324  0.20814991344246184  0.6706765949018845  1.0000
  C   C49       1.0  0.0514936295458668  0.162374948894346  0.7166029093132236  1.0000
  C   C50       1.0  0.5447255671359275  0.3738642868047393  0.6787040135217024  1.0000
  C   C51       1.0  0.3833391729806834  0.3684094805143019  0.6308935750801223  1.0000
  C   C52       1.0  0.2198330060000657  0.3155557654108989  0.6289752782332909  1.0000
  C   C53       1.0  0.38297339217185583  0.07566156695633453  0.9123973350282025  1.0000
  C   C54       1.0  0.40375609831182413  0.11925794146772263  0.10961951487247748  1.0000
  C   C55       1.0  0.88702609599995  0.9212379787552937  0.08228374549281632  1.0000
  C   C56       1.0  0.8842765357141715  0.8824260120130206  0.8853861396995127  1.0000
  Br  Br1       1.0  0.5039147902052507  0.9516954134832504  0.19389531565777657  1.0000
  Br  Br2       1.0  0.16512621738969815  0.5997693556569602  0.7675777424929817  1.0000
  Br  Br3       1.0  0.26257406865610733  0.5411524487272744  0.2980253875546807  1.0000
  N   N1        1.0  0.6610789532337834  0.875371716269868  0.7335934362974965  1.0000
  N   N2        1.0  0.2786420445502174  0.8104234744986486  0.7860357936421563  1.0000
  N   N3        1.0  0.7700381942544611  0.25195213079371837  0.18439206174411277  1.0000
  N   N4        1.0  0.027227365070970712  0.08175566119339094  0.8243073277057176  1.0000
  O   O1        1.0  0.5590450084369182  0.44423322196295356  0.5671888889166893  1.0000
  O   O2        1.0  0.20834545330075124  0.41443085936740703  0.4074256885380762  1.0000
  O   O3        1.0  0.05119371233602272  0.5654495530263619  0.4419766156302243  1.0000
  O   O4        1.0  0.220808181104772  0.4286833084827749  0.5530636889415063  1.0000
  O   O5        1.0  0.0647100266015244  0.5860497431605652  0.5885886895314769  1.0000
  O   O6        1.0  0.5451970713294189  0.4045978188018964  0.4173629419254324  1.0000
  O   O7        1.0  0.3891781825677754  0.5500714016589541  0.5077096999729206  1.0000
  O   O8        1.0  0.7263100592980578  0.5940982599600275  0.578256343775571  1.0000
  O   O9        1.0  0.7154166131579345  0.5487566592262852  0.42574905268588015  1.0000
  O   O10       1.0  0.8848726138929522  0.44889614807021166  0.49209745459222615  1.0000
  O   O11       1.0  0.23389841558960717  0.09538500384288541  0.07826923060488868  1.0000
  O   O12       1.0  0.5527500885063574  0.06803986590713863  0.9395884161586634  1.0000
  O   O13       1.0  0.7170925352528175  0.9195358091918564  0.9036150369090304  1.0000
  O   O14       1.0  0.57256782151147  0.08707669516796557  0.08560919819117166  1.0000
  O   O15       1.0  0.7269717188678869  0.9292257430342803  0.050160763646133005  1.0000
  O   O16       1.0  0.21947139834886542  0.04301328418080891  0.9262036335951432  1.0000
  O   O17       1.0  0.3923780359164369  0.94794162919537  0.9919546286201351  1.0000
  O   O18       1.0  0.061521060713346315  0.9474050321339506  0.07195519923441643  1.0000
  O   O19       1.0  0.04540244523888501  0.9018180432701757  0.9231092912710178  1.0000
  O   O20       1.0  0.896310019882158  0.0514656370779818  0.007787053141235793  1.0000
