data_image0
_chemical_formula_structural       Zn6H30C62N10O36
_chemical_formula_sum              "Zn6 H30 C62 N10 O36"
_cell_length_a       21.80974262125375
_cell_length_b       21.919689346282112
_cell_length_c       21.824613286531875
_cell_angle_alpha    118.97646923477156
_cell_angle_beta     117.9353931706166
_cell_angle_gamma    92.67439720724671

_space_group_name_H-M_alt    "P 1"
_space_group_IT_number       1

loop_
  _space_group_symop_operation_xyz
  'x, y, z'

loop_
  _atom_site_type_symbol
  _atom_site_label
  _atom_site_symmetry_multiplicity
  _atom_site_fract_x
  _atom_site_fract_y
  _atom_site_fract_z
  _atom_site_occupancy
  Zn  Zn1       1.0  0.5034660575762686  0.43046144785910917  0.4948185038324981  1.0000
  Zn  Zn2       1.0  0.5034657906964313  0.5606150701928954  0.504454206428342  1.0000
  Zn  Zn3       1.0  0.9395859484145812  0.005112452622455499  0.5064988084442419  1.0000
  Zn  Zn4       1.0  0.06161308398042582  0.9979278597405358  0.49649198702314845  1.0000
  Zn  Zn5       1.0  0.03989626849878658  0.5382982536245111  0.5810750297172264  1.0000
  Zn  Zn6       1.0  0.9617408969612598  0.44830445911318856  0.4101370291649858  1.0000
  H   H1        1.0  0.7295674712107925  0.7015110791291336  0.0719062555557743  1.0000
  H   H2        1.0  0.17277245522258514  0.307510286371496  0.9130596271304514  1.0000
  H   H3        1.0  0.8774657112745602  0.8151050784883509  0.09517038279055605  1.0000
  H   H4        1.0  0.1279604558938203  0.1628185368028667  0.9377422952987331  1.0000
  H   H5        1.0  0.16402181891226061  0.42869443895421  0.41325350916273623  1.0000
  H   H6        1.0  0.8092805266183093  0.49967342747527993  0.5132085890688175  1.0000
  H   H7        1.0  0.34547160889138695  0.5685760030176044  0.5551594912204296  1.0000
  H   H8        1.0  0.6419543747614186  0.35335243324659166  0.4023050441811834  1.0000
  H   H9        1.0  0.025018613009251664  0.6435727449856046  0.4175955734067572  1.0000
  H   H10       1.0  0.02725610763893374  0.3627372745163768  0.6372658324406616  1.0000
  H   H11       1.0  0.025515060985839083  0.739958349169875  0.5783005236709117  1.0000
  H   H12       1.0  0.053242071533802025  0.2992545487440168  0.4940482088736928  1.0000
  H   H13       1.0  0.6111962820174597  0.6648080732507254  0.9127486796355273  1.0000
  H   H14       1.0  0.3188234862669361  0.3923688389267427  0.06206344988312662  1.0000
  H   H15       1.0  0.796313630341352  0.8818072647187944  0.06267823106225724  1.0000
  H   H16       1.0  0.24721239896339142  0.1491824526382928  0.9620612069705459  1.0000
  H   H17       1.0  0.8366484851669611  0.7285304661565633  0.07290409201357331  1.0000
  H   H18       1.0  0.11592313000706161  0.24532703946295703  0.9460115707192572  1.0000
  H   H19       1.0  0.725979535095277  0.6106075910188337  0.9219981099509057  1.0000
  H   H20       1.0  0.19506140250098986  0.37782808000083895  0.0704622929611888  1.0000
  H   H21       1.0  0.30770447984645694  0.616981202278872  0.6458164485505196  1.0000
  H   H22       1.0  0.6646344718667336  0.3011553692409947  0.29548335519977803  1.0000
  H   H23       1.0  0.9512909138516932  0.8508697312460002  0.5357016158794112  1.0000
  H   H24       1.0  0.12675936333857857  0.1803116575392991  0.5105926568671393  1.0000
  H   H25       1.0  0.6068435569898439  0.8237431278058694  0.9553935021032915  1.0000
  H   H26       1.0  0.3994568113877506  0.27627641030681366  0.024481953801185386  1.0000
  H   H27       1.0  0.8478425349775163  0.670252702607691  0.9490448586744124  1.0000
  H   H28       1.0  0.2148732798554676  0.3382129532407063  0.15729659305320348  1.0000
  H   H29       1.0  0.7982727651788579  0.7652181541038415  0.8976912503213017  1.0000
  H   H30       1.0  0.18889203086857256  0.18778509054492792  0.07348358433465313  1.0000
  C   C1        1.0  0.39146351266585816  0.4616186216931908  0.5038664462043201  1.0000
  C   C2        1.0  0.6056845027245004  0.4687270662247371  0.47522619887436685  1.0000
  C   C3        1.0  0.8248630303666216  0.7701026804283302  0.05902889592474029  1.0000
  C   C4        1.0  0.15738684629185684  0.21948444954334434  0.9620021337957779  1.0000
  C   C5        1.0  0.788332371428936  0.73389312380516  0.9637875845089924  1.0000
  C   C6        1.0  0.21308384659752727  0.2644131200855995  0.05854510060507323  1.0000
  C   C7        1.0  0.8124610350114453  0.8473853612757695  0.17751708785862538  1.0000
  C   C8        1.0  0.14926019512007827  0.1627078514642761  0.8284413094941881  1.0000
  C   C9        1.0  0.6639598503020706  0.6733029471571611  0.827751563687194  1.0000
  C   C10       1.0  0.3336849459553264  0.36676752307105437  0.17592407842668933  1.0000
  C   C11       1.0  0.6304838525485578  0.637680687855422  0.7512477781601492  1.0000
  C   C12       1.0  0.3702591689951831  0.4087228103467098  0.2525710526461468  1.0000
  C   C13       1.0  0.24088072595656485  0.5261069886976558  0.5350952560829967  1.0000
  C   C14       1.0  0.7324807079076764  0.3973527297205949  0.3994380399731555  1.0000
  C   C15       1.0  0.17110869439864732  0.476094142778507  0.46952195490216314  1.0000
  C   C16       1.0  0.7999647818434992  0.45280329988707985  0.45510642397837836  1.0000
  C   C17       1.0  0.3049160713086181  0.5178857125432188  0.5310887166662114  1.0000
  C   C18       1.0  0.6766756088644853  0.40378769323539393  0.41907291660217555  1.0000
  C   C19       1.0  0.3223590994160547  0.4554059036272449  0.5033264999913953  1.0000
  C   C20       1.0  0.6628487002667286  0.4672501126991265  0.4555142425460944  1.0000
  C   C21       1.0  0.014156341224101414  0.88070410282009  0.4917952581448335  1.0000
  C   C22       1.0  0.04560123531008742  0.1254271837793723  0.5245636262673727  1.0000
  C   C23       1.0  0.5870259575513684  0.5933199846548759  0.660006331028697  1.0000
  C   C24       1.0  0.4168504391337676  0.450737413959061  0.34367124350003314  1.0000
  C   C25       1.0  0.894975604845108  0.9304447184211925  0.3453633439093054  1.0000
  C   C26       1.0  0.05994731451400529  0.0737755176640889  0.6611084467982664  1.0000
  C   C27       1.0  0.012844340880363427  0.6222779819297984  0.5216269460817032  1.0000
  C   C28       1.0  0.03524419515666477  0.40442010156633057  0.542497056391575  1.0000
  C   C29       1.0  0.10329826602497866  0.48160966607048294  0.46715349820329527  1.0000
  C   C30       1.0  0.8666357946081857  0.45759496796976135  0.4537835944663798  1.0000
  C   C31       1.0  0.025975061520121356  0.693771588556423  0.46675540797542686  1.0000
  C   C32       1.0  0.03786715191716897  0.32299203485282396  0.5918025288778994  1.0000
  C   C33       1.0  0.02016682977067335  0.6911129245375707  0.5244123556071046  1.0000
  C   C34       1.0  0.046880236774718836  0.33901434815334147  0.5435580141118522  1.0000
  C   C35       1.0  0.036233151763262667  0.7593279022768514  0.4654533837599146  1.0000
  C   C36       1.0  0.031640693215244764  0.25103086131178304  0.5801731525284808  1.0000
  C   C37       1.0  0.0101328424037491  0.8148767967144225  0.4962563916334802  1.0000
  C   C38       1.0  0.061615595057517715  0.2020725264373269  0.5454064362153161  1.0000
  C   C39       1.0  0.6712197066252514  0.6773537976192117  0.946733365627182  1.0000
  C   C40       1.0  0.26686274621082623  0.355524440476188  0.04008701191563805  1.0000
  C   C41       1.0  0.689472723076925  0.7946581863649486  0.9508802587654802  1.0000
  C   C42       1.0  0.32781182955887544  0.2627873176912631  0.0518540118624672  1.0000
  C   C43       1.0  0.7470134743990968  0.8486976905015383  0.049939476237192144  1.0000
  C   C44       1.0  0.2666303755081215  0.1939227531715133  0.9585511635367255  1.0000
  C   C45       1.0  0.8470208659481174  0.8859079788089234  0.2542068582240875  1.0000
  C   C46       1.0  0.10702818786519688  0.1202907482506816  0.7521321321457748  1.0000
  C   C47       1.0  0.70243578441017  0.7178209126670083  0.9189884976657865  1.0000
  C   C48       1.0  0.28710462667296344  0.31416473581034415  0.08484719900253178  1.0000
  C   C49       1.0  0.7065039611945849  0.7324920918100872  0.0446007409092673  1.0000
  C   C50       1.0  0.22359658562947263  0.2959949174667572  0.9416525467491256  1.0000
  C   C51       1.0  0.7729789602424686  0.8013234970916443  0.08605031140946534  1.0000
  C   C52       1.0  0.19834480012360706  0.21595335566454574  0.9192549904286766  1.0000
  C   C53       1.0  0.6513850453015735  0.75271291639762  0.0626487207943782  1.0000
  C   C54       1.0  0.2640965785951365  0.3027826956893094  0.906539062064823  1.0000
  C   C55       1.0  0.2798775979610753  0.38514026538467055  0.4751330211407848  1.0000
  C   C56       1.0  0.6984143378902913  0.536200577818711  0.47471764592086185  1.0000
  C   C57       1.0  0.0695117491311664  0.7599284546694137  0.42291657366629226  1.0000
  C   C58       1.0  0.9905828146821418  0.2334684418816053  0.6082050037441035  1.0000
  C   C59       1.0  0.7000904889629211  0.8295144574250416  0.9115035613992221  1.0000
  C   C60       1.0  0.3679937429205253  0.23614437449542441  0.10442692711109201  1.0000
  C   C61       1.0  0.7153020832253746  0.900414116187001  0.08656520904428833  1.0000
  C   C62       1.0  0.29989370335574955  0.16627949109591364  0.9108297252905048  1.0000
  N   N1        1.0  0.6063150262345259  0.7670834577459685  0.07597406927472866  1.0000
  N   N2        1.0  0.2956597676413679  0.30969007106904206  0.8782222763650581  1.0000
  N   N3        1.0  0.2452124664176409  0.32686538220250577  0.45101221103715256  1.0000
  N   N4        1.0  0.7265465996576594  0.5936426232489608  0.49155526306934416  1.0000
  N   N5        1.0  0.0957706389001417  0.754160327956896  0.38524170719841794  1.0000
  N   N6        1.0  0.9579754897343234  0.22703830352197227  0.635949713548783  1.0000
  N   N7        1.0  0.7060746616607148  0.8586912783602186  0.880926867145128  1.0000
  N   N8        1.0  0.40478800353672983  0.21561348070965644  0.14415232816359247  1.0000
  N   N9        1.0  0.6867048239784809  0.9412255634041315  0.11002295336130892  1.0000
  N   N10       1.0  0.3313934485534701  0.1459579712740506  0.8781552743726807  1.0000
  O   O1        1.0  0.4168893945401848  0.40839351192934004  0.4960647341410792  1.0000
  O   O2        1.0  0.585913638548689  0.5250306926379977  0.49131640199020415  1.0000
  O   O3        1.0  0.9799383629271572  0.5594966435141162  0.45044835823566853  1.0000
  O   O4        1.0  0.061007137500993736  0.46859760607411965  0.6124495264628891  1.0000
  O   O5        1.0  0.10860254145346468  0.5233322698488295  0.5361802651200593  1.0000
  O   O6        1.0  0.8620486624455949  0.42102212836962144  0.383456777672592  1.0000
  O   O7        1.0  0.04149194528884695  0.44102680448672527  0.3928167799634822  1.0000
  O   O8        1.0  0.9269550898959763  0.5016027742931187  0.5266860355400028  1.0000
  O   O9        1.0  0.41966519657197676  0.5191395507762805  0.5121596237462002  1.0000
  O   O10       1.0  0.5808140188898534  0.4137732169309558  0.47451841559011854  1.0000
  O   O11       1.0  0.571310382771017  0.5232776702092607  0.6213280221194212  1.0000
  O   O12       1.0  0.43693694829276813  0.5223811646912752  0.38616451213368214  1.0000
  O   O13       1.0  0.5672334156960303  0.6294855578120675  0.6261563145291973  1.0000
  O   O14       1.0  0.43436909773078725  0.41297186126116975  0.3742855905347044  1.0000
  O   O15       1.0  0.9667556510193336  0.9103000475683134  0.4991071471399882  1.0000
  O   O16       1.0  0.09004212772245519  0.09240990988251949  0.5107627528719192  1.0000
  O   O17       1.0  0.06350887165451989  0.9040819895679135  0.48448006995409576  1.0000
  O   O18       1.0  0.9900721406491397  0.09704443465123802  0.5191081780566479  1.0000
  O   O19       1.0  0.8643138499946943  0.9496237043474666  0.38660989919211636  1.0000
  O   O20       1.0  0.0916451205340678  0.05371707506778729  0.6222056140143978  1.0000
  O   O21       1.0  0.9640780642571228  0.9465116506686897  0.3771183329416844  1.0000
  O   O22       1.0  0.9895656887431982  0.05757027042988481  0.6274545421559099  1.0000
  O   O23       1.0  0.04227635528221199  0.6326658915074218  0.5945040189007216  1.0000
  O   O24       1.0  0.9982623110827332  0.39087315678683143  0.4690809515812263  1.0000
  O   O25       1.0  0.6830153849027097  0.6094074928200968  0.9261315644559576  1.0000
  O   O26       1.0  0.22658348983316057  0.40077692326675424  0.0611416936741876  1.0000
  O   O27       1.0  0.25434796754484523  0.5901561553626921  0.6051496997067433  1.0000
  O   O28       1.0  0.7162475808243727  0.33275633151180983  0.3283378399764062  1.0000
  O   O29       1.0  0.9731136451387454  0.8114945021225779  0.5302894575844591  1.0000
  O   O30       1.0  0.1073946406849302  0.22091034789711728  0.5272129293292451  1.0000
  O   O31       1.0  0.6148773783558639  0.7775037019095876  0.9261485262193007  1.0000
  O   O32       1.0  0.3801570610687861  0.30784781447083986  0.055724727382823865  1.0000
  O   O33       1.0  0.795045426711205  0.662845929043087  0.9222392917336963  1.0000
  O   O34       1.0  0.17933321193203972  0.3095500432017175  0.09568810827006058  1.0000
  O   O35       1.0  0.823450704717878  0.783953207933436  0.9574200232090961  1.0000
  O   O36       1.0  0.23341879061755577  0.21896160674753415  0.0878476640610018  1.0000
