data_image0
_chemical_formula_structural       Cu2H20C18N2O8
_chemical_formula_sum              "Cu2 H20 C18 N2 O8"
_cell_length_a       7.237382634857955
_cell_length_b       8.021200590242158
_cell_length_c       10.982140761514056
_cell_angle_alpha    77.84447109465809
_cell_angle_beta     81.27205676871566
_cell_angle_gamma    65.82138486876143

_space_group_name_H-M_alt    "P 1"
_space_group_IT_number       1

loop_
  _space_group_symop_operation_xyz
  'x, y, z'

loop_
  _atom_site_type_symbol
  _atom_site_label
  _atom_site_symmetry_multiplicity
  _atom_site_fract_x
  _atom_site_fract_y
  _atom_site_fract_z
  _atom_site_occupancy
  Cu  Cu1       1.0  0.9772317910585214  0.43800434822808404  0.4129760736264458  1.0000
  Cu  Cu2       1.0  0.13986315944665506  0.4338938619879968  0.6071144661060544  1.0000
  H   H1        1.0  0.7699909823330059  0.2815985624453035  0.847849851915413  1.0000
  H   H2        1.0  0.34779019151323354  0.540199321998756  0.18933018208557684  1.0000
  H   H3        1.0  0.4930118345224059  0.7503387325205751  0.7529033151511014  1.0000
  H   H4        1.0  0.38909253301137875  0.7681711817427015  0.6094684901235112  1.0000
  H   H5        1.0  0.4994270042640708  0.9241200136551768  0.6249338011197096  1.0000
  H   H6        1.0  0.5706449746194264  0.29143625920702476  0.678934825641079  1.0000
  H   H7        1.0  0.5455856578440719  0.5367454322323795  0.3564519201887322  1.0000
  H   H8        1.0  0.9166781996848383  0.34736171478036937  0.963270755357506  1.0000
  H   H9        1.0  0.08835064130893501  0.3416605806895348  0.1449390671284831  1.0000
  H   H10       1.0  0.028656211035141224  0.6007616608492228  0.853545057730642  1.0000
  H   H11       1.0  0.20048802927918527  0.6149069863190418  0.028871193187491446  1.0000
  H   H12       1.0  0.7288432209218172  0.0917914694303263  0.4193886836338763  1.0000
  H   H13       1.0  0.6281663395277376  0.11170432107526548  0.2740927982105958  1.0000
  H   H14       1.0  0.613127323209291  0.9404954826693483  0.40153911843066226  1.0000
  H   H15       1.0  0.26369637460945944  0.9220929734619572  0.37822457853408764  1.0000
  H   H16       1.0  0.029540001970715907  0.0081910189423624  0.3083889594066775  1.0000
  H   H17       1.0  0.2527380997077843  0.862532203622429  0.23167432077395492  1.0000
  H   H18       1.0  0.987238111762224  0.9409316512175324  0.7854948351553616  1.0000
  H   H19       1.0  0.03895343797545077  0.8652491037785736  0.6369457772975196  1.0000
  H   H20       1.0  0.7885690988137455  0.004351938364060002  0.683369234146241  1.0000
  C   C1        1.0  0.6140064782829809  0.4456201785022245  0.058871119893204614  1.0000
  C   C2        1.0  0.503163232077469  0.44574020952106247  0.9561630651443735  1.0000
  C   C3        1.0  0.6055691905451468  0.35399394778893617  0.855102615878657  1.0000
  C   C4        1.0  0.5112903304937505  0.5000089375943019  0.1720254992937598  1.0000
  C   C5        1.0  0.5104530275139751  0.7804864833890122  0.6508686639115241  1.0000
  C   C6        1.0  0.4960685961899358  0.3569561374410455  0.7604784302709362  1.0000
  C   C7        1.0  0.6204360606855132  0.4967564541283663  0.26703155204403833  1.0000
  C   C8        1.0  0.9878490924107907  0.14988862885607546  0.6256122219517195  1.0000
  C   C9        1.0  0.7146176268489485  0.6517606240516046  0.6020192880546417  1.0000
  C   C10       1.0  0.8263154006132751  0.38917658461938487  0.04861723242232332  1.0000
  C   C11       1.0  0.9235455383469925  0.387885355040595  0.1489709056177873  1.0000
  C   C12       1.0  0.1931480547059508  0.531256785305338  0.8573058277513825  1.0000
  C   C13       1.0  0.29084108082988536  0.5375963927098368  0.9550157309398983  1.0000
  C   C14       1.0  0.6072810628673294  0.08259861472642172  0.376089660173804  1.0000
  C   C15       1.0  0.40386602696209906  0.21591322815547184  0.42214516464395047  1.0000
  C   C16       1.0  0.17355039437067907  0.8883648057126478  0.3234833552840328  1.0000
  C   C17       1.0  0.9480870986293227  0.9798760186408019  0.6882616200529698  1.0000
  C   C18       1.0  0.12992855267472694  0.721623598778919  0.3900362328463771  1.0000
  N   N1        1.0  0.2928621880514512  0.44216349989361686  0.7614047531313446  1.0000
  N   N2        1.0  0.8233902456945899  0.441228559575812  0.2566173962538443  1.0000
  O   O1        1.0  0.25525623099494515  0.26839195129046794  0.3545214678273041  1.0000
  O   O2        1.0  0.8634628663470137  0.5966607035888175  0.6700531966593388  1.0000
  O   O3        1.0  0.7231978783736109  0.6098824839910578  0.4948978367651335  1.0000
  O   O4        1.0  0.39572685574552935  0.2642005907198595  0.5271359449843445  1.0000
  O   O5        1.0  0.9309520717318946  0.2177851824990427  0.5152073476469142  1.0000
  O   O6        1.0  0.1793861588832612  0.6589564223605608  0.5023075545045685  1.0000
  O   O7        1.0  0.047113259522504385  0.655659412762148  0.3285092506705851  1.0000
  O   O8        1.0  0.07524813212563687  0.2116590827376187  0.687069833631881  1.0000
