data_image0
_chemical_formula_structural       Zn4H80C90N20
_chemical_formula_sum              "Zn4 H80 C90 N20"
_cell_length_a       19.956486563898462
_cell_length_b       20.070200866527575
_cell_length_c       20.468124558584442
_cell_angle_alpha    108.39182670006765
_cell_angle_beta     106.56215209285975
_cell_angle_gamma    112.19775574497335

_space_group_name_H-M_alt    "P 1"
_space_group_IT_number       1

loop_
  _space_group_symop_operation_xyz
  'x, y, z'

loop_
  _atom_site_type_symbol
  _atom_site_label
  _atom_site_symmetry_multiplicity
  _atom_site_fract_x
  _atom_site_fract_y
  _atom_site_fract_z
  _atom_site_occupancy
  Zn  Zn1       1.0  0.6077609909726363  0.6059321257194624  0.5060586263455776  1.0000
  Zn  Zn2       1.0  0.39125109964734855  0.39714599236692283  0.49245514056109146  1.0000
  Zn  Zn3       1.0  0.5111068745350025  0.5937645212239531  0.6122084116066164  1.0000
  Zn  Zn4       1.0  0.4956793301776656  0.40829953435747507  0.39506063212382986  1.0000
  H   H1        1.0  0.7652901071875035  0.6138908562943257  0.6140741243821141  1.0000
  H   H2        1.0  0.5028487069113865  0.0287391367551777  0.45647046665081353  1.0000
  H   H3        1.0  0.4567937433305573  0.9708835043302884  0.5556835389228213  1.0000
  H   H4        1.0  0.5377013089157359  0.13543944493675752  0.6739400044452993  1.0000
  H   H5        1.0  0.4021229382990795  0.6049490796947337  0.8250909566273993  1.0000
  H   H6        1.0  0.4776363573401524  0.5992138780662373  0.7640809352413955  1.0000
  H   H7        1.0  0.37754053092155004  0.6093205971854943  0.9380861083098541  1.0000
  H   H8        1.0  0.436869782582356  0.6680530003003325  0.14799815019472368  1.0000
  H   H9        1.0  0.47504787059261816  0.669344835154355  0.2755271060083971  1.0000
  H   H10       1.0  0.2634534256194597  0.34083740304200916  0.7099699639333324  1.0000
  H   H11       1.0  0.2550119972135221  0.41280309913932456  0.03292820385822645  1.0000
  H   H12       1.0  0.2546610367686313  0.39707030590835757  0.3648738827480218  1.0000
  H   H13       1.0  0.09168084786627179  0.9777075381392494  0.01738920931036618  1.0000
  H   H14       1.0  0.6198835554259999  0.38356335013209275  0.3162641944552079  1.0000
  H   H15       1.0  0.8805898883056712  0.6509748959225519  0.7211676008287499  1.0000
  H   H16       1.0  0.21238135528062677  0.052453206887399496  0.29566332624153097  1.0000
  H   H17       1.0  0.7523143869861358  0.6641175767734423  0.8579231293756211  1.0000
  H   H18       1.0  0.7733808679992292  0.6421365051003531  0.48040289328398006  1.0000
  H   H19       1.0  0.6299450141718239  0.5856455912849086  0.7455708754260048  1.0000
  H   H20       1.0  0.5082208615392076  0.6631497261817146  0.3978698360101733  1.0000
  H   H21       1.0  0.4634593426547866  0.20198285306850036  0.2891622047715715  1.0000
  H   H22       1.0  0.37028671357565207  0.11200744836849448  0.21472815467908657  1.0000
  H   H23       1.0  0.5494401607086205  0.7873657801731966  0.685713955553169  1.0000
  H   H24       1.0  0.4439561077736016  0.16708344963240757  0.1904120292329169  1.0000
  H   H25       1.0  0.3301815376005379  0.19576834665117807  0.16135335927268107  1.0000
  H   H26       1.0  0.4225400157154765  0.2856889348244209  0.2340386111239782  1.0000
  H   H27       1.0  0.1412356871511165  0.2595618142466448  0.3210528332597279  1.0000
  H   H28       1.0  0.10048034756231772  0.1543798116985045  0.25868214374268933  1.0000
  H   H29       1.0  0.0817099705285216  0.1835814725741471  0.3401235757527844  1.0000
  H   H30       1.0  0.18897077211031646  0.14701556621875514  0.36981284842134  1.0000
  H   H31       1.0  0.23113210115433694  0.25213299472618184  0.43012955254839375  1.0000
  H   H32       1.0  0.41818355896719345  0.7441374048280592  0.5450790012844139  1.0000
  H   H33       1.0  0.3105536123831812  0.696354719471941  0.5095252898323468  1.0000
  H   H34       1.0  0.6612237782841462  0.7923696525287909  0.5333424893018166  1.0000
  H   H35       1.0  0.37693452544149153  0.772203119643919  0.6082640315820529  1.0000
  H   H36       1.0  0.3177611227371244  0.6339028733270026  0.5983632135759367  1.0000
  H   H37       1.0  0.42373185224739984  0.6784576640979764  0.632755645473303  1.0000
  H   H38       1.0  0.0831077795131492  0.634542724534917  0.37618786351372807  1.0000
  H   H39       1.0  0.33284937149335997  0.23513167975818305  0.5089703769643493  1.0000
  H   H40       1.0  0.3862879765510457  0.18462507711389262  0.5277120919638493  1.0000
  H   H41       1.0  0.3454015242596142  0.216579795447096  0.589981894863037  1.0000
  H   H42       1.0  0.49671403583748497  0.3116186497192501  0.6519967170017228  1.0000
  H   H43       1.0  0.44522327761912805  0.3642333840677026  0.6355754870944283  1.0000
  H   H44       1.0  0.9243674019615185  0.5013531864709222  0.2632972068599743  1.0000
  H   H45       1.0  0.3667341951057565  0.39886315416554635  0.2555621751400069  1.0000
  H   H46       1.0  0.9528934875043688  0.3123486610686044  0.376934386616263  1.0000
  H   H47       1.0  0.001865517937709178  0.37878076084535184  0.4781421090879264  1.0000
  H   H48       1.0  0.9044243013736873  0.2894405956848586  0.4339529110315966  1.0000
  H   H49       1.0  0.8896319609554482  0.41312029866543304  0.46037578487121794  1.0000
  H   H50       1.0  0.8418936427855215  0.3476125663937993  0.35965500716899634  1.0000
  H   H51       1.0  0.6827742316977209  0.13107645207658436  0.7293391529118767  1.0000
  H   H52       1.0  0.6216076144063719  0.05324254964635598  0.4115950096393349  1.0000
  H   H53       1.0  0.7219814164772487  0.1237970475189201  0.48840936946974994  1.0000
  H   H54       1.0  0.7006464429131966  0.03179980642987349  0.41453539733168304  1.0000
  H   H55       1.0  0.7122112703377396  0.019025201779896896  0.5353114788156789  1.0000
  H   H56       1.0  0.028582193361721558  0.6501329611238519  0.49109249673909283  1.0000
  H   H57       1.0  0.6124422518477103  0.9489550465779003  0.4589599852807355  1.0000
  H   H58       1.0  0.2361642090597798  0.3467423423559807  0.822696243708329  1.0000
  H   H59       1.0  0.28934621244735587  0.4136096468075579  0.15981170935658184  1.0000
  H   H60       1.0  0.1909779598132459  0.1241148693434866  0.11726947555504817  1.0000
  H   H61       1.0  0.9963709786212434  0.6874617042330157  0.7156788554932239  1.0000
  H   H62       1.0  0.009464642272092956  0.7867893752158324  0.7468747155946363  1.0000
  H   H63       1.0  0.09567942863183286  0.7748822951865008  0.7683875846345389  1.0000
  H   H64       1.0  0.08067428551750311  0.818494042631954  0.888173645872364  1.0000
  H   H65       1.0  0.060471515632841144  0.7181575325269449  0.8549646800603912  1.0000
  H   H66       1.0  0.8848878546940994  0.7623685404385155  0.9767527275486717  1.0000
  H   H67       1.0  0.07404234241490577  0.5409803036265544  0.5216265416047465  1.0000
  H   H68       1.0  0.19761208307401998  0.950411960811614  0.32312516971307315  1.0000
  H   H69       1.0  0.10674135283159106  0.9523757798127478  0.3110418898304845  1.0000
  H   H70       1.0  0.10828146046421243  0.8613808199952543  0.29827431197065846  1.0000
  H   H71       1.0  0.03811295955836862  0.8447880473812074  0.1678181483390588  1.0000
  H   H72       1.0  0.1298054277109486  0.8484181597994291  0.1813951898175931  1.0000
  H   H73       1.0  0.28317860448267135  0.35177930315293077  0.5921613646198056  1.0000
  H   H74       1.0  0.7279585942765081  0.4572850907029816  0.5313422084619505  1.0000
  H   H75       1.0  0.730735351259561  0.3845761960492736  0.5624226892323139  1.0000
  H   H76       1.0  0.7495846493723517  0.3838106743717872  0.48215998362882584  1.0000
  H   H77       1.0  0.6082047138888385  0.2706339590112989  0.43709895306238195  1.0000
  H   H78       1.0  0.9694413761220628  0.3919250615481502  0.29342154985037194  1.0000
  H   H79       1.0  0.6052341933818609  0.3413409141487094  0.4040451327270846  1.0000
  H   H80       1.0  0.7291218262076952  0.18885210861333945  0.630316041645223  1.0000
  C   C1        1.0  0.7207428762760557  0.6023389970277719  0.635870965212  1.0000
  C   C2        1.0  0.6329469113093253  0.7781660437458556  0.569089404165702  1.0000
  C   C3        1.0  0.4071423546284905  0.46224805047578604  0.3004697012323734  1.0000
  C   C4        1.0  0.49836001960016313  0.33898208020517023  0.5608380850044343  1.0000
  C   C5        1.0  0.3518524928502273  0.5789027486915614  0.5185212076211416  1.0000
  C   C6        1.0  0.41952642973458865  0.5348462251803526  0.29718259056316776  1.0000
  C   C7        1.0  0.27869993969859064  0.5179248412984663  0.4492719238122478  1.0000
  C   C8        1.0  0.6070298598411056  0.8227597141993923  0.6130400024481164  1.0000
  C   C9        1.0  0.26809194128352937  0.18305064181646455  0.2732275195487405  1.0000
  C   C10       1.0  0.039924910455170035  0.5321366341612901  0.46416896372838334  1.0000
  C   C11       1.0  0.016301191073985498  0.5928404096445803  0.4473474534799495  1.0000
  C   C12       1.0  0.5492930911169864  0.3121793880138384  0.5411556757139097  1.0000
  C   C13       1.0  0.7930649393193434  0.5140637193315031  0.3824051929066458  1.0000
  C   C14       1.0  0.2057628290849251  0.5188124053731256  0.4252316677576645  1.0000
  C   C15       1.0  0.9529156246719523  0.4575107710551335  0.40154498450343135  1.0000
  C   C16       1.0  0.43456786775521994  0.5398800377037888  0.7129741203374494  1.0000
  C   C17       1.0  0.927461242337877  0.5190243931538487  0.384578523983109  1.0000
  C   C18       1.0  0.9819566083523481  0.44928338110416616  0.3373408438111269  1.0000
  C   C19       1.0  0.07072651889720306  0.5229460768965736  0.4003021201660389  1.0000
  C   C20       1.0  0.9581559327636597  0.5101038490690044  0.32073346849794865  1.0000
  C   C21       1.0  0.04530537237805274  0.5840678502711609  0.3833612303436241  1.0000
  C   C22       1.0  0.854521888659832  0.5167827433818672  0.38018767578895335  1.0000
  C   C23       1.0  0.3650964491993848  0.4735440566903435  0.701821386419596  1.0000
  C   C24       1.0  0.14391187804115188  0.5225884404999234  0.4110951030767966  1.0000
  C   C25       1.0  0.6428468991012507  0.108985679272557  0.6686645237292768  1.0000
  C   C26       1.0  0.6685765214543907  0.1400087819689375  0.6138094613010738  1.0000
  C   C27       1.0  0.5687404177137623  0.25780886809077697  0.5594820510658849  1.0000
  C   C28       1.0  0.6460814442631175  0.4465105312707962  0.35911385878851865  1.0000
  C   C29       1.0  0.6068620664073877  0.893641391254519  0.6157381627805666  1.0000
  C   C30       1.0  0.5622580598940203  0.1101028354825431  0.6380658152763204  1.0000
  C   C31       1.0  0.5878515380457117  0.14281137767240182  0.5829021282028892  1.0000
  C   C32       1.0  0.5171726448590802  0.0199216424935713  0.5721354417413239  1.0000
  C   C33       1.0  0.5979416854629419  0.017152307328395  0.6032483160312341  1.0000
  C   C34       1.0  0.7257107332891621  0.513190369212211  0.39195600887892823  1.0000
  C   C35       1.0  0.5428029618620087  0.05078305778796019  0.5172133267900991  1.0000
  C   C36       1.0  0.6236478263271863  0.0495415601943563  0.5474765419991742  1.0000
  C   C37       1.0  0.5802467628038812  0.2063805017276934  0.5719557687677155  1.0000
  C   C38       1.0  0.6033430221062657  0.9517726855522921  0.6117352206272458  1.0000
  C   C39       1.0  0.38735683828309664  0.540556265162749  0.22694718991237298  1.0000
  C   C40       1.0  0.33586568569541  0.41356022417382116  0.6257285667987917  1.0000
  C   C41       1.0  0.32243677944993004  0.46958027316340883  0.15754754479259261  1.0000
  C   C42       1.0  0.3022515441479142  0.46863800780303677  0.086635328887347  1.0000
  C   C43       1.0  0.34588642545948284  0.540064947717596  0.082795826543034  1.0000
  C   C44       1.0  0.4047749011172428  0.613085264739098  0.1521066024209859  1.0000
  C   C45       1.0  0.47995362874375036  0.5970966426924277  0.3728098346432135  1.0000
  C   C46       1.0  0.4255082193488562  0.613256522379288  0.2229848509133563  1.0000
  C   C47       1.0  0.3522704650821638  0.5511359425764298  0.887442604805692  1.0000
  C   C48       1.0  0.36649156809409084  0.547911934728674  0.8246257029177572  1.0000
  C   C49       1.0  0.30680681964211226  0.47798489116092907  0.8878545470337331  1.0000
  C   C50       1.0  0.3375006760195021  0.47251782380295987  0.760395375976856  1.0000
  C   C51       1.0  0.2874772107106125  0.39996033551232557  0.7590793570096325  1.0000
  C   C52       1.0  0.7245954045242086  0.5786727588285243  0.4429383292772899  1.0000
  C   C53       1.0  0.27207913646500254  0.4027438554270971  0.8217862692514972  1.0000
  C   C54       1.0  0.8069678473208413  0.6523623665219701  0.7802331016231109  1.0000
  C   C55       1.0  0.8090567215886111  0.6808067781887887  0.8537306764067483  1.0000
  C   C56       1.0  0.29440047897377036  0.45580813406537146  0.41716063910077866  1.0000
  C   C57       1.0  0.8825562033236453  0.7354093703181733  0.9202396860664099  1.0000
  C   C58       1.0  0.9565559713149767  0.7634291032476596  0.9158022529881652  1.0000
  C   C59       1.0  0.956646954528978  0.7300114286477991  0.8434656762167169  1.0000
  C   C60       1.0  0.8816508961973144  0.6749131719969911  0.7774568975285522  1.0000
  C   C61       1.0  0.1199387480471542  0.995269738093597  0.07876708164886989  1.0000
  C   C62       1.0  0.17520717029402277  0.07633920309184819  0.13445040960196764  1.0000
  C   C63       1.0  0.09581814753459386  0.9335318935688404  0.10045026962743729  1.0000
  C   C64       1.0  0.5689858918694455  0.3446335948624508  0.4928303481587976  1.0000
  C   C65       1.0  0.20866778894949078  0.09796091631022817  0.21356631905564433  1.0000
  C   C66       1.0  0.18449220226220583  0.03552740092713691  0.23442336640439987  1.0000
  C   C67       1.0  0.5758306352247117  0.7754881917641183  0.6469403496779905  1.0000
  C   C68       1.0  0.12841854542470807  0.9535479824527967  0.17979907758591923  1.0000
  C   C69       1.0  0.6520377311883224  0.5887469592156406  0.7032654826809267  1.0000
  C   C70       1.0  0.7306007225377584  0.6115331507656875  0.7097789646965682  1.0000
  C   C71       1.0  0.376609139613862  0.22499506909120728  0.22171769391783874  1.0000
  C   C72       1.0  0.4160314698369731  0.17352838232958587  0.2294228446521772  1.0000
  C   C73       1.0  0.2050419546592082  0.20568707088110463  0.36944896093486085  1.0000
  C   C74       1.0  0.1275218485636529  0.20045882407941207  0.31939929682078383  1.0000
  C   C75       1.0  0.3666302211325458  0.6537933908627024  0.5813898909159647  1.0000
  C   C76       1.0  0.36831839096527125  0.7206236936174477  0.559671139098079  1.0000
  C   C77       1.0  0.4560006247584809  0.3160362495829006  0.606490672334836  1.0000
  C   C78       1.0  0.33989931780848076  0.23740086002253946  0.2755963137086682  1.0000
  C   C79       1.0  0.3753174587723365  0.23333049646260656  0.5554320423183585  1.0000
  C   C80       1.0  0.9018085827346025  0.388228728610393  0.41167133607400086  1.0000
  C   C81       1.0  0.9423968652579758  0.3394482405722669  0.4259999961886508  1.0000
  C   C82       1.0  0.6570010229462824  0.014890105963274903  0.4978730182619133  1.0000
  C   C83       1.0  0.676418996839807  0.0582712004716726  0.4504617785786281  1.0000
  C   C84       1.0  0.03667223456990608  0.755792870411028  0.8403098210384244  1.0000
  C   C85       1.0  0.03401465659155892  0.75067179063857  0.7634593151613134  1.0000
  C   C86       1.0  0.10464335560124753  0.8863427296813953  0.2020726483706527  1.0000
  C   C87       1.0  0.13090214627158764  0.9144471810151841  0.28832783093703546  1.0000
  C   C88       1.0  0.6215574818151594  0.3340328148715129  0.45618836744007757  1.0000
  C   C89       1.0  0.2687959368414781  0.22761791442925267  0.3425982402697161  1.0000
  C   C90       1.0  0.7130366365874536  0.39352099972261806  0.5113202346362942  1.0000
  N   N1        1.0  0.6433963159276105  0.5783375502488752  0.5907365871629368  1.0000
  N   N2        1.0  0.29954486826866855  0.47421799980073587  0.9531998157765147  1.0000
  N   N3        1.0  0.029125322442737932  0.8324829452689072  0.9776266809267684  1.0000
  N   N4        1.0  0.4885126378784221  0.3840506269647506  0.526149060165338  1.0000
  N   N5        1.0  0.033787871967369786  0.8527968264358989  0.045014155160920825  1.0000
  N   N6        1.0  0.44554401000803523  0.5211453128474731  0.6495308931195114  1.0000
  N   N7        1.0  0.6021109108398903  0.47010200372299227  0.38912342848417597  1.0000
  N   N8        1.0  0.38397349821980953  0.442528586457314  0.5946760971486926  1.0000
  N   N9        1.0  0.6509160806300613  0.5524709604396847  0.44068860815540517  1.0000
  N   N10       1.0  0.5320643663380692  0.3877959830498412  0.4847186410300993  1.0000
  N   N11       1.0  0.6011431851188788  0.5699858965127403  0.6321609422990095  1.0000
  N   N12       1.0  0.37079508290205604  0.4778013183949951  0.4633483027045531  1.0000
  N   N13       1.0  0.5018136669369967  0.5632395011138841  0.41609935111971935  1.0000
  N   N14       1.0  0.5816861898319772  0.708124536866798  0.6241951792451065  1.0000
  N   N15       1.0  0.38058145902549256  0.30826358894739764  0.3421682936570606  1.0000
  N   N16       1.0  0.33666434281860086  0.3027320542850943  0.3830907483485009  1.0000
  N   N17       1.0  0.6177232423893669  0.7103081303254726  0.5760558797938204  1.0000
  N   N18       1.0  0.45722856824857433  0.480610105942489  0.37132243794653175  1.0000
  N   N19       1.0  0.4059755794065508  0.5538501351098118  0.5240111605484403  1.0000
  N   N20       1.0  0.34158952983812446  0.543388897036941  0.0143902658250426  1.0000
