data_image0
_chemical_formula_structural       Ba2H18C16N6O10
_chemical_formula_sum              "Ba2 H18 C16 N6 O10"
_cell_length_a       7.036150475229511
_cell_length_b       9.739126858405331
_cell_length_c       9.739075285075726
_cell_angle_alpha    113.81772789619976
_cell_angle_beta     103.42400884700875
_cell_angle_gamma    103.42509224775361

_space_group_name_H-M_alt    "P 1"
_space_group_IT_number       1

loop_
  _space_group_symop_operation_xyz
  'x, y, z'

loop_
  _atom_site_type_symbol
  _atom_site_label
  _atom_site_symmetry_multiplicity
  _atom_site_fract_x
  _atom_site_fract_y
  _atom_site_fract_z
  _atom_site_occupancy
  Ba  Ba1       1.0  0.39222425926951837  0.5260299451348942  0.37123427826049504  1.0000
  Ba  Ba2       1.0  0.8922198009769247  0.37122858203333925  0.5260337835475826  1.0000
  H   H1        1.0  0.8226970236973659  0.4815581405302538  0.8915880578961296  1.0000
  H   H2        1.0  0.3226904466087177  0.8915895432497364  0.4815570251575069  1.0000
  H   H3        1.0  0.8559929028182084  0.5097798434323338  0.16575647979767907  1.0000
  H   H4        1.0  0.35598469856709875  0.1657575104584552  0.509776837294176  1.0000
  H   H5        1.0  0.8977465169766392  0.23314345276129697  0.016381451569408602  1.0000
  H   H6        1.0  0.3977502016081971  0.0163847776799884  0.23314306943461105  1.0000
  H   H7        1.0  0.8585172875981754  0.9936378747503624  0.2176651157510465  1.0000
  H   H8        1.0  0.35852073773595833  0.21766888280651392  0.9936394989040455  1.0000
  H   H9        1.0  0.8527794532917242  0.8272852547465419  0.044709280075004194  1.0000
  H   H10       1.0  0.35278038839280873  0.0447122046139796  0.8272840461541906  1.0000
  H   H11       1.0  0.6133123438661271  0.8472232546622818  0.06010130243097924  1.0000
  H   H12       1.0  0.11331475996403383  0.060103778487061305  0.8472273662391105  1.0000
  H   H13       1.0  0.6894921501293112  0.023396670221274007  0.7931213007018487  1.0000
  H   H14       1.0  0.1894889717881085  0.7931217168381863  0.023393613680262732  1.0000
  H   H15       1.0  0.5216829930396898  0.8568775854335229  0.7960123653084213  1.0000
  H   H16       1.0  0.02168348645007967  0.7960137151239692  0.8568761585275059  1.0000
  H   H17       1.0  0.7629284292883797  0.8548850001850141  0.771283150553494  1.0000
  H   H18       1.0  0.262929901239751  0.7712875476767564  0.8548822550897203  1.0000
  C   C1        1.0  0.18576403138710865  0.483789985946224  0.9657252570476591  1.0000
  C   C2        1.0  0.6857591321593689  0.9657214603503875  0.48378950124851644  1.0000
  C   C3        1.0  0.4053340565366811  0.4972001576003536  0.9734659431735441  1.0000
  C   C4        1.0  0.9053248261739524  0.9734590919648338  0.49719389100210515  1.0000
  C   C5        1.0  0.7157332770090435  0.5032055513792102  0.08396391548193097  1.0000
  C   C6        1.0  0.21572167438518622  0.08395863645058911  0.503192536658837  1.0000
  C   C7        1.0  0.5092785819403076  0.48852094872359697  0.8649059622838141  1.0000
  C   C8        1.0  0.009269793090908137  0.864902835597327  0.48851708066898425  1.0000
  C   C9        1.0  0.46403816468401965  0.48388631614841415  0.7059097877055154  1.0000
  C   C10       1.0  0.9640416096513816  0.7059085734808548  0.48388871973727304  1.0000
  C   C11       1.0  0.8988880867990972  0.1725739145530554  0.0911064962204762  1.0000
  C   C12       1.0  0.39889071560582323  0.09110986840013878  0.1725739342976383  1.0000
  C   C13       1.0  0.7777544869058842  0.9150351014337801  0.08747084618730142  1.0000
  C   C14       1.0  0.2777556160889462  0.0874724792921953  0.9150344379519172  1.0000
  C   C15       1.0  0.6857306467871  0.9329575129829523  0.8331434685371948  1.0000
  C   C16       1.0  0.18573005499108314  0.8331463137571119  0.9329553255100439  1.0000
  N   N1        1.0  0.53879708078194  0.506950245875707  0.10914237139008522  1.0000
  N   N2        1.0  0.038784040512709304  0.109134363560635  0.5069383099923004  1.0000
  N   N3        1.0  0.7035344539563156  0.49056680126322044  0.9385336663558947  1.0000
  N   N4        1.0  0.20352756885869636  0.9385284516312423  0.4905576503804101  1.0000
  N   N5        1.0  0.7888201977966816  0.0133200334028913  0.0077960669082486  1.0000
  N   N6        1.0  0.28882427890570034  0.0077998467061136  0.013323533666280713  1.0000
  O   O1        1.0  0.1445114033654421  0.48500056387487717  0.08637486522304286  1.0000
  O   O2        1.0  0.6445033200222597  0.08636242826806749  0.4849949066371055  1.0000
  O   O3        1.0  0.05084228689102593  0.47019870182398904  0.8431152120510891  1.0000
  O   O4        1.0  0.5508379727412702  0.8431119136090361  0.47021035063327354  1.0000
  O   O5        1.0  0.3139273806011714  0.5231630775940204  0.6528760276540527  1.0000
  O   O6        1.0  0.8139259925009625  0.6528736978768351  0.5231655419591662  1.0000
  O   O7        1.0  0.5851214199331735  0.44379634620921843  0.6312556474283755  1.0000
  O   O8        1.0  0.08512168998304043  0.631262369551493  0.4438032329006705  1.0000
  O   O9        1.0  0.9993112910145997  0.25099027946436797  0.24041597751139684  1.0000
  O   O10       1.0  0.49931332950919927  0.24041987506384993  0.25099202216951977  1.0000
