data_image0
_chemical_formula_structural       Ag4H32C40N12O12
_chemical_formula_sum              "Ag4 H32 C40 N12 O12"
_cell_length_a       6.901118906017419
_cell_length_b       8.665111909238977
_cell_length_c       17.683285314273828
_cell_angle_alpha    100.35895765439527
_cell_angle_beta     90.00021061897785
_cell_angle_gamma    90.00010955184659

_space_group_name_H-M_alt    "P 1"
_space_group_IT_number       1

loop_
  _space_group_symop_operation_xyz
  'x, y, z'

loop_
  _atom_site_type_symbol
  _atom_site_label
  _atom_site_symmetry_multiplicity
  _atom_site_fract_x
  _atom_site_fract_y
  _atom_site_fract_z
  _atom_site_occupancy
  Ag  Ag1       1.0  0.03216287672573509  0.8730419989023944  0.6917691501321601  1.0000
  Ag  Ag2       1.0  0.5321690085890083  0.6269577462537014  0.8082310422238596  1.0000
  Ag  Ag3       1.0  0.9678359721504959  0.126956927871781  0.30822983517993663  1.0000
  Ag  Ag4       1.0  0.467832738386292  0.37304587179181686  0.19177061916219176  1.0000
  H   H1        1.0  0.25173032347723984  0.3393769037963069  0.5533284278698221  1.0000
  H   H2        1.0  0.7517349493684975  0.16061967424849402  0.9466709152385354  1.0000
  H   H3        1.0  0.7482627292301842  0.6606208505128707  0.4466693229455104  1.0000
  H   H4        1.0  0.24826824663077926  0.8393804257055495  0.05332817362078405  1.0000
  H   H5        1.0  0.13961735896010202  0.56262370967211  0.6528587703528788  1.0000
  H   H6        1.0  0.6396231549546911  0.9373727447615182  0.8471390227947713  1.0000
  H   H7        1.0  0.8603800408700407  0.4373716975747259  0.3471399043269089  1.0000
  H   H8        1.0  0.3603785919991864  0.06263087614959062  0.15285811479776615  1.0000
  H   H9        1.0  0.9719770761566336  0.5066815365780856  0.7704653538082911  1.0000
  H   H10       1.0  0.47197738668992173  0.9933167939313559  0.7295336444358328  1.0000
  H   H11       1.0  0.028024670798124904  0.493312696781686  0.22953434827967106  1.0000
  H   H12       1.0  0.5280200131584251  0.0066915186016274  0.27046560375062273  1.0000
  H   H13       1.0  0.9319876380338812  0.22399051411297682  0.7849173750798005  1.0000
  H   H14       1.0  0.43198439233575675  0.27600996415270634  0.7150837003496024  1.0000
  H   H15       1.0  0.0680155579631645  0.7760048924236004  0.2150824305530393  1.0000
  H   H16       1.0  0.5680115584848053  0.7239995201212183  0.28491791327616073  1.0000
  H   H17       1.0  0.23715087561457437  0.14852731669731872  0.46387999339655306  1.0000
  H   H18       1.0  0.7371491723297936  0.35146678154274724  0.03612106047750533  1.0000
  H   H19       1.0  0.7628450751827813  0.851472783249058  0.5361190954569254  1.0000
  H   H20       1.0  0.262845329431407  0.6485309709769709  0.9638795177099415  1.0000
  H   H21       1.0  0.3424154498693285  0.9119014517061929  0.3728619054831556  1.0000
  H   H22       1.0  0.8424139769827333  0.588090634387214  0.12714113480845413  1.0000
  H   H23       1.0  0.6575848480465043  0.08809864860298691  0.6271366178996374  1.0000
  H   H24       1.0  0.15758487190922207  0.4119047699955658  0.8728620636660127  1.0000
  H   H25       1.0  0.37235398789954394  0.6539274779115588  0.4201639985760438  1.0000
  H   H26       1.0  0.8723526857746859  0.8460670168071402  0.07984099351536865  1.0000
  H   H27       1.0  0.6276506571320866  0.34607262311861586  0.5798333938618755  1.0000
  H   H28       1.0  0.1276490612125443  0.15393073249644834  0.9201646739456212  1.0000
  H   H29       1.0  0.2900592773147039  0.6488417940012567  0.5565878432159581  1.0000
  H   H30       1.0  0.790054186127861  0.8511584936212769  0.9434178543753338  1.0000
  H   H31       1.0  0.7099497148388636  0.35115713350005257  0.4434100111559405  1.0000
  H   H32       1.0  0.20994611182769057  0.14884629509058564  0.05658786887258322  1.0000
  C   C1        1.0  0.1472792329248307  0.16302685113311816  0.6164731679284189  1.0000
  C   C2        1.0  0.6472807856315868  0.3369706779932998  0.8835278066682906  1.0000
  C   C3        1.0  0.8527181669053121  0.8369685561137176  0.3835255067513686  1.0000
  C   C4        1.0  0.3527180632556862  0.6630317675902831  0.11647262022333399  1.0000
  C   C5        1.0  0.1782772339925103  0.3170151364647111  0.6047447083059795  1.0000
  C   C6        1.0  0.6782814264932995  0.18298245897186405  0.8952551853430254  1.0000
  C   C7        1.0  0.8217201658387552  0.6829826174908648  0.3952536079870514  1.0000
  C   C8        1.0  0.32172032046749177  0.8170188141559153  0.10474400705884085  1.0000
  C   C9        1.0  0.1158718246352706  0.4418971762083644  0.6603053459640906  1.0000
  C   C10       1.0  0.6158795384047692  0.058101460717175306  0.8396939850998423  1.0000
  C   C11       1.0  0.8841255751986734  0.5581005773890056  0.3396935358031288  1.0000
  C   C12       1.0  0.3841251066379101  0.9419021591224065  0.16030484891760477  1.0000
  C   C13       1.0  0.0243362198460346  0.4114366147242237  0.7263704806701485  1.0000
  C   C14       1.0  0.524337584726986  0.0885606549741667  0.7736291646758461  1.0000
  C   C15       1.0  0.9756640780721427  0.5885599649845545  0.2736294285040729  1.0000
  C   C16       1.0  0.4756598151137652  0.9114429648577487  0.22636966933575323  1.0000
  C   C17       1.0  0.0006268711894677  0.2554046495199813  0.7342399563344987  1.0000
  C   C18       1.0  0.5006270867693985  0.24459374318409743  0.7657597543120505  1.0000
  C   C19       1.0  0.9993748757690925  0.7445919301903247  0.2657599528408881  1.0000
  C   C20       1.0  0.49937176211363976  0.7554110498246231  0.23423918324443357  1.0000
  C   C21       1.0  0.20983531944756353  0.024376529046371304  0.5595356157430944  1.0000
  C   C22       1.0  0.7098348459970936  0.4756211320867649  0.9404660252266486  1.0000
  C   C23       1.0  0.7901606313440938  0.9756200513742008  0.4404631624792403  1.0000
  C   C24       1.0  0.2901625538551471  0.5243813127788924  0.059535532612180524  1.0000
  C   C25       1.0  0.25282655363235307  0.0370101000794847  0.4834902381383658  1.0000
  C   C26       1.0  0.7528263811380357  0.46298520414859473  0.01651151003907362  1.0000
  C   C27       1.0  0.7471693971604267  0.9629888270498271  0.516508181697205  1.0000
  C   C28       1.0  0.2471710187077392  0.5370148947247203  0.9834892752381426  1.0000
  C   C29       1.0  0.31119180001228836  0.9039337770618588  0.43238785682190456  1.0000
  C   C30       1.0  0.8111926804681813  0.5960594161408678  0.06761523665281291  1.0000
  C   C31       1.0  0.6888070488585782  0.09606515042871422  0.5676099975418156  1.0000
  C   C32       1.0  0.1888061684229925  0.40393716177537436  0.932387499891178  1.0000
  C   C33       1.0  0.3263907343384176  0.7612984785484472  0.4578925674825031  1.0000
  C   C34       1.0  0.8263888172751378  0.738697092804216  0.04211132306685532  1.0000
  C   C35       1.0  0.6736110126132216  0.23870044894519543  0.5421052868835619  1.0000
  C   C36       1.0  0.1736100316232907  0.26130065757090654  0.9578926479692316  1.0000
  C   C37       1.0  0.27952043129694454  0.7578699886749902  0.5341944848133766  1.0000
  C   C38       1.0  0.7795181887721794  0.7421279306582919  0.965810423219857  1.0000
  C   C39       1.0  0.7204827646977563  0.24212893846198114  0.4658039350280348  1.0000
  C   C40       1.0  0.2204821091742204  0.2578745124194342  0.03419396199225841  1.0000
  N   N1        1.0  0.6918684644654719  0.6430581603244293  0.6491661456442304  1.0000
  N   N2        1.0  0.1918739439910269  0.8569501364235352  0.8508327672192667  1.0000
  N   N3        1.0  0.30813183345605205  0.35694545951054835  0.3508326883697067  1.0000
  N   N4        1.0  0.8081292520174017  0.14305230916465214  0.14916765967586096  1.0000
  N   N5        1.0  0.0596313982279852  0.1346733028583742  0.6808937267876659  1.0000
  N   N6        1.0  0.5596324087327603  0.365325213982196  0.819107209979855  1.0000
  N   N7        1.0  0.9403660016021576  0.8653221043884685  0.3191049478921216  1.0000
  N   N8        1.0  0.440366440162883  0.6346807507689932  0.1808940930170949  1.0000
  N   N9        1.0  0.2216794750185684  0.8853579275278278  0.5839992418217792  1.0000
  N   N10       1.0  0.7216764549070335  0.6146410436645339  0.9160039800368199  1.0000
  N   N11       1.0  0.7783222719319551  0.11463865325707448  0.4159989709310425  1.0000
  N   N12       1.0  0.2783238430359063  0.38536257330486023  0.08399937777063124  1.0000
  O   O1        1.0  0.7616227660237695  0.7301699911576874  0.7106082196315315  1.0000
  O   O2        1.0  0.2616231074639472  0.7698278928147246  0.7893927012162439  1.0000
  O   O3        1.0  0.2383804299797418  0.269827761371225  0.2893923585629282  1.0000
  O   O4        1.0  0.7383786394949466  0.23017220713779102  0.21060638764191006  1.0000
  O   O5        1.0  0.54149278834889  0.5637599653097212  0.6563529424676205  1.0000
  O   O6        1.0  0.041489695753341486  0.9362374546607269  0.8436447959455509  1.0000
  O   O7        1.0  0.458513305725468  0.4362366151215866  0.3436458357628923  1.0000
  O   O8        1.0  0.9585120512101284  0.06376381810885329  0.15635496193050366  1.0000
  O   O9        1.0  0.774191040675973  0.6385509922113854  0.5856624809156943  1.0000
  O   O10       1.0  0.2742043777612153  0.8614715579151452  0.9143361108391804  1.0000
  O   O11       1.0  0.22580925725883813  0.3614608398504729  0.41433707790424296  1.0000
  O   O12       1.0  0.7258046144064209  0.13853440827957544  0.08566293026920142  1.0000
