data_image0
_chemical_formula_structural       Zn8H28C88N32F40
_chemical_formula_sum              "Zn8 H28 C88 N32 F40"
_cell_length_a       14.78922230226305
_cell_length_b       14.933383293378082
_cell_length_c       22.878932678349837
_cell_angle_alpha    89.27024891980442
_cell_angle_beta     89.50504304705593
_cell_angle_gamma    80.50677314324709

_space_group_name_H-M_alt    "P 1"
_space_group_IT_number       1

loop_
  _space_group_symop_operation_xyz
  'x, y, z'

loop_
  _atom_site_type_symbol
  _atom_site_label
  _atom_site_symmetry_multiplicity
  _atom_site_fract_x
  _atom_site_fract_y
  _atom_site_fract_z
  _atom_site_occupancy
  Zn  Zn1       1.0  0.06552484474821799  0.07167790080274022  0.5729988531710006  1.0000
  Zn  Zn2       1.0  0.9336976565808398  0.9057990050883546  0.5764525941556117  1.0000
  Zn  Zn3       1.0  0.5823734041346923  0.567554215273617  0.0704715295790805  1.0000
  Zn  Zn4       1.0  0.4369658419296626  0.41501138901412554  0.07140555100239962  1.0000
  Zn  Zn5       1.0  0.9298768455982651  0.9112673367384118  0.4331356201912798  1.0000
  Zn  Zn6       1.0  0.07101203490524449  0.0628862186983028  0.42999559379819635  1.0000
  Zn  Zn7       1.0  0.43460992785927033  0.42420021710665873  0.9283941581878782  1.0000
  Zn  Zn8       1.0  0.5892715409864803  0.5644977289674671  0.926693808216399  1.0000
  H   H1        1.0  0.0342063097100578  0.1416074328190646  0.2943514576840158  1.0000
  H   H2        1.0  0.8775605292672067  0.1796125645416708  0.7874159465740932  1.0000
  H   H3        1.0  0.7518088737488426  0.16011888095817287  0.1251501408371283  1.0000
  H   H4        1.0  0.4038411816183682  0.6802018181718239  0.28866881409509665  1.0000
  H   H5        1.0  0.5703944136441164  0.1027738597837029  0.5472797251022997  1.0000
  H   H6        1.0  0.420044493389149  0.1873743725260866  0.5449275946866126  1.0000
  H   H7        1.0  0.087709788449466  0.6354859900506324  0.046818568388346214  1.0000
  H   H8        1.0  0.9363272664536313  0.6862722643779122  0.04607917717258659  1.0000
  H   H9        1.0  0.7381056318501676  0.040734762008113996  0.6000945839741192  1.0000
  H   H10       1.0  0.25059923621000013  0.16829350292608322  0.5937838167203965  1.0000
  H   H11       1.0  0.2539385735213031  0.5647543032740643  0.09680663132181881  1.0000
  H   H12       1.0  0.07745456609840325  0.7261304711298776  0.41986936775621336  1.0000
  H   H13       1.0  0.77116415335864  0.6560543030498068  0.09369270446001825  1.0000
  H   H14       1.0  0.7511813549191615  0.0644401546969604  0.4111190044383691  1.0000
  H   H15       1.0  0.26606666010754754  0.13337819827285813  0.40618323281028523  1.0000
  H   H16       1.0  0.26127826841963037  0.5856077575682977  0.9075663085367226  1.0000
  H   H17       1.0  0.7828154196076368  0.6432604001528617  0.9047070215473882  1.0000
  H   H18       1.0  0.9008970876627203  0.23555083684369296  0.5946409525886837  1.0000
  H   H19       1.0  0.8840500284819511  0.6961585341863525  0.5996340207950368  1.0000
  H   H20       1.0  0.4295532841159471  0.743535231327577  0.091891189145052  1.0000
  H   H21       1.0  0.38567370493539943  0.20762431431865744  0.0923879097453053  1.0000
  H   H22       1.0  0.5547438079026749  0.6494281330176366  0.7917781263198762  1.0000
  H   H23       1.0  0.5708748761369336  0.23222909843980946  0.9210096802191858  1.0000
  H   H24       1.0  0.7788604277697216  0.43246655080986324  0.4178017045551172  1.0000
  H   H25       1.0  0.9321671696227085  0.5263522557363133  0.4115671102171703  1.0000
  H   H26       1.0  0.2875347731319806  0.9339132042337469  0.9207494625707612  1.0000
  H   H27       1.0  0.43173038523031687  0.0363963036286208  0.9003878714019468  1.0000
  H   H28       1.0  0.2696383735406868  0.67179599273981  0.6204580960723761  1.0000
  C   C1        1.0  0.9739105066435129  0.0975142310278159  0.6958013077903473  1.0000
  C   C2        1.0  0.29842386949783156  0.1618591332502959  0.4997557581481403  1.0000
  C   C3        1.0  0.21791604257682445  0.599619012961334  0.0024960246230066  1.0000
  C   C4        1.0  0.8157973888786287  0.6632741649334475  0.9993874693320848  1.0000
  C   C5        1.0  0.8916252808045185  0.2812225586240231  0.500547557319969  1.0000
  C   C6        1.0  0.8687303067606106  0.6620052328720476  0.505108971520663  1.0000
  C   C7        1.0  0.4191748087242431  0.788633805289962  0.9975924209153959  1.0000
  C   C8        1.0  0.3773498243653961  0.17238185049335195  0.9975244538712574  1.0000
  C   C9        1.0  0.8181811916770129  0.4503888563260786  0.45479282752887684  1.0000
  C   C10       1.0  0.9027298173701509  0.5016115664174664  0.4513186321571112  1.0000
  C   C11       1.0  0.3321133618788962  0.9548294117689624  0.9539470757784089  1.0000
  C   C12       1.0  0.12726335652529744  0.7961592330359791  0.5812432114545488  1.0000
  C   C13       1.0  0.4115710798583051  0.011153531556395499  0.9427016769874471  1.0000
  C   C14       1.0  0.7777742043426626  0.5130729679050745  0.5062382519049322  1.0000
  C   C15       1.0  0.9542421861338254  0.434175354358267  0.49686057715589993  1.0000
  C   C16       1.0  0.29868394399187537  0.0167126529090496  0.007147244216909601  1.0000
  C   C17       1.0  0.474719537347866  0.9463826761838663  0.9845991406487545  1.0000
  C   C18       1.0  0.8625630044077183  0.565546637173604  0.5032126492213891  1.0000
  C   C19       1.0  0.8701444992057574  0.3803990742931163  0.5006258917519233  1.0000
  C   C20       1.0  0.3781933400587221  0.0744088212913638  0.9961985114428487  1.0000
  C   C21       1.0  0.39587399151031377  0.8877628531106369  0.9963873704495754  1.0000
  C   C22       1.0  0.913752473075263  0.49528873195681206  0.548892936581531  1.0000
  C   C23       1.0  0.4925783775675113  0.5967671022576583  0.1944178665527332  1.0000
  C   C24       1.0  0.8293384257533063  0.44343473269986333  0.5521431753149957  1.0000
  C   C25       1.0  0.44144695626242475  0.007017670662662592  0.0384604212651993  1.0000
  C   C26       1.0  0.3621135858805005  0.9503627008419925  0.0495105515747554  1.0000
  C   C27       1.0  0.36594059193117096  0.7508014385188063  0.6436885131214325  1.0000
  C   C28       1.0  0.8096726868878646  0.080639512542831  0.8224571243264196  1.0000
  C   C29       1.0  0.8626436254103709  0.2251161297969304  0.14047466546055895  1.0000
  C   C30       1.0  0.32199606703328953  0.5883152861374086  0.3184868833656367  1.0000
  C   C31       1.0  0.28754330787004523  0.7394917170554366  0.6169269889459984  1.0000
  C   C32       1.0  0.8659874869134183  0.10998141196644438  0.7823240519352197  1.0000
  C   C33       1.0  0.7789799287830305  0.22277545782598196  0.11774991249501451  1.0000
  C   C34       1.0  0.623589988550087  0.2914083322737469  0.07976685634504581  1.0000
  C   C35       1.0  0.38455399030652887  0.6141205789988575  0.28106094557860223  1.0000
  C   C36       1.0  0.9116174427233118  0.1628045320385851  0.1827128907451581  1.0000
  C   C37       1.0  0.2680886855824697  0.6429746284891918  0.3622947560195442  1.0000
  C   C38       1.0  0.41861605154733883  0.6895697207230498  0.6848865233894373  1.0000
  C   C39       1.0  0.7570590006968274  0.1362347780535274  0.8662866866585475  1.0000
  C   C40       1.0  0.8929303985931013  0.996760925636906  0.3088309376113116  1.0000
  C   C41       1.0  0.20592769602085778  0.8841772783817206  0.4197217859587283  1.0000
  C   C42       1.0  0.4031512368672309  0.5151136489456221  0.806425855018496  1.0000
  C   C43       1.0  0.7126964389381242  0.3780646571465738  0.9228173233825389  1.0000
  C   C44       1.0  0.8775989193606576  0.1060187505486212  0.22089374613621263  1.0000
  C   C45       1.0  0.9206273235343473  0.0642480924764541  0.2726341228832041  1.0000
  C   C46       1.0  0.27332683735140506  0.7284470905271904  0.3802705232892905  1.0000
  C   C47       1.0  0.38834406307688585  0.6277875357126631  0.7210613296333508  1.0000
  C   C48       1.0  0.771072105648983  0.2170455737297416  0.8880598661029994  1.0000
  C   C49       1.0  0.5538418242714015  0.14169501152562702  0.4601785928912321  1.0000
  C   C50       1.0  0.45431622975633695  0.1591578397605531  0.4578209592962494  1.0000
  C   C51       1.0  0.06731520569624645  0.6661186119173051  0.9586155015755936  1.0000
  C   C52       1.0  0.9677357161586144  0.6793246850957502  0.9571420039668936  1.0000
  C   C53       1.0  0.6068110649563606  0.11000707326037679  0.5062958696886924  1.0000
  C   C54       1.0  0.39311057311397235  0.1738025922936686  0.5023113474429124  1.0000
  C   C55       1.0  0.12215958138095563  0.6387884913660643  0.004718493763476801  1.0000
  C   C56       1.0  0.20357463928955602  0.7919256601225587  0.4085789681996986  1.0000
  C   C57       1.0  0.90842322573598  0.6807949827072122  0.0025670096834745  1.0000
  C   C58       1.0  0.7564443518951832  0.03844049840198238  0.5539741950171122  1.0000
  C   C59       1.0  0.2390636342376169  0.1571846948137434  0.5478074939997698  1.0000
  C   C60       1.0  0.27053373964709243  0.5608844742825809  0.0504479533110569  1.0000
  C   C61       1.0  0.7591531918718245  0.6491899939592471  0.047316238875986  1.0000
  C   C62       1.0  0.9262117021736102  0.2267757103392114  0.45342368259303373  1.0000
  C   C63       1.0  0.875055347885791  0.7221213353727762  0.4584523029172942  1.0000
  C   C64       1.0  0.4499897902476632  0.7326996882496811  0.9504371899578246  1.0000
  C   C65       1.0  0.38099614708950463  0.23390417157369825  0.9512493164632971  1.0000
  C   C66       1.0  0.7631708158711986  0.05109105188704179  0.45734878596968553  1.0000
  C   C67       1.0  0.4333574162240694  0.5821819000104824  0.7710321510316831  1.0000
  C   C68       1.0  0.24739480507455613  0.1386976687917851  0.45205441159053816  1.0000
  C   C69       1.0  0.2743184563280891  0.5719580127052385  0.953658501891063  1.0000
  C   C70       1.0  0.7653974443959938  0.6422466317174127  0.9507909671606712  1.0000
  C   C71       1.0  0.9135919554731586  0.222125466210521  0.5484838033142908  1.0000
  C   C72       1.0  0.8813251321186969  0.7153240509053517  0.5536811817531202  1.0000
  C   C73       1.0  0.4405488930999154  0.7295453374125458  0.0456678795925782  1.0000
  C   C74       1.0  0.38365598863901335  0.22700261275161893  0.046461806255258906  1.0000
  C   C75       1.0  0.9929791512986411  0.08986579742143161  0.3048826062914785  1.0000
  C   C76       1.0  0.11128019531862778  0.7851128897771389  0.42169689483563394  1.0000
  C   C77       1.0  0.5101271188605949  0.600619629092833  0.8021559583548098  1.0000
  C   C78       1.0  0.7039753129943235  0.28678497752913057  0.91327538025962  1.0000
  C   C79       1.0  0.6092728420648541  0.28791909387511794  0.9229628614249137  1.0000
  C   C80       1.0  0.8963272257527137  0.9874904388740331  0.6997593421774724  1.0000
  C   C81       1.0  0.2102375397341376  0.9023106450503989  0.5811597420929999  1.0000
  C   C82       1.0  0.4034112514785662  0.49632340535636393  0.19543111428490795  1.0000
  C   C83       1.0  0.7155540232576666  0.389596411111441  0.08163435288347641  1.0000
  C   C84       1.0  0.9093382054604432  0.0640946602822794  0.7321475450223291  1.0000
  C   C85       1.0  0.21828140478893224  0.8081003077216096  0.591920632267204  1.0000
  C   C86       1.0  0.4240797501988778  0.5680578796678334  0.22983362743545405  1.0000
  C   C87       1.0  0.7159738791475901  0.2960966063386223  0.09192595134486943  1.0000
  C   C88       1.0  0.7036310020123436  0.0743987760173965  0.5053953540921087  1.0000
  N   N1        1.0  0.9972700227339643  0.04797327167513288  0.6485977708876335  1.0000
  N   N2        1.0  0.16048215401251303  0.13198492442968046  0.5304407870189465  1.0000
  N   N3        1.0  0.3498759040259714  0.5127811692589788  0.031240099366478105  1.0000
  N   N4        1.0  0.6825446924471308  0.6213004164014748  0.02894136188949401  1.0000
  N   N5        1.0  0.9652544495596799  0.1435426257653774  0.47045818310447635  1.0000
  N   N6        1.0  0.8895577526150263  0.803216543590054  0.4760320381202874  1.0000
  N   N7        1.0  0.48646085048159177  0.648641070844583  0.9674718466516907  1.0000
  N   N8        1.0  0.3887489030373955  0.3168203106345189  0.9693845430294561  1.0000
  N   N9        1.0  0.8429323933967153  0.0035812704526491566  0.4764821853325429  1.0000
  N   N10       1.0  0.16594900712750163  0.12073855572283777  0.4706541220123768  1.0000
  N   N11       1.0  0.3519022604638593  0.5192934234353785  0.971829283223869  1.0000
  N   N12       1.0  0.07169205092478857  0.872965985821395  0.5673555030357775  1.0000
  N   N13       1.0  0.6866165264868657  0.6170834629174563  0.9687885509691726  1.0000
  N   N14       1.0  0.9574936328848834  0.1406051394687609  0.5301544336496634  1.0000
  N   N15       1.0  0.8936594488773721  0.7987444632763571  0.5363640182135897  1.0000
  N   N16       1.0  0.480542097379427  0.6466855056044666  0.027276221923330006  1.0000
  N   N17       1.0  0.3905389140005511  0.31222040426962394  0.029837500615514004  1.0000
  N   N18       1.0  0.005480665563112599  0.04186459662625449  0.35476152278002365  1.0000
  N   N19       1.0  0.06550412523097289  0.8664082505546561  0.4377994308726799  1.0000
  N   N20       1.0  0.52246812195402  0.5492942846784672  0.8508064444832472  1.0000
  N   N21       1.0  0.5680710569072928  0.3723445632757248  0.9358195662905261  1.0000
  N   N22       1.0  0.9468679806562506  0.9771056402421721  0.6510929746065344  1.0000
  N   N23       1.0  0.5110720123487481  0.5490939987294539  0.1458858842936124  1.0000
  N   N24       1.0  0.12498460698635216  0.9406291496357827  0.5670328865334113  1.0000
  N   N25       1.0  0.453415983498445  0.48431844065586205  0.1466360429062732  1.0000
  N   N26       1.0  0.6330313940721908  0.43378950666556176  0.0661563545566324  1.0000
  N   N27       1.0  0.5740054170886425  0.37123154849892603  0.0651937019487647  1.0000
  N   N28       1.0  0.9424906890899011  0.9829697282533019  0.3574237128422482  1.0000
  N   N29       1.0  0.12407798042726634  0.9283819074821478  0.4365595406943683  1.0000
  N   N30       1.0  0.454973958115417  0.4952729309437843  0.8535689631402336  1.0000
  N   N31       1.0  0.6320047559964975  0.4288574203424602  0.9355969873556662  1.0000
  N   N32       1.0  0.8390744319838888  0.9962860873826427  0.5358294476541374  1.0000
  F   F1        1.0  0.011130871108427698  0.1724741844286513  0.7044277891919465  1.0000
  F   F2        1.0  0.7913028092164608  0.9941405001126639  0.8208462052622422  1.0000
  F   F3        1.0  0.9051373369399015  0.2986106503524724  0.13054458226788776  1.0000
  F   F4        1.0  0.2973026643263026  0.5047469916704657  0.31329964851479997  1.0000
  F   F5        1.0  0.0013971407810870898  0.17175829973366064  0.19034808536625292  1.0000
  F   F6        1.0  0.19406396485339888  0.6072714877125235  0.3824095596550806  1.0000
  F   F7        1.0  0.5063953700633376  0.7044025811198791  0.6938140942346608  1.0000
  F   F8        1.0  0.6749770252152203  0.10962019663964641  0.880122430665246  1.0000
  F   F9        1.0  0.788929329428562  0.09328744071962798  0.21373639964248534  1.0000
  F   F10       1.0  0.3491720929235667  0.7637259696668367  0.3630978025974373  1.0000
  F   F11       1.0  0.30107339219979673  0.6113655855382163  0.713129541485799  1.0000
  F   F12       1.0  0.09463772352499686  0.7176891035972518  0.5856732045423101  1.0000
  F   F13       1.0  0.854874580672302  0.24179813029377337  0.8777937865561115  1.0000
  F   F14       1.0  0.5947014044975488  0.14987587039319547  0.4067871738424317  1.0000
  F   F15       1.0  0.42283429303881087  0.1467442885353663  0.4027042535631864  1.0000
  F   F16       1.0  0.10632885556763938  0.6708168644133893  0.904408177483056  1.0000
  F   F17       1.0  0.9349771189636729  0.6763025152180331  0.9014679454863882  1.0000
  F   F18       1.0  0.82589188786325  0.9480364547426204  0.30022458884663916  1.0000
  F   F19       1.0  0.2769731346336926  0.92880382490155  0.41416674079275145  1.0000
  F   F20       1.0  0.33179785879598  0.4717905448068792  0.7984458367024205  1.0000
  F   F21       1.0  0.7882411767950047  0.41636956683313286  0.9192226237313577  1.0000
  F   F22       1.0  0.9249139150300676  0.2508201423029277  0.39643959448586236  1.0000
  F   F23       1.0  0.5375941435029858  0.665980919357722  0.20501170108903471  1.0000
  F   F24       1.0  0.8698436833749951  0.7065019958200622  0.40078040636691276  1.0000
  F   F25       1.0  0.4469376482950623  0.7561576980244878  0.8933486257649009  1.0000
  F   F26       1.0  0.3791250226312925  0.21818490482800004  0.893405074110895  1.0000
  F   F27       1.0  0.8390161820748432  0.9284204726036267  0.7105796319888215  1.0000
  F   F28       1.0  0.27542581972724633  0.9544521784734527  0.5832730805846325  1.0000
  F   F29       1.0  0.3399116198222599  0.4430252194812  0.20445868340900833  1.0000
  F   F30       1.0  0.784829868633075  0.43643331264063795  0.0860385406599491  1.0000
  F   F31       1.0  0.6885842074570262  0.5541222750908972  0.5112040420642928  1.0000
  F   F32       1.0  0.04238791872817419  0.390129637035777  0.49213016244555524  1.0000
  F   F33       1.0  0.2097127513640231  0.053354717253746714  0.018699510825847202  1.0000
  F   F34       1.0  0.5846427549347623  0.2165428644683517  0.0833345875234528  1.0000
  F   F35       1.0  0.5629357221912556  0.9071982071000021  0.9731179358407192  1.0000
  F   F36       1.0  0.9607205816874754  0.519951316341789  0.5955501708290215  1.0000
  F   F37       1.0  0.7915640522436148  0.4141238880971089  0.6021244792286637  1.0000
  F   F38       1.0  0.4950261255831164  0.0353676833423719  0.08037361404749531  1.0000
  F   F39       1.0  0.3365270994469256  0.9195812429631688  0.10268179203244901  1.0000
  F   F40       1.0  0.39709135121834277  0.8320696911762583  0.6397516228223453  1.0000
