data_image0
_chemical_formula_structural       NaH18AuC18S6N6O2
_chemical_formula_sum              "Na1 H18 Au1 C18 S6 N6 O2"
_cell_length_a       8.493099702209687
_cell_length_b       8.72855045808603
_cell_length_c       8.995531081573265
_cell_angle_alpha    107.16347042028328
_cell_angle_beta     94.50974416512054
_cell_angle_gamma    97.80698517250046

_space_group_name_H-M_alt    "P 1"
_space_group_IT_number       1

loop_
  _space_group_symop_operation_xyz
  'x, y, z'

loop_
  _atom_site_type_symbol
  _atom_site_label
  _atom_site_symmetry_multiplicity
  _atom_site_fract_x
  _atom_site_fract_y
  _atom_site_fract_z
  _atom_site_occupancy
  Na  Na1       1.0  0.5000016287943795  1.7264991711964085e-06  0.49999504689750296  1.0000
  H   H1        1.0  0.5324977190007941  0.4065205381417059  0.7656554527760377  1.0000
  H   H2        1.0  0.46749492485984234  0.5934838100361972  0.2343552421342068  1.0000
  H   H3        1.0  0.1499070138549286  0.6704736426822465  0.5039360166904814  1.0000
  H   H4        1.0  0.850096319528646  0.3295303754620278  0.496056538642236  1.0000
  H   H5        1.0  0.7047939385307205  0.2422287738014788  0.9097207035651705  1.0000
  H   H6        1.0  0.29520306528660006  0.7577519516471583  0.09024489825339543  1.0000
  H   H7        1.0  0.8995697296201258  0.30041855471516493  0.09500499293804408  1.0000
  H   H8        1.0  0.1004056442323815  0.699580907955955  0.9049829652113387  1.0000
  H   H9        1.0  0.06775734718644338  0.20348036828701047  0.041507394491389994  1.0000
  H   H10       1.0  0.9322214479926529  0.7965193414231211  0.9585075860231598  1.0000
  H   H11       1.0  0.07874025554275481  0.4127310854306927  0.0617254362171948  1.0000
  H   H12       1.0  0.9212443637146989  0.5872611604318508  0.9382801628255634  1.0000
  H   H13       1.0  0.9893549133668955  0.19823576321509512  0.6279602383855334  1.0000
  H   H14       1.0  0.010678160765415584  0.8017765407379682  0.37204698093934496  1.0000
  H   H15       1.0  0.1316703970972952  0.35383411711277557  0.7703575934034674  1.0000
  H   H16       1.0  0.8683535964840915  0.6461675431308507  0.22966597212322876  1.0000
  H   H17       1.0  0.12668927271617747  0.1458395832807895  0.7586712151769461  1.0000
  H   H18       1.0  0.873327060525355  0.8541583802053411  0.24133848948925163  1.0000
  Au  Au1       1.0  0.5000017044436618  5.055562205298608e-06  5.966416907076495e-07  1.0000
  C   C1        1.0  0.3332031751317857  0.7033155968803299  0.6956487277650963  1.0000
  C   C2        1.0  0.6667906067224435  0.2966812709850473  0.30434553757783783  1.0000
  C   C3        1.0  0.44133199403827916  0.6279422885693791  0.7719611516949882  1.0000
  C   C4        1.0  0.55866066416651  0.37206202350231615  0.22804619917009458  1.0000
  C   C5        1.0  0.45083450811494424  0.46409774303504037  0.7089395229621117  1.0000
  C   C6        1.0  0.5491518294398574  0.5359042067281407  0.2910666716606158  1.0000
  C   C7        1.0  0.34924422235636843  0.37165319758948095  0.571039432497507  1.0000
  C   C8        1.0  0.6507455357627024  0.6283548163175113  0.42896982239917497  1.0000
  C   C9        1.0  0.23751129165199814  0.4469553011136469  0.4974275945338107  1.0000
  C   C10       1.0  0.7624882633716511  0.5530476150572028  0.502571025767395  1.0000
  C   C11       1.0  0.23154766853177483  0.6135733229001802  0.5609817723042667  1.0000
  C   C12       1.0  0.7684545538602308  0.3864247235805606  0.4390190495742914  1.0000
  C   C13       1.0  0.7776972810371348  0.22165297623524788  0.8110617211846433  1.0000
  C   C14       1.0  0.22231679832202642  0.7783313705821372  0.1889218055499811  1.0000
  C   C15       1.0  0.9980751903593801  0.2949376394050063  0.022946155587618505  1.0000
  C   C16       1.0  0.0019100840176876038  0.7050582183406247  0.9770571587637632  1.0000
  C   C17       1.0  0.052554981930796905  0.23658254204070767  0.7471274916107404  1.0000
  C   C18       1.0  0.9474692778376408  0.763420201809936  0.2528841655349652  1.0000
  S   S1        1.0  0.32560747140102103  0.9119414855135872  0.7678126312791916  1.0000
  S   S2        1.0  0.6743948777555673  0.08806381070558442  0.23218464589702845  1.0000
  S   S3        1.0  0.562892161691245  0.7388669568303001  0.9479748213768177  1.0000
  S   S4        1.0  0.4371047164012722  0.2611408531014733  0.052023826710467326  1.0000
  S   S5        1.0  0.1970147936648559  0.16577622714979867  0.34883612584286533  1.0000
  S   S6        1.0  0.8029861440811102  0.8342279151514163  0.6511651669410056  1.0000
  N   N1        1.0  0.1444058458005983  0.3412565572256056  0.36955130433295835  1.0000
  N   N2        1.0  0.8555925257483922  0.6587463849175137  0.6304483406486623  1.0000
  N   N3        1.0  0.33761422322783824  0.21028199779852488  0.4962449458213811  1.0000
  N   N4        1.0  0.6623817622463122  0.7897210444307419  0.5037612072479619  1.0000
  N   N5        1.0  0.9359449103098784  0.2520100289505152  0.8581288852366595  1.0000
  N   N6        1.0  0.0640622691353272  0.7479891055667734  0.14186596167471066  1.0000
  O   O1        1.0  0.7143466706872843  0.17372419870418548  0.671734872351031  1.0000
  O   O2        1.0  0.28567368074569544  0.8262684478805227  0.3282369953519293  1.0000
