data_image0
_chemical_formula_structural       Cu3P4H26C10N4O20
_chemical_formula_sum              "Cu3 P4 H26 C10 N4 O20"
_cell_length_a       7.969426909528823
_cell_length_b       9.6887160986363
_cell_length_c       10.088208556816426
_cell_angle_alpha    92.99140921860419
_cell_angle_beta     112.83404515362618
_cell_angle_gamma    100.82916626911947

_space_group_name_H-M_alt    "P 1"
_space_group_IT_number       1

loop_
  _space_group_symop_operation_xyz
  'x, y, z'

loop_
  _atom_site_type_symbol
  _atom_site_label
  _atom_site_symmetry_multiplicity
  _atom_site_fract_x
  _atom_site_fract_y
  _atom_site_fract_z
  _atom_site_occupancy
  Cu  Cu1       1.0  0.49852021686133713  0.5004916047405246  8.257331276701113e-05  1.0000
  Cu  Cu2       1.0  0.8113678874526831  0.6119814914263844  0.670731093402374  1.0000
  Cu  Cu3       1.0  0.18736454026722535  0.38729448289075213  0.32924863380539904  1.0000
  P   P1        1.0  0.656721248659224  0.7432963902524606  0.8574588912926446  1.0000
  P   P2        1.0  0.34316474015582804  0.2560317112299161  0.1432048568955864  1.0000
  P   P3        1.0  0.38435524417905514  0.48520426136003186  0.6573123146455658  1.0000
  P   P4        1.0  0.6141994098248561  0.5155655626054738  0.3421093280107855  1.0000
  H   H1        1.0  0.4485141900333645  0.21851881128561962  0.665846578420009  1.0000
  H   H2        1.0  0.5562206262017428  0.7833326029899157  0.33713742658377316  1.0000
  H   H3        1.0  0.37624744027436224  0.9405824731376744  0.5268190225984528  1.0000
  H   H4        1.0  0.628253200790482  0.0613848967481516  0.4752719936835776  1.0000
  H   H5        1.0  0.2764868677068365  0.9254420063248648  0.9098119058379412  1.0000
  H   H6        1.0  0.7231442086026691  0.075566897420515  0.09020630900958802  1.0000
  H   H7        1.0  0.15616063014789464  0.6957965803485423  0.5798177343971034  1.0000
  H   H8        1.0  0.8446918008447641  0.30652808993666986  0.41967754763990694  1.0000
  H   H9        1.0  0.23907802000162098  0.6945802305750706  0.7710946162703822  1.0000
  H   H10       1.0  0.7602646493334647  0.3065678015763069  0.2281954803653363  1.0000
  H   H11       1.0  0.37668500776231895  0.18758839882180212  0.8918348331346451  1.0000
  H   H12       1.0  0.6244121325158575  0.8135754874220356  0.1092933839606546  1.0000
  H   H13       1.0  0.4641765223388178  0.6600860981417753  0.486552773140275  1.0000
  H   H14       1.0  0.5346197562153422  0.3402592687869871  0.5132009370319752  1.0000
  H   H15       1.0  0.050770352479304434  0.4396910571133433  0.7086403681122706  1.0000
  H   H16       1.0  0.94616518941924  0.5595449059074441  0.2868501227947108  1.0000
  H   H17       1.0  0.06079131813243783  0.5076318086896237  0.8572702475286464  1.0000
  H   H18       1.0  0.9367203080186004  0.488909156781361  0.13953570539054289  1.0000
  H   H19       1.0  0.8475291463366118  0.8784172289888302  0.7493992552914863  1.0000
  H   H20       1.0  0.15388456837327885  0.120955975753148  0.2536031100608795  1.0000
  H   H21       1.0  0.8243663028418384  0.8605069652873779  0.5866659093860777  1.0000
  H   H22       1.0  0.17851686232841496  0.13988666046162024  0.4165319748127062  1.0000
  H   H23       1.0  0.8173712710706624  0.34907068309087924  0.927244616496509  1.0000
  H   H24       1.0  0.17988099600521681  0.6467795390748137  0.06941163189501513  1.0000
  H   H25       1.0  0.7909466053956749  0.5058208665765705  0.9236311070099249  1.0000
  H   H26       1.0  0.20509235816858515  0.4898298129887949  0.07415875995421575  1.0000
  C   C1        1.0  0.39709142564677796  0.11587373189564695  0.6909679060284761  1.0000
  C   C2        1.0  0.6067486043795043  0.8857490305965071  0.3112144575211247  1.0000
  C   C3        1.0  0.3629144122415654  0.9810778269507026  0.6232278898257706  1.0000
  C   C4        1.0  0.6405299710465046  0.020664324598151  0.378481666686426  1.0000
  C   C5        1.0  0.3139012318078259  0.9661249880396885  0.8245445706048856  1.0000
  C   C6        1.0  0.687050799718115  0.0350639256431364  0.176105970163981  1.0000
  C   C7        1.0  0.2761631307032603  0.7347078105703206  0.6842217355894606  1.0000
  C   C8        1.0  0.7243199622078438  0.26676013922455877  0.3156779943563068  1.0000
  C   C9        1.0  0.4455770405403144  0.6817110184399198  0.6825436777159483  1.0000
  C   C10       1.0  0.5545406100658283  0.3189516042060561  0.31770589105978086  1.0000
  N   N1        1.0  0.3124559691408066  0.8894053494290333  0.7090889644081602  1.0000
  N   N2        1.0  0.6892859781900287  0.11208175815942671  0.2917139227677767  1.0000
  N   N3        1.0  0.3642689821164424  0.10320970506368352  0.8146122843115506  1.0000
  N   N4        1.0  0.6379050858550387  0.8980294595721076  0.1868325362307744  1.0000
  O   O1        1.0  0.49654653312110514  0.7361061769671551  0.5712383612139292  1.0000
  O   O2        1.0  0.5043584335255744  0.26397941130163355  0.4290686639464739  1.0000
  O   O3        1.0  0.730854860761042  0.9002328808805161  0.8666118060170619  1.0000
  O   O4        1.0  0.2712882393065854  0.09892737274484632  0.13456367770994151  1.0000
  O   O5        1.0  0.8020599163738781  0.6543701453842702  0.8568861332134576  1.0000
  O   O6        1.0  0.19606487022085878  0.3433711131036859  0.14392448741947564  1.0000
  O   O7        1.0  0.5894400062171458  0.6992753806931732  0.977879305886944  1.0000
  O   O8        1.0  0.4083899719802845  0.30146821347399577  0.022178629447410014  1.0000
  O   O9        1.0  0.5513853446786074  0.4393620970909781  0.6428844475132183  1.0000
  O   O10       1.0  0.4461191967434389  0.560958558829256  0.3548672553342841  1.0000
  O   O11       1.0  0.34680921805070136  0.4418745842842995  0.7896906216744101  1.0000
  O   O12       1.0  0.6531955541137009  0.5575519819319086  0.20970050613012609  1.0000
  O   O13       1.0  0.19881798288528782  0.4307788818201744  0.5209292836061226  1.0000
  O   O14       1.0  0.7992378956030922  0.5728341049105695  0.4781581035512945  1.0000
  O   O15       1.0  0.9702923463974289  0.4645551482860314  0.754511660230783  1.0000
  O   O16       1.0  0.02696407817047943  0.5333569311702533  0.241890293829485  1.0000
  O   O17       1.0  0.8991943566351923  0.8391138349690482  0.6824570535810752  1.0000
  O   O18       1.0  0.10282384306934493  0.16064208107445677  0.32064479949851693  1.0000
  O   O19       1.0  0.788027525899466  0.4222839806290254  0.9789637106399811  1.0000
  O   O20       1.0  0.20869182425172284  0.5728199004501562  0.01816720563525112  1.0000
