data_image0
_chemical_formula_structural       Fe2Ag4H32C56N16
_chemical_formula_sum              "Fe2 Ag4 H32 C56 N16"
_cell_length_a       9.29415743906798
_cell_length_b       10.793213590216615
_cell_length_c       13.137332972112292
_cell_angle_alpha    90.0028285862251
_cell_angle_beta     92.97256125965389
_cell_angle_gamma    90.00294543404839

_space_group_name_H-M_alt    "P 1"
_space_group_IT_number       1

loop_
  _space_group_symop_operation_xyz
  'x, y, z'

loop_
  _atom_site_type_symbol
  _atom_site_label
  _atom_site_symmetry_multiplicity
  _atom_site_fract_x
  _atom_site_fract_y
  _atom_site_fract_z
  _atom_site_occupancy
  Fe  Fe1       1.0  0.9816343091503439  0.4968655614929745  0.9898034214249309  1.0000
  Fe  Fe2       1.0  0.481631222291071  0.0031597832486412  0.4898095242393269  1.0000
  Ag  Ag1       1.0  0.2632634883023569  0.1808919780114948  0.8085896021139265  1.0000
  Ag  Ag2       1.0  0.24311495243086506  0.6803620512147219  0.691685195313575  1.0000
  Ag  Ag3       1.0  0.7430910463382856  0.8196307437889278  0.19168237842092853  1.0000
  Ag  Ag4       1.0  0.7632552665581114  0.3191276137860726  0.3085670258862265  1.0000
  H   H1        1.0  0.33109560548528794  0.42783212383218955  0.013745726034308296  1.0000
  H   H2        1.0  0.17013493416784795  0.9413916693275938  0.4943604287241357  1.0000
  H   H3        1.0  0.6701900953627984  0.5588051420999348  0.9942727450275656  1.0000
  H   H4        1.0  0.8311057407893043  0.0723135339726468  0.5137810930567142  1.0000
  H   H5        1.0  0.5495195469609868  0.44694057083374616  0.1349769759068522  1.0000
  H   H6        1.0  0.9522921077155783  0.9588515315804006  0.3754955693517702  1.0000
  H   H7        1.0  0.45235226721639055  0.5412968585739222  0.8753980901450903  1.0000
  H   H8        1.0  0.049512305697831514  0.0532462642713725  0.6350249195605288  1.0000
  H   H9        1.0  0.28255715412187493  0.6482719173631252  0.33776314724863715  1.0000
  H   H10       1.0  0.2207374203536645  0.13894055989365484  0.1613232730575191  1.0000
  H   H11       1.0  0.7207293978508673  0.3608718599967061  0.6613591928980113  1.0000
  H   H12       1.0  0.7826059200208347  0.8516535963592845  0.8376882186222616  1.0000
  H   H13       1.0  0.07568981389599827  0.6202031926113136  0.2074605233280451  1.0000
  H   H14       1.0  0.42839055401575626  0.11188751811771172  0.2879761873391828  1.0000
  H   H15       1.0  0.9283863879645436  0.38795005511700964  0.7880133767818409  1.0000
  H   H16       1.0  0.5757524294176618  0.8797210720787806  0.7073798114045644  1.0000
  H   H17       1.0  0.8713619054662729  0.6655964024328682  0.6955573422730623  1.0000
  H   H18       1.0  0.6354227270110044  0.1649400861601649  0.8055240014233861  1.0000
  H   H19       1.0  0.13551271738101883  0.3349087501886033  0.305477251256697  1.0000
  H   H20       1.0  0.3712966050904426  0.8342420093282784  0.195507034211289  1.0000
  H   H21       1.0  0.6491637584384619  0.6204959059652423  0.5840425408762471  1.0000
  H   H22       1.0  0.8555948568339176  0.11911584963175409  0.9183314936286423  1.0000
  H   H23       1.0  0.35568798776796473  0.3807059747813852  0.41827834061714236  1.0000
  H   H24       1.0  0.14912520549752628  0.879397301620621  0.08398855709950942  1.0000
  H   H25       1.0  0.9187550389030292  0.6265284437800246  0.3261014195589951  1.0000
  H   H26       1.0  0.5821777409124563  0.12332893629452  0.1740840645351085  1.0000
  H   H27       1.0  0.08221953652338948  0.3766865871390905  0.6740209497945742  1.0000
  H   H28       1.0  0.41879957792433237  0.8736238276491337  0.8260824838880724  1.0000
  H   H29       1.0  0.1271330547784757  0.6828185200025133  0.4483387716440817  1.0000
  H   H30       1.0  0.3752999048175242  0.17913441823817786  0.05063794243637431  1.0000
  H   H31       1.0  0.875338140418435  0.3209236902813545  0.5505604874565151  1.0000
  H   H32       1.0  0.6271585666473314  0.817283746744529  0.9483160885859477  1.0000
  C   C1        1.0  0.1326453902207447  0.2679430596990642  0.9072823243124831  1.0000
  C   C2        1.0  0.36401170577195063  0.769501887443468  0.5884673154176667  1.0000
  C   C3        1.0  0.8640176694028482  0.7305252429851451  0.08846482242837082  1.0000
  C   C4        1.0  0.6326894339748674  0.23206002647399518  0.40727274219168663  1.0000
  C   C5        1.0  0.1504626775569591  0.6117530946842537  0.8177491953470908  1.0000
  C   C6        1.0  0.34165824106871406  0.1136604546836253  0.6766529262608785  1.0000
  C   C7        1.0  0.841604935912187  0.3863815220398835  0.17662303923700054  1.0000
  C   C8        1.0  0.650416322971111  0.8882367123611984  0.3177425862936829  1.0000
  C   C9        1.0  0.3260088412408564  0.4761534519659777  0.0864147022682076  1.0000
  C   C10       1.0  0.17622332663786716  0.9843962122772678  0.41982532006076684  1.0000
  C   C11       1.0  0.676277203704643  0.515720404404803  0.9197594726766952  1.0000
  C   C12       1.0  0.8260176508380894  0.0239667104368451  0.5864275350495802  1.0000
  C   C13       1.0  0.4463431618075687  0.4869028435833798  0.153335632941058  1.0000
  C   C14       1.0  0.05581355108567719  0.9947211931268923  0.3535845816854604  1.0000
  C   C15       1.0  0.5558570597654721  0.5053564587527504  0.8535185464948255  1.0000
  C   C16       1.0  0.9463501949055623  0.013225746233828804  0.6533487102526436  1.0000
  C   C17       1.0  0.4325102963164084  0.5500616879206958  0.2462062486905126  1.0000
  C   C18       1.0  0.06841022324389459  0.05098760209400411  0.2575713892648253  1.0000
  C   C19       1.0  0.5684414280382054  0.44900176860152646  0.7575336480653407  1.0000
  C   C20       1.0  0.9325279517364817  0.9499955795933914  0.7461899184322077  1.0000
  C   C21       1.0  0.2963682764555813  0.5984813941665338  0.2668831309907702  1.0000
  C   C22       1.0  0.20603090180145497  0.0937992462571771  0.2341190512415778  1.0000
  C   C23       1.0  0.7060375303593672  0.4061012210375452  0.7341240186630744  1.0000
  C   C24       1.0  0.7963978309836292  0.9015090215982868  0.7668350537655045  1.0000
  C   C25       1.0  0.18248886248435528  0.5831041009656417  0.19543896118997137  1.0000
  C   C26       1.0  0.3213285839077074  0.0792567892273155  0.3037392686786831  1.0000
  C   C27       1.0  0.8213372752218291  0.4206520454068324  0.8037426338245552  1.0000
  C   C28       1.0  0.682533646155498  0.9168797534239559  0.695383910137096  1.0000
  C   C29       1.0  0.8765810537427964  0.6584904907971564  0.6129289634816928  1.0000
  C   C30       1.0  0.6285341971862691  0.156734481312732  0.8879393761589399  1.0000
  C   C31       1.0  0.12861763714952448  0.34316812049553397  0.387877381867952  1.0000
  C   C32       1.0  0.3765570395497234  0.841426559977016  0.1128841364746762  1.0000
  C   C33       1.0  0.7539085922877999  0.6314365280354011  0.551664566564817  1.0000
  C   C34       1.0  0.7503010399204298  0.12942373109827093  0.9499960173932538  1.0000
  C   C35       1.0  0.25038380648805253  0.37045278786662555  0.44994267930858467  1.0000
  C   C36       1.0  0.2538873807961507  0.8684973485067858  0.051620192695999406  1.0000
  C   C37       1.0  0.767747570674885  0.61882109767636  0.44606436555992707  1.0000
  C   C38       1.0  0.7350846495233511  0.11622613192969308  0.055441903709287  1.0000
  C   C39       1.0  0.23514400513851536  0.3836963549610175  0.5553837903196239  1.0000
  C   C40       1.0  0.26774784544403457  0.8811834807868805  0.9460274335812215  1.0000
  C   C41       1.0  0.9049702285317875  0.6362728239283938  0.4074950428315489  1.0000
  C   C42       1.0  0.5970217805636862  0.13321173255723553  0.0928572387045463  1.0000
  C   C43       1.0  0.0970631189050337  0.36677639030163794  0.592788379832129  1.0000
  C   C44       1.0  0.4049896143515637  0.8638114736137795  0.9074667954286257  1.0000
  C   C45       1.0  0.01937265075141429  0.6665085459227384  0.4750477747798385  1.0000
  C   C46       1.0  0.4834775688128587  0.16325382370774824  0.024599518669425904  1.0000
  C   C47       1.0  0.983520126958183  0.3367417180089873  0.5245198693376665  1.0000
  C   C48       1.0  0.5193811348412822  0.8335396058552147  0.9750164712433148  1.0000
  C   C49       1.0  0.5502762114479367  0.5679823074692792  0.316841326346669  1.0000
  C   C50       1.0  0.9505466978275334  0.0674931230333797  0.18707907408925448  1.0000
  C   C51       1.0  0.4505763573168052  0.4324709131711587  0.6870358024246033  1.0000
  C   C52       1.0  0.050289001935517795  0.9320743561117341  0.8168192370957996  1.0000
  C   C53       1.0  0.6486951267571539  0.5904828993988999  0.3789807778123446  1.0000
  C   C54       1.0  0.8531792940172449  0.08852264299892451  0.1235373015458165  1.0000
  C   C55       1.0  0.353231940815064  0.4114267729298859  0.6234746027787068  1.0000
  C   C56       1.0  0.14871015745443827  0.909550359170254  0.8789442120144955  1.0000
  N   N1        1.0  0.08407765743772437  0.5738918900393061  0.8847172663021539  1.0000
  N   N2        1.0  0.39244482600170016  0.07808975746788602  0.6020646435498024  1.0000
  N   N3        1.0  0.8923969185131139  0.4219508978593397  0.1020387263568239  1.0000
  N   N4        1.0  0.584036962917871  0.9261092078929353  0.38471092457579203  1.0000
  N   N5        1.0  0.06618681951236026  0.3450199302553472  0.9472239272514784  1.0000
  N   N6        1.0  0.4132815284416366  0.8493322450719915  0.5403108857422296  1.0000
  N   N7        1.0  0.9132987466765169  0.6507015748562566  0.04030202166713079  1.0000
  N   N8        1.0  0.5662139787791742  0.1549881821428585  0.44721651280215713  1.0000
  N   N9        1.0  0.19709477499329608  0.5232993698624996  0.10710768134609339  1.0000
  N   N10       1.0  0.3088781149248588  0.02503726379173801  0.3961642249583903  1.0000
  N   N11       1.0  0.8089022412555733  0.47498221024759607  0.8961301850478238  1.0000
  N   N12       1.0  0.6971231073670621  0.9767363257218449  0.6070807820979738  1.0000
  N   N13       1.0  0.006854720486629192  0.6770336654276718  0.576075516894889  1.0000
  N   N14       1.0  0.4973079752323528  0.1745040089418382  0.9236936923349718  1.0000
  N   N15       1.0  0.9973708825535894  0.325444850482434  0.42361721272339287  1.0000
  N   N16       1.0  0.5068451748390501  0.822921331145544  0.07603398834783091  1.0000
