data_image0
_chemical_formula_structural       Cu4H64C64S8Br4
_chemical_formula_sum              "Cu4 H64 C64 S8 Br4"
_cell_length_a       11.447511471592662
_cell_length_b       11.946636915088302
_cell_length_c       12.058428817884467
_cell_angle_alpha    109.56145722803512
_cell_angle_beta     91.40888411820742
_cell_angle_gamma    93.16682688388474

_space_group_name_H-M_alt    "P 1"
_space_group_IT_number       1

loop_
  _space_group_symop_operation_xyz
  'x, y, z'

loop_
  _atom_site_type_symbol
  _atom_site_label
  _atom_site_symmetry_multiplicity
  _atom_site_fract_x
  _atom_site_fract_y
  _atom_site_fract_z
  _atom_site_occupancy
  Cu  Cu1       1.0  0.5773343228665127  0.9843367491809328  0.9158157221061672  1.0000
  Cu  Cu2       1.0  0.42266852542771005  0.015666966630419693  0.08418443288923072  1.0000
  Cu  Cu3       1.0  0.9283805101125252  0.4323092377323974  0.8992072840174999  1.0000
  Cu  Cu4       1.0  0.0716215198838484  0.567695365072133  0.10079314237011522  1.0000
  H   H1        1.0  0.004372721201008287  0.8899581684866289  0.03918782640617009  1.0000
  H   H2        1.0  0.9956273424936554  0.1100428821445476  0.9608138855851893  1.0000
  H   H3        1.0  0.7955355088349945  0.9650657978492558  0.08449675521150368  1.0000
  H   H4        1.0  0.20446455329621926  0.034935247510198095  0.9155041257145627  1.0000
  H   H5        1.0  0.8043478358975875  0.8525602862485823  0.9482625464106604  1.0000
  H   H6        1.0  0.19565222623362638  0.14744075911087146  0.05173833451539881  1.0000
  H   H7        1.0  0.8573893351812387  0.1772091721572409  0.7958490962125284  1.0000
  H   H8        1.0  0.1426124734476844  0.8227918746024228  0.20415099432265993  1.0000
  H   H9        1.0  0.8987275623363543  0.1205037203732999  0.5835517013958624  1.0000
  H   H10       1.0  0.10127150960847327  0.8794955251767219  0.41644608253824345  1.0000
  H   H11       1.0  0.8848094206215363  0.9053259900301357  0.45677067531309495  1.0000
  H   H12       1.0  0.11518982008491462  0.09467593177905087  0.5432288148745884  1.0000
  H   H13       1.0  0.8317450866818632  0.7497943804594486  0.5447282821494569  1.0000
  H   H14       1.0  0.16825409985531783  0.25020665629231326  0.45527174737409143  1.0000
  H   H15       1.0  0.7852960011200948  0.807213372968242  0.7553994107036107  1.0000
  H   H16       1.0  0.2147040037149424  0.19278677679034215  0.24460034742772763  1.0000
  H   H17       1.0  0.4796442448610491  0.0815650150443474  0.7039575041414212  1.0000
  H   H18       1.0  0.5203558698759848  0.9184369101008086  0.2960420063834804  1.0000
  H   H19       1.0  0.6287569182263296  0.04844931595688709  0.6950106278649317  1.0000
  H   H20       1.0  0.3712430897356144  0.9515508443451351  0.3049907923969998  1.0000
  H   H21       1.0  0.5837137297811948  0.899316185756831  0.48411858447683204  1.0000
  H   H22       1.0  0.41628638808273877  0.10068574993177037  0.5158825881786627  1.0000
  H   H23       1.0  0.3925311704988276  0.7468545745067061  0.8219815605799357  1.0000
  H   H24       1.0  0.6074697625360627  0.2531464636452725  0.17801767855274872  1.0000
  H   H25       1.0  0.17982299650525144  0.7017509828751186  0.8350355004100012  1.0000
  H   H26       1.0  0.8201760228337561  0.29824738288920116  0.16496365392526974  1.0000
  H   H27       1.0  0.03283924655167428  0.7924477042701167  0.7414425415912332  1.0000
  H   H28       1.0  0.9671606436910096  0.2075506542867203  0.25855497095065527  1.0000
  H   H29       1.0  0.09933099228194209  0.9253637218189467  0.6319582161389122  1.0000
  H   H30       1.0  0.9006689552569184  0.07463553233876749  0.3680404191976976  1.0000
  H   H31       1.0  0.3106925576348302  0.9707846669135518  0.6173386206336816  1.0000
  H   H32       1.0  0.6893073341713033  0.02921369691501499  0.38265972297350714  1.0000
  H   H33       1.0  0.9096326927650581  0.3925107703179619  0.4722413832085409  1.0000
  H   H34       1.0  0.09036299608634828  0.6074902478182123  0.5277577339008559  1.0000
  H   H35       1.0  0.8729570637278383  0.5242963599517837  0.6852623813988147  1.0000
  H   H36       1.0  0.12704184883607178  0.47570024096940233  0.314738682673486  1.0000
  H   H37       1.0  0.022923235354497293  0.5736733140639173  0.7065348027229135  1.0000
  H   H38       1.0  0.9770766054092731  0.42632417525066996  0.2934657423507261  1.0000
  H   H39       1.0  0.19306336789136935  0.4984714024282654  0.6483110223178415  1.0000
  H   H40       1.0  0.8069374505511746  0.5015278445219662  0.35168597122539313  1.0000
  H   H41       1.0  0.4020878586948412  0.4607970354536376  0.6653650526905398  1.0000
  H   H42       1.0  0.5979096370773505  0.5392048902270616  0.33463605895330784  1.0000
  H   H43       1.0  0.4600740138051264  0.29557689206305326  0.7314745881103805  1.0000
  H   H44       1.0  0.5399251107455213  0.7044232332726778  0.26852182542256037  1.0000
  H   H45       1.0  0.30623875066616074  0.1689123556819823  0.7860860132828834  1.0000
  H   H46       1.0  0.693761257295776  0.8310878046200469  0.2139154069790408  1.0000
  H   H47       1.0  0.0973446265183071  0.20656630642115195  0.7717624300591411  1.0000
  H   H48       1.0  0.9026552621609267  0.7934320468639696  0.22823425141745446  1.0000
  H   H49       1.0  0.6969119927385915  0.43497955949785433  0.08043108040983775  1.0000
  H   H50       1.0  0.30309069304781383  0.5650215011412173  0.9195706925931618  1.0000
  H   H51       1.0  0.7000680267329429  0.5629252298558143  0.03713282723511207  1.0000
  H   H52       1.0  0.299934657490013  0.4370758255115419  0.9628681147025874  1.0000
  H   H53       1.0  0.495662644654658  0.365763519454809  0.9828855268964677  1.0000
  H   H54       1.0  0.5043357282750165  0.6342384201052979  0.017117267215191072  1.0000
  H   H55       1.0  0.6929806368202094  0.2644551130187409  0.6344306107376312  1.0000
  H   H56       1.0  0.3070218244718461  0.735542381032019  0.3655691642823627  1.0000
  H   H57       1.0  0.6455521085846739  0.340889141000673  0.47230856103890784  1.0000
  H   H58       1.0  0.35445216275508074  0.6591092711380567  0.5276948706461227  1.0000
  H   H59       1.0  0.6082792632714343  0.5563058139163032  0.5184159733885922  1.0000
  H   H60       1.0  0.3917179012313099  0.4436907803329504  0.4815850500092794  1.0000
  H   H61       1.0  0.6179647555165672  0.691385561795869  0.7262464939701304  1.0000
  H   H62       1.0  0.3820378141140423  0.30861370236974034  0.2737522023781267  1.0000
  H   H63       1.0  0.6724593134769491  0.6181763680815563  0.8874226570386486  1.0000
  H   H64       1.0  0.32754407757841614  0.38182201963432033  0.11257743004798468  1.0000
  C   C1        1.0  0.9656957533723514  0.9583498233919343  0.010957107868946946  1.0000
  C   C2        1.0  0.03430430875885549  0.0416512219675198  0.9890437730571195  1.0000
  C   C3        1.0  0.8354853530130625  0.9449971699976343  0.9983939499574249  1.0000
  C   C4        1.0  0.1645155274160004  0.05500298836863489  0.0016066595764243972  1.0000
  C   C5        1.0  0.8165446273530035  0.9962109508160708  0.7881841468839924  1.0000
  C   C6        1.0  0.18345630568189364  0.003790087335907799  0.21181509224869197  1.0000
  C   C7        1.0  0.8505204326576034  0.0838445355381907  0.7397329327877461  1.0000
  C   C8        1.0  0.14947962634670378  0.9161564992778181  0.2602662860077203  1.0000
  C   C9        1.0  0.8743061862587779  0.051167854541723984  0.6204517152451531  1.0000
  C   C10       1.0  0.1256920689516434  0.948832283273205  0.3795471711464629  1.0000
  C   C11       1.0  0.8671724895163279  0.9312539791296286  0.5499891964290953  1.0000
  C   C12       1.0  0.1328275710514362  0.06874706095810271  0.45001085343167097  1.0000
  C   C13       1.0  0.8369599712224982  0.843589495473175  0.599366153374298  1.0000
  C   C14       1.0  0.16304003361253896  0.15641065428540193  0.4006336047570401  1.0000
  C   C15       1.0  0.8110844419344615  0.8757113850662676  0.7179550838146724  1.0000
  C   C16       1.0  0.18891654839660524  0.12429054868658079  0.28204527811274  1.0000
  C   C17       1.0  0.5393262036157438  0.012566729274425396  0.6614595066040325  1.0000
  C   C18       1.0  0.46067292875216026  0.9874334224199046  0.3385410622553878  1.0000
  C   C19       1.0  0.5317024095047387  0.9737035370967532  0.5304289127279419  1.0000
  C   C20       1.0  0.4682967770324424  0.026297499655008504  0.46957111679561353  1.0000
  C   C21       1.0  0.3655674075216099  0.8617398167667569  0.7188664641469985  1.0000
  C   C22       1.0  0.634431780579021  0.138261225256727  0.28113439644184984  1.0000
  C   C23       1.0  0.3280860417362418  0.7834456873460239  0.777768607698569  1.0000
  C   C24       1.0  0.6719130890682123  0.21655445907659032  0.2222311300955511  1.0000
  C   C25       1.0  0.20876504846950178  0.7584522383395721  0.7850398875190268  1.0000
  C   C26       1.0  0.7912340266022324  0.24154701775389498  0.2149595585456723  1.0000
  C   C27       1.0  0.12599164570391957  0.809490249381781  0.7329321473867765  1.0000
  C   C28       1.0  0.874008356004218  0.1905098898333577  0.26706594861396843  1.0000
  C   C29       1.0  0.1636052060960012  0.8851520884838137  0.6724998057368482  1.0000
  C   C30       1.0  0.8363956154734424  0.11484716900986308  0.3274988499369799  1.0000
  C   C31       1.0  0.2830379314696144  0.911671545742173  0.6648755410882073  1.0000
  C   C32       1.0  0.7169611977713899  0.0883285954087185  0.33512336564061945  1.0000
  C   C33       1.0  0.9663928916601207  0.46921053519886846  0.5259734697229703  1.0000
  C   C34       1.0  0.0336070048363695  0.530787844444866  0.47402736708009746  1.0000
  C   C35       1.0  0.9611024412349636  0.49961125558051117  0.6561018206212667  1.0000
  C   C36       1.0  0.03889657966749378  0.5003871154555312  0.3438981647792972  1.0000
  C   C37       1.0  0.1310850261326166  0.35409283137816056  0.7079015244868432  1.0000
  C   C38       1.0  0.868914974012064  0.6459073025652555  0.2920957404486018  1.0000
  C   C39       1.0  0.21699629443988747  0.4256924059114055  0.6776497204247391  1.0000
  C   C40       1.0  0.7830019607705339  0.5743077319035166  0.32234916596687674  1.0000
  C   C41       1.0  0.33494670390646053  0.40330432654216947  0.6858929346026842  1.0000
  C   C42       1.0  0.6650532993651267  0.596695817944692  0.31410599246335386  1.0000
  C   C43       1.0  0.36776373935221324  0.3102270626354765  0.722941505202755  1.0000
  C   C44       1.0  0.6322326547681454  0.6897712825775031  0.27705592599028256  1.0000
  C   C45       1.0  0.28168571347922716  0.2391840861877838  0.7529541036722948  1.0000
  C   C46       1.0  0.7183150492305898  0.7608142704333076  0.24704259814151194  1.0000
  C   C47       1.0  0.1639431424415392  0.2603988672964803  0.7454497174048953  1.0000
  C   C48       1.0  0.8360557607416651  0.7395977019943769  0.2545463602756257  1.0000
  C   C49       1.0  0.6640118971429487  0.4704763604401876  0.013331764611436378  1.0000
  C   C50       1.0  0.335989040582298  0.5295246935269515  0.9866699677171341  1.0000
  C   C51       1.0  0.5341069795772383  0.45591599728783894  0.9986836762649534  1.0000
  C   C52       1.0  0.465893897724932  0.5440841505349852  0.0013152711383029086  1.0000
  C   C53       1.0  0.6867575921418662  0.4362407841029352  0.7715186062906626  1.0000
  C   C54       1.0  0.3132433408930241  0.5637602540490362  0.22848063284202166  1.0000
  C   C55       1.0  0.6780034112830291  0.3584438156414933  0.6542108494923158  1.0000
  C   C56       1.0  0.3219936433177182  0.6415510032211882  0.3457904215119926  1.0000
  C   C57       1.0  0.650905390256085  0.4017468475793464  0.5631538909939451  1.0000
  C   C58       1.0  0.3490910658508071  0.5982524090496639  0.4368471561896996  1.0000
  C   C59       1.0  0.6301171567127994  0.5218439960763064  0.5887192828384898  1.0000
  C   C60       1.0  0.369882629881694  0.4781526081808493  0.4112818015710219  1.0000
  C   C61       1.0  0.6361749223517704  0.5981731728251702  0.7057093332370102  1.0000
  C   C62       1.0  0.36382688471370267  0.40182786866277087  0.29428992623289224  1.0000
  C   C63       1.0  0.6655137998997133  0.556568930223328  0.7972148522532977  1.0000
  C   C64       1.0  0.3344887202519756  0.4434294647000242  0.20278687662671052  1.0000
  S   S1        1.0  0.7691796568549876  0.045985169071926194  0.9352690318388001  1.0000
  S   S2        1.0  0.23082127930680937  0.9540158796234904  0.06473186942447731  1.0000
  S   S3        1.0  0.519121533520618  0.8915690233571141  0.7209271517541681  1.0000
  S   S4        1.0  0.4808777103127396  0.10843290899551758  0.27907400056410847  1.0000
  S   S5        1.0  0.9790375022690724  0.3729902223649262  0.7060057480570096  1.0000
  S   S6        1.0  0.020962400481224105  0.627008178365692  0.29399841300724466  1.0000
  S   S7        1.0  0.7321112923400152  0.37736526424513517  0.8810036084473157  1.0000
  S   S8        1.0  0.2678922070538973  0.6226348935855979  0.11899539996758786  1.0000
  Br  Br1       1.0  0.547123549408674  0.8436610065606727  0.022890935311899233  1.0000
  Br  Br2       1.0  0.4528765142859896  0.15634004407049665  0.9771107766794531  1.0000
  Br  Br3       1.0  0.03639253596335829  0.3475323650593793  0.025133451374316003  1.0000
  Br  Br4       1.0  0.9636067589123697  0.6524704418072317  0.9748654994775026  1.0000
