data_image0
_chemical_formula_structural       Co8H80C88N16O40
_chemical_formula_sum              "Co8 H80 C88 N16 O40"
_cell_length_a       11.34472093401765
_cell_length_b       11.340445493905978
_cell_length_c       24.688198672038077
_cell_angle_alpha    90.00101991524897
_cell_angle_beta     89.99674487264527
_cell_angle_gamma    90.00184576591731

_space_group_name_H-M_alt    "P 1"
_space_group_IT_number       1

loop_
  _space_group_symop_operation_xyz
  'x, y, z'

loop_
  _atom_site_type_symbol
  _atom_site_label
  _atom_site_symmetry_multiplicity
  _atom_site_fract_x
  _atom_site_fract_y
  _atom_site_fract_z
  _atom_site_occupancy
  Co  Co1       1.0  0.402079633776836  0.5977394273125467  0.1250415309978905  1.0000
  Co  Co2       1.0  0.40254842181187916  0.40182525100244937  0.3750820664278863  1.0000
  Co  Co3       1.0  0.5974984970142144  0.4018835777495935  0.6249507374274614  1.0000
  Co  Co4       1.0  0.5976888865329286  0.5979972055677435  0.8749685488045174  1.0000
  Co  Co5       1.0  0.2903011560010924  0.5001460361702214  0.24983055519366104  1.0000
  Co  Co6       1.0  0.5000044730177889  0.29016435702253324  0.4999987386252586  1.0000
  Co  Co7       1.0  0.7097101513438063  0.5000929877220842  0.7500770677986568  1.0000
  Co  Co8       1.0  0.5000674906990809  0.7096709563037745  0.9998898716378337  1.0000
  H   H1        1.0  0.44241404495224396  0.44488841240846705  0.9485439727513595  1.0000
  H   H2        1.0  0.5550706029670848  0.442506936146394  0.19864128948086804  1.0000
  H   H3        1.0  0.5575585190306569  0.5550692077827933  0.4485684086430339  1.0000
  H   H4        1.0  0.44492680098544923  0.5575625207362264  0.6985107600007296  1.0000
  H   H5        1.0  0.4424448564793693  0.5550455717593579  0.551425526995665  1.0000
  H   H6        1.0  0.4449529430558457  0.44250116787984695  0.8014096636748675  1.0000
  H   H7        1.0  0.5575963629751685  0.44497575984682664  0.0514150533253144  1.0000
  H   H8        1.0  0.555024646955232  0.5575820433765913  0.3015156006729001  1.0000
  H   H9        1.0  0.19264387206920472  0.5133148249712177  0.0608634543330311  1.0000
  H   H10       1.0  0.48682258733851563  0.19255402447723208  0.3109466528718841  1.0000
  H   H11       1.0  0.8072648321077764  0.4864590914033044  0.5608845410013288  1.0000
  H   H12       1.0  0.5132737095048157  0.8073752455748604  0.8108467335691644  1.0000
  H   H13       1.0  0.19271165169440962  0.486436210829872  0.43911856478978006  1.0000
  H   H14       1.0  0.5131743983728184  0.1925839453540092  0.689081634167458  1.0000
  H   H15       1.0  0.8073660950415514  0.5134081685182253  0.9391062480370564  1.0000
  H   H16       1.0  0.4866681560933159  0.8073440485752027  0.1891658378394183  1.0000
  H   H17       1.0  0.4177175542292204  0.25638748533796013  0.0536754943782682  1.0000
  H   H18       1.0  0.743648317235902  0.41771495847854817  0.3037099907534114  1.0000
  H   H19       1.0  0.5822132061057276  0.7437150580651846  0.5536315942145507  1.0000
  H   H20       1.0  0.2563386941595737  0.5822686963640961  0.8036194015985745  1.0000
  H   H21       1.0  0.41781387433908895  0.743732341573022  0.4463901858640825  1.0000
  H   H22       1.0  0.25633035885893213  0.4177192539985555  0.6963107899291431  1.0000
  H   H23       1.0  0.5822559258770141  0.2563407091983052  0.9463209015650663  1.0000
  H   H24       1.0  0.7436726112701493  0.5822769251067469  0.196350044515647  1.0000
  H   H25       1.0  0.431332667913999  0.04254549246862639  0.027044730495745708  1.0000
  H   H26       1.0  0.9574765157947667  0.43138665324471487  0.2770747010283827  1.0000
  H   H27       1.0  0.568701881949309  0.9575145586093113  0.5270077624254412  1.0000
  H   H28       1.0  0.04252702130754219  0.5686717873540417  0.7770073881914854  1.0000
  H   H29       1.0  0.43129594606325133  0.9575518438527979  0.4730060152543417  1.0000
  H   H30       1.0  0.0425070082304657  0.4313789369706313  0.7229397085979414  1.0000
  H   H31       1.0  0.5686965098041129  0.0425063820349223  0.9729260479703116  1.0000
  H   H32       1.0  0.9574380092999563  0.5686756074708156  0.2229696452085079  1.0000
  H   H33       1.0  0.3172586626633845  0.9404471385661208  0.18596218649515353  1.0000
  H   H34       1.0  0.05947182119852811  0.3173180714853244  0.4359812770522923  1.0000
  H   H35       1.0  0.6827332545238675  0.0595627401262036  0.6859417672177842  1.0000
  H   H36       1.0  0.9405481436670584  0.6827228237525701  0.935926349005058  1.0000
  H   H37       1.0  0.31726121035112  0.059531888935971694  0.3140684385341999  1.0000
  H   H38       1.0  0.9405168429064616  0.31729334250377406  0.5640322156282522  1.0000
  H   H39       1.0  0.6827500779841031  0.9404742198682  0.8139951516205103  1.0000
  H   H40       1.0  0.05949812934075278  0.6827223136449944  0.0640580808193292  1.0000
  H   H41       1.0  0.2939322704774554  0.154311477124466  0.2112151223297118  1.0000
  H   H42       1.0  0.8456619794372244  0.29390270086720693  0.4612506442137416  1.0000
  H   H43       1.0  0.705985118452624  0.8457073308901284  0.7111477588217809  1.0000
  H   H44       1.0  0.1543451549089667  0.7060615912695384  0.9611738305471605  1.0000
  H   H45       1.0  0.29403114290354887  0.8456712106163378  0.2888760560873465  1.0000
  H   H46       1.0  0.1543171156856999  0.2938957373091426  0.5387683311904682  1.0000
  H   H47       1.0  0.7060467380522937  0.154355950849137  0.788775592864596  1.0000
  H   H48       1.0  0.8457133287351724  0.7060430889453003  0.03880957147270441  1.0000
  H   H49       1.0  0.28933059325134997  0.2674765956387618  0.943742956941165  1.0000
  H   H50       1.0  0.7324222927889678  0.28940371955895466  0.19380650359399004  1.0000
  H   H51       1.0  0.7105561810531142  0.7324764253868281  0.4437891397127842  1.0000
  H   H52       1.0  0.26748932237966727  0.7106558470492813  0.6937494641045847  1.0000
  H   H53       1.0  0.2894590794335059  0.7324780300951871  0.556210272277113  1.0000
  H   H54       1.0  0.26756370878520386  0.28939419058331584  0.8062177012238723  1.0000
  H   H55       1.0  0.7106291437878554  0.2674826469792251  0.05621545364862611  1.0000
  H   H56       1.0  0.7325120123468666  0.7106512931552018  0.3062623292685132  1.0000
  H   H57       1.0  0.2419426638288371  0.40026627048626295  0.9111937371429378  1.0000
  H   H58       1.0  0.5996922094375706  0.24198128597389254  0.1612455183326418  1.0000
  H   H59       1.0  0.7579322821758439  0.5997066306453931  0.4112355945706342  1.0000
  H   H60       1.0  0.400232259621923  0.7580858155289079  0.661186621359775  1.0000
  H   H61       1.0  0.2420751758180018  0.5997106372570755  0.5887619403078119  1.0000
  H   H62       1.0  0.40028962008273794  0.24196056213115472  0.8387770901877474  1.0000
  H   H63       1.0  0.7580142993501582  0.4002830673876119  0.08876007007927461  1.0000
  H   H64       1.0  0.5997679586651189  0.7580685684881912  0.3388194774112634  1.0000
  H   H65       1.0  0.0888876767441005  0.4017729814940408  0.9771248053562973  1.0000
  H   H66       1.0  0.598202145414497  0.0888466015350104  0.2271618416676091  1.0000
  H   H67       1.0  0.9110205208187806  0.5981857640461357  0.4771480858089063  1.0000
  H   H68       1.0  0.40173089349959673  0.9111834172696263  0.7271179082236898  1.0000
  H   H69       1.0  0.08898248064734558  0.5981928225332779  0.5228534874343042  1.0000
  H   H70       1.0  0.40177475196836104  0.08884184543934738  0.7728546755602181  1.0000
  H   H71       1.0  0.9110966589702513  0.4017647759193608  0.022846430747904403  1.0000
  H   H72       1.0  0.5982663231438182  0.9111714596881412  0.2728898261603945  1.0000
  H   H73       1.0  0.1658798492174256  0.3017513661423051  0.0206623684938094  1.0000
  H   H74       1.0  0.6982093160294269  0.16586897233948147  0.270696630683716  1.0000
  H   H75       1.0  0.8340523542310264  0.698203499107393  0.5207018768211499  1.0000
  H   H76       1.0  0.3017623943431644  0.8341213186063071  0.7706696666369766  1.0000
  H   H77       1.0  0.1659424097303983  0.698198093631177  0.4792996902542798  1.0000
  H   H78       1.0  0.3017753514059933  0.16587779647942816  0.7293201005024771  1.0000
  H   H79       1.0  0.8341197758411738  0.3017369310707067  0.9793003674917458  1.0000
  H   H80       1.0  0.6982473250987483  0.8341258560892582  0.2293394735338623  1.0000
  C   C1        1.0  0.35575447336037763  0.21729966416522473  0.1342846976457608  1.0000
  C   C2        1.0  0.7827345114630405  0.3556667035603809  0.384289028413086  1.0000
  C   C3        1.0  0.6441345536443491  0.7827169937466679  0.6342419298667323  1.0000
  C   C4        1.0  0.21731742654635872  0.6442619298875698  0.8842291176560125  1.0000
  C   C5        1.0  0.355880560522813  0.7827123510737263  0.3657838092186196  1.0000
  C   C6        1.0  0.2172642035068719  0.3556947818652745  0.6157235574152864  1.0000
  C   C7        1.0  0.6441992388475981  0.21733283238100398  0.8657000432618602  1.0000
  C   C8        1.0  0.7826932310313593  0.6442144488884408  0.115731915364627  1.0000
  C   C9        1.0  0.39475420277150164  0.1866002954473203  0.08218873106731908  1.0000
  C   C10       1.0  0.8134751341558797  0.3947016757570196  0.3321966899408508  1.0000
  C   C11       1.0  0.605174781822683  0.8134345915277165  0.582156135501677  1.0000
  C   C12       1.0  0.18656916240021104  0.605252240359988  0.8321384806768891  1.0000
  C   C13       1.0  0.3948316261992276  0.8134491289732253  0.4178662051960274  1.0000
  C   C14       1.0  0.18652219384432564  0.3947255258689991  0.6678141843676499  1.0000
  C   C15       1.0  0.605222320036539  0.18660427945716412  0.917790497010529  1.0000
  C   C16       1.0  0.8134049801815734  0.6052236747496452  0.1678230494634718  1.0000
  C   C17       1.0  0.40370539106537967  0.0685677510454639  0.0675503773129549  1.0000
  C   C18       1.0  0.9314905481294672  0.40374878882362714  0.3175813260046141  1.0000
  C   C19       1.0  0.5963303046168846  0.9314568606642055  0.5675039749814346  1.0000
  C   C20       1.0  0.06856614074489188  0.5962812678726409  0.8175143684432201  1.0000
  C   C21       1.0  0.40365610569551075  0.9314687329229016  0.4325148589833745  1.0000
  C   C22       1.0  0.0685088339579494  0.40375442228945957  0.6824292158670531  1.0000
  C   C23       1.0  0.596329913839817  0.06857026093770459  0.9324287114275336  1.0000
  C   C24       1.0  0.9313918459485534  0.5962897069832919  0.18246491223352024  1.0000
  C   C25       1.0  0.3781225635233483  0.9794934941725656  0.10518652106008372  1.0000
  C   C26       1.0  0.020494039526830897  0.3782305670023618  0.3552349470129101  1.0000
  C   C27       1.0  0.6219754561212483  0.020540537766386504  0.6051268651731263  1.0000
  C   C28       1.0  0.979540350180578  0.6218565267028494  0.855168793937253  1.0000
  C   C29       1.0  0.3779921892465908  0.0205412827352234  0.39489112845573265  1.0000
  C   C30       1.0  0.9795106907878549  0.37821821240503073  0.6447717441512425  1.0000
  C   C31       1.0  0.6219394401324793  0.9795006360902222  0.8947869271335024  1.0000
  C   C32       1.0  0.020449311023675396  0.6218879236530197  0.1448272991022321  1.0000
  C   C33       1.0  0.3387153614749678  0.0101801120217999  0.1572015143599756  1.0000
  C   C34       1.0  0.9897515709743344  0.3387699198188086  0.40723488357800625  1.0000
  C   C35       1.0  0.661285414015552  0.9898568504311099  0.6571571311809876  1.0000
  C   C36       1.0  0.010274604329083602  0.6612592608577187  0.9071732050424757  1.0000
  C   C37       1.0  0.3387046401907838  0.9898428152936417  0.3428585265477295  1.0000
  C   C38       1.0  0.010246599446759302  0.3387604430484643  0.5927723006271891  1.0000
  C   C39       1.0  0.6612907380705692  0.0101996995408982  0.8427673843026184  1.0000
  C   C40       1.0  0.9897603997579766  0.6612686911366481  0.09281267266533892  1.0000
  C   C41       1.0  0.3258831057067865  0.12830076387879794  0.1713331991243976  1.0000
  C   C42       1.0  0.8716664887896499  0.32581289657424145  0.421355664425846  1.0000
  C   C43       1.0  0.6740224816789181  0.8717120633603912  0.6712765974120813  1.0000
  C   C44       1.0  0.12836674857425828  0.6741321878692829  0.9212885867012802  1.0000
  C   C45       1.0  0.3259787513125403  0.8716926527143514  0.3287454015100267  1.0000
  C   C46       1.0  0.12833479009498217  0.32582430377971855  0.578657491459964  1.0000
  C   C47       1.0  0.6740774359813955  0.1283387252042516  0.8286500162935584  1.0000
  C   C48       1.0  0.8716695511922269  0.6740781765473615  0.07868807800706891  1.0000
  C   C49       1.0  0.34921144159568474  0.34392984101310015  0.1513493150712861  1.0000
  C   C50       1.0  0.6560770869688639  0.34924814280483923  0.401289055457724  1.0000
  C   C51       1.0  0.6508411828649515  0.6560901380072933  0.6513337107820335  1.0000
  C   C52       1.0  0.343960401199773  0.6507146691388923  0.9012469636674114  1.0000
  C   C53       1.0  0.34916897059554947  0.6560731422272211  0.34869425098690243  1.0000
  C   C54       1.0  0.343924946869926  0.3492716955378726  0.5987263140837841  1.0000
  C   C55       1.0  0.6508433121475291  0.3439651941650864  0.8486178099190839  1.0000
  C   C56       1.0  0.6560672165299266  0.6507982340740595  0.0986768567540253  1.0000
  C   C57       1.0  0.3962867903933328  0.8535081252879521  0.0894045541729298  1.0000
  C   C58       1.0  0.14651691433816444  0.39632416972182927  0.3395457228577854  1.0000
  C   C59       1.0  0.6038440414370071  0.14645297624273465  0.5892746886179411  1.0000
  C   C60       1.0  0.853554684035629  0.6037896409567409  0.8394247807000286  1.0000
  C   C61       1.0  0.39612325204347343  0.1464505212250202  0.410749582680296  1.0000
  C   C62       1.0  0.8534972126706323  0.3963198372352749  0.6604761005588318  1.0000
  C   C63       1.0  0.6038381450090782  0.853552341269058  0.9106031202698688  1.0000
  C   C64       1.0  0.1463709256372212  0.6038142540511515  0.1606327358132731  1.0000
  C   C65       1.0  0.33771495167493987  0.49721984431334226  0.012749851179421502  1.0000
  C   C66       1.0  0.5028459305911497  0.33775662563866143  0.2628718315054357  1.0000
  C   C67       1.0  0.6623046170216114  0.5026236031971011  0.5127610690513578  1.0000
  C   C68       1.0  0.49717964612649007  0.6622871453923622  0.7627347088018653  1.0000
  C   C69       1.0  0.3376670985451256  0.5025967077491414  0.48724297680934103  1.0000
  C   C70       1.0  0.49713369440110006  0.33776323461214014  0.7371713944741674  1.0000
  C   C71       1.0  0.6623438591958575  0.49727337532742416  0.9872087846346602  1.0000
  C   C72       1.0  0.5027883972714234  0.6623183261571981  0.23729370856795381  1.0000
  C   C73       1.0  0.26954453888012614  0.36126548465416863  0.9499992116997049  1.0000
  C   C74       1.0  0.6386687288819248  0.26958476886577637  0.20005597318782972  1.0000
  C   C75       1.0  0.7303529184379514  0.6386974829609358  0.45004817623969734  1.0000
  C   C76       1.0  0.3612518070887988  0.7304547627349436  0.6999958432108927  1.0000
  C   C77       1.0  0.26964786228273857  0.6387017301450654  0.5499500771620236  1.0000
  C   C78       1.0  0.3613175157341999  0.2695797776713107  0.7999696925603318  1.0000
  C   C79       1.0  0.7304138122998296  0.3612728085450456  0.0499538769511005  1.0000
  C   C80       1.0  0.6387510472855028  0.730448705409259  0.30000881833454685  1.0000
  C   C81       1.0  0.1751536793222854  0.3801926719134769  0.9946514040629924  1.0000
  C   C82       1.0  0.6197869365310851  0.17513667377519226  0.2446929557921891  1.0000
  C   C83       1.0  0.8247576332088827  0.6197879276528226  0.4946766976119577  1.0000
  C   C84       1.0  0.38017125300146404  0.8248808093787969  0.7446497001687007  1.0000
  C   C85       1.0  0.17524341976842814  0.6197856109426993  0.5053214037768968  1.0000
  C   C86       1.0  0.3801936217125855  0.17513582229393174  0.7553274953629129  1.0000
  C   C87       1.0  0.8248326060595377  0.3801827598605385  0.0053127726791402  1.0000
  C   C88       1.0  0.6198399318411206  0.8248785554056397  0.2553557202200025  1.0000
  N   N1        1.0  0.37155814461917197  0.4236390097207873  0.9720406505887385  1.0000
  N   N2        1.0  0.5762963804636029  0.3715995916544869  0.22212239295646438  1.0000
  N   N3        1.0  0.6283594952773158  0.5762736827365417  0.4721002738405957  1.0000
  N   N4        1.0  0.42364257537939654  0.6284178824182546  0.7220266055349711  1.0000
  N   N5        1.0  0.37163839303194385  0.5762635924658425  0.5278966677147778  1.0000
  N   N6        1.0  0.42370020100576505  0.3716036769589124  0.7779215098523977  1.0000
  N   N7        1.0  0.6284207277184919  0.42367568685993007  0.027901192728656106  1.0000
  N   N8        1.0  0.5763411253806011  0.6284045375750581  0.27798250179674977  1.0000
  N   N9        1.0  0.22330034647621494  0.47940765185543194  0.024846520777757102  1.0000
  N   N10       1.0  0.5206375186389282  0.22327046567937  0.2749238621491727  1.0000
  N   N11       1.0  0.7766304570433249  0.5205632505725575  0.5248812347663545  1.0000
  N   N12       1.0  0.47936716740895946  0.7767367453168318  0.7748322733258207  1.0000
  N   N13       1.0  0.2233585849813124  0.5205621756002827  0.4751180945382033  1.0000
  N   N14       1.0  0.4793534042452663  0.22327955362316487  0.7251075071272908  1.0000
  N   N15       1.0  0.7767217495396112  0.4793903203853417  0.9751087316515383  1.0000
  N   N16       1.0  0.5206442294727935  0.7767327514420116  0.2251739752573272  1.0000
  O   O1        1.0  0.28878729014249416  0.36718803619501733  0.19311225329256132  1.0000
  O   O2        1.0  0.6326000528237189  0.2887888807378189  0.443007025911669  1.0000
  O   O3        1.0  0.7113941411586425  0.6329685055185267  0.6930636997070821  1.0000
  O   O4        1.0  0.36732471857441595  0.7111279570657771  0.9430000499697543  1.0000
  O   O5        1.0  0.28861526666543114  0.6329249876067352  0.30697096200911034  1.0000
  O   O6        1.0  0.3673885744939014  0.2888115454260642  0.5570070477640314  1.0000
  O   O7        1.0  0.7113537125159155  0.3671187576241337  0.8068696389555825  1.0000
  O   O8        1.0  0.6328141475203068  0.7112549791977683  0.05692871031257601  1.0000
  O   O9        1.0  0.40757989096314157  0.41786998991713636  0.1225569587913995  1.0000
  O   O10       1.0  0.5824623190798448  0.4080544850283445  0.3724991655734087  1.0000
  O   O11       1.0  0.5926834421872016  0.5819610358981747  0.6226151848010703  1.0000
  O   O12       1.0  0.41778941785285884  0.5922519789219435  0.8724352417756905  1.0000
  O   O13       1.0  0.40735782054117914  0.5819558637413705  0.3773939534759307  1.0000
  O   O14       1.0  0.4175680512529781  0.4080215824148822  0.6275304477825969  1.0000
  O   O15       1.0  0.5926403211898901  0.41805009604428994  0.877363772899777  1.0000
  O   O16       1.0  0.5820847088795206  0.592523884770955  0.1274638084040447  1.0000
  O   O17       1.0  0.4016010635356436  0.7775622201502301  0.1280299221586247  1.0000
  O   O18       1.0  0.2222053081595092  0.4014538161247785  0.37824827103958114  1.0000
  O   O19       1.0  0.5978797516432977  0.222589978337993  0.627810893005325  1.0000
  O   O20       1.0  0.7776446509387255  0.5985089634177284  0.8780482489853939  1.0000
  O   O21       1.0  0.40219488842144807  0.22260295288084822  0.3722261404538614  1.0000
  O   O22       1.0  0.7777631470489439  0.4014552191978709  0.6217869609334343  1.0000
  O   O23       1.0  0.598183817290142  0.7774468962128579  0.8720370933329633  1.0000
  O   O24       1.0  0.22245795597241622  0.5982999452728633  0.1220707897214197  1.0000
  O   O25       1.0  0.40658858356274413  0.8309006125669923  0.039520576456418204  1.0000
  O   O26       1.0  0.1693475260840955  0.4063116984126438  0.2896694091143743  1.0000
  O   O27       1.0  0.5936286493928263  0.169046179152609  0.5393899443230623  1.0000
  O   O28       1.0  0.8309779504638614  0.5936617077177714  0.7895275091244899  1.0000
  O   O29       1.0  0.40628736484539735  0.16903543694556328  0.46063936982071857  1.0000
  O   O30       1.0  0.8307339142772675  0.4063465147134266  0.7103605948937712  1.0000
  O   O31       1.0  0.5935523728528338  0.8310337610862247  0.9604881315860538  1.0000
  O   O32       1.0  0.1688521325538659  0.5935664430090811  0.2105303317998235  1.0000
  O   O33       1.0  0.40465412371807463  0.5700677456540432  0.0370309149879091  1.0000
  O   O34       1.0  0.43009095638806377  0.40474007407879503  0.2871996499290077  1.0000
  O   O35       1.0  0.5954699695246789  0.4295782553842499  0.5370319455159134  1.0000
  O   O36       1.0  0.5699933084382708  0.5953143555505989  0.7870151342880831  1.0000
  O   O37       1.0  0.404480881970521  0.42952433863606376  0.462970298260224  1.0000
  O   O38       1.0  0.5698969961111258  0.4047436594590436  0.7128497850259521  1.0000
  O   O39       1.0  0.5954951822790805  0.5702072262211003  0.9629206095144768  1.0000
  O   O40       1.0  0.42989941598414566  0.5953907315134189  0.21302287225438482  1.0000
