data_image0
_chemical_formula_structural       Al2H18C48Cl12O12
_chemical_formula_sum              "Al2 H18 C48 Cl12 O12"
_cell_length_a       3.990510770038408
_cell_length_b       28.7969499116793
_cell_length_c       28.796958357008343
_cell_angle_alpha    120.00008409651248
_cell_angle_beta     89.99957976990162
_cell_angle_gamma    90.00042423449807

_space_group_name_H-M_alt    "P 1"
_space_group_IT_number       1

loop_
  _space_group_symop_operation_xyz
  'x, y, z'

loop_
  _atom_site_type_symbol
  _atom_site_label
  _atom_site_symmetry_multiplicity
  _atom_site_fract_x
  _atom_site_fract_y
  _atom_site_fract_z
  _atom_site_occupancy
  Al  Al1       1.0  6.53416585195e-05  0.5000001455398007  0.4999992457150809  1.0000
  Al  Al2       1.0  6.82155868503e-05  0.16666758837165926  0.8333323020110439  1.0000
  H   H1        1.0  0.5014541429234711  0.22993056336222403  0.6433051417138813  1.0000
  H   H2        1.0  0.49827893128750844  0.3754383395775066  0.7979600448317612  1.0000
  H   H3        1.0  0.4982734379341593  0.29121449595640314  0.535350291279876  1.0000
  H   H4        1.0  0.5014507961965082  0.43671372145961135  0.6900102725437164  1.0000
  H   H5        1.0  0.49998515019264994  0.3845460450487083  0.7220973027980194  1.0000
  H   H6        1.0  0.49997780989307467  0.282096105305115  0.6112063555401193  1.0000
  H   H7        1.0  0.5014485873316586  0.913376517824574  0.7700689839802948  1.0000
  H   H8        1.0  0.4982775136307325  0.9225229449475095  0.6245614796314101  1.0000
  H   H9        1.0  0.49827824887432837  0.7441372285931465  0.7087863465265087  1.0000
  H   H10       1.0  0.5014422039580994  0.7532972298580562  0.5632867981511255  1.0000
  H   H11       1.0  0.4999795842764385  0.8375520222856139  0.6154535607917353  1.0000
  H   H12       1.0  0.4999767452779765  0.8291129853042278  0.7179047107454933  1.0000
  H   H13       1.0  0.5014466089154936  0.3566938334575482  0.08662383546654699  1.0000
  H   H14       1.0  0.49828032753959667  0.20204037499592434  0.07747638629239618  1.0000
  H   H15       1.0  0.49827506188032084  0.464650482717289  0.25586141972213033  1.0000
  H   H16       1.0  0.5014413033367191  0.3099904573501817  0.2467017854797362  1.0000
  H   H17       1.0  0.4999841655066816  0.2779031930138061  0.1624474463639558  1.0000
  H   H18       1.0  0.49997429729764786  0.3887938667006452  0.1708869357442779  1.0000
  C   C1        1.0  0.5000500971625854  0.46254852825669707  0.417397751642234  1.0000
  C   C2        1.0  0.5000518391536133  0.454852144545896  0.5374519569294094  1.0000
  C   C3        1.0  0.5000549571047231  0.5826013358585344  0.5451485475891289  1.0000
  C   C4        1.0  0.5000689954038221  0.2118068604136315  0.7958709617796133  1.0000
  C   C5        1.0  0.5000708891405452  0.0840661606415907  0.7881908822530121  1.0000
  C   C6        1.0  0.5000657257477455  0.20412863108905557  0.9159340989156207  1.0000
  C   C7        1.0  0.5001357001020068  0.24480763483705215  0.7687395831812438  1.0000
  C   C8        1.0  0.4982946505619664  0.22084481073412127  0.7123639570215444  1.0000
  C   C9        1.0  0.49942877213088377  0.2510900701051498  0.686958815336979  1.0000
  C   C10       1.0  0.4997853072438972  0.3074076832096822  0.7170824061750521  1.0000
  C   C11       1.0  0.5003107537054063  0.3318449599540329  0.7732363847263029  1.0000
  C   C12       1.0  0.5017878239154571  0.30119243515171945  0.7983369100767135  1.0000
  C   C13       1.0  0.4998143713992392  0.341545318355017  0.6931132375025726  1.0000
  C   C14       1.0  0.4998077801316185  0.3250940931310994  0.6401896871070818  1.0000
  C   C15       1.0  0.5002987402321679  0.3348055392469649  0.5600728151442951  1.0000
  C   C16       1.0  0.4997641718470902  0.359238218738554  0.6162286128660099  1.0000
  C   C17       1.0  0.49942656014926007  0.41555770027175487  0.6463572804587868  1.0000
  C   C18       1.0  0.4982852837540008  0.4458029051177732  0.6209528878063962  1.0000
  C   C19       1.0  0.5001179494793959  0.42184342253085566  0.5645773927438924  1.0000
  C   C20       1.0  0.5017661551860044  0.36546068200374304  0.5349773115600058  1.0000
  C   C21       1.0  0.5001353273533624  0.0239330624632146  0.7551896987434219  1.0000
  C   C22       1.0  0.4982878802296399  0.9915210533513557  0.7791539437559435  1.0000
  C   C23       1.0  0.4994324265155115  0.935872139593215  0.7489103236455108  1.0000
  C   C24       1.0  0.499784019370601  0.9096762609333455  0.692590435010942  1.0000
  C   C25       1.0  0.5003067038106579  0.9413930574190489  0.6681536008265354  1.0000
  C   C26       1.0  0.5017808621514422  0.997146718429768  0.698807112023232  1.0000
  C   C27       1.0  0.4998084440591271  0.8515691594162789  0.658454323359642  1.0000
  C   C28       1.0  0.49980206508296726  0.815097183368387  0.6749060855746976  1.0000
  C   C29       1.0  0.5003036775186446  0.725269949350995  0.6651962537539616  1.0000
  C   C30       1.0  0.49976133543103174  0.7569917145333632  0.6407627850933862  1.0000
  C   C31       1.0  0.49942379355056227  0.7308002713460412  0.5844433226154422  1.0000
  C   C32       1.0  0.49828542406824283  0.6751508627520195  0.5541988082920355  1.0000
  C   C33       1.0  0.5001208278307985  0.6427354864045042  0.5781584019924464  1.0000
  C   C34       1.0  0.5017689926260333  0.6695181475102459  0.6345401888845075  1.0000
  C   C35       1.0  0.5001325524503741  0.23125965892508313  0.9760665679055832  1.0000
  C   C36       1.0  0.49828681897036375  0.2876365436864461  0.008479956246276345  1.0000
  C   C37       1.0  0.499428765917564  0.3130418962517538  0.06412840891832161  1.0000
  C   C38       1.0  0.4997806525571705  0.28291667519514613  0.09032402621858182  1.0000
  C   C39       1.0  0.5003062550350067  0.2267622552620097  0.05860653404390351  1.0000
  C   C40       1.0  0.5017805251592476  0.2016627638664303  0.0028529362627907  1.0000
  C   C41       1.0  0.4998023420391887  0.3068867823916719  0.14843074927402714  1.0000
  C   C42       1.0  0.4998027825794011  0.3598107318985272  0.1849024837383837  1.0000
  C   C43       1.0  0.5003012472629821  0.43992796308546633  0.27472982780051314  1.0000
  C   C44       1.0  0.4997618232518731  0.3837723686206047  0.2430079540029482  1.0000
  C   C45       1.0  0.49942708101568917  0.3536433811882205  0.2691990034504386  1.0000
  C   C46       1.0  0.49828611218449487  0.3790483856870567  0.3248471096587622  1.0000
  C   C47       1.0  0.5001210976564606  0.4354253838440841  0.3572643444199173  1.0000
  C   C48       1.0  0.5017664504518606  0.4650246237241974  0.3304813947214953  1.0000
  Cl  Cl1       1.0  0.4918633852709747  0.33474691932890016  0.8674559045913455  1.0000
  Cl  Cl2       1.0  0.5088539340059556  0.1519558430159621  0.6725079439529509  1.0000
  Cl  Cl3       1.0  0.5088586333125421  0.5146936952601564  0.6608147182618466  1.0000
  Cl  Cl4       1.0  0.4918435105805514  0.33191122799649264  0.4658581484091755  1.0000
  Cl  Cl5       1.0  0.49185570732172584  0.03271030638161686  0.6652517137283098  1.0000
  Cl  Cl6       1.0  0.508848541383827  0.020555043705265216  0.8480432381495858  1.0000
  Cl  Cl7       1.0  0.5088590140243241  0.646121673852889  0.4853078062851139  1.0000
  Cl  Cl8       1.0  0.4918486818877241  0.633948097998406  0.6680898629607341  1.0000
  Cl  Cl9       1.0  0.4918605974126536  0.13254381625798575  0.9672889346808657  1.0000
  Cl  Cl10      1.0  0.508848133299523  0.3274917090735204  0.9794472899204152  1.0000
  Cl  Cl11      1.0  0.5088594228481896  0.3391883314645909  0.35387820694185723  1.0000
  Cl  Cl12      1.0  0.4918488044870983  0.5341439162323525  0.3660510946580898  1.0000
  O   O1        1.0  0.736911010371699  0.5578593665836635  0.553052595203809  1.0000
  O   O2        1.0  0.7369122207796225  0.49519431646326245  0.4421400536398323  1.0000
  O   O3        1.0  0.7369093663130926  0.446947427596129  0.5048058143693552  1.0000
  O   O4        1.0  0.26316075536936984  0.5605625103465712  0.5116494865990974  1.0000
  O   O5        1.0  0.2631579287087861  0.4883503370985167  0.5489120537680066  1.0000
  O   O6        1.0  0.26315976152827864  0.45108876320887253  0.43943641572825237  1.0000
  O   O7        1.0  0.7369048670580227  0.1714788144465161  0.8911930496460841  1.0000
  O   O8        1.0  0.7369077214595805  0.21971651340678755  0.8285205048908112  1.0000
  O   O9        1.0  0.7369110891170649  0.10880637498201652  0.7802823412732991  1.0000
  O   O10       1.0  0.2631595703618714  0.2155839540868812  0.8938929293220068  1.0000
  O   O11       1.0  0.2631635881326631  0.106107571795775  0.8216880497516497  1.0000
  O   O12       1.0  0.2631639088758604  0.1783109705085694  0.784415505111312  1.0000
