data_image0
_chemical_formula_structural       Na2H54C40N12O22
_chemical_formula_sum              "Na2 H54 C40 N12 O22"
_cell_length_a       8.36759778565088
_cell_length_b       11.359315356794697
_cell_length_c       12.794788868195669
_cell_angle_alpha    87.31727359637081
_cell_angle_beta     88.35542753476585
_cell_angle_gamma    79.45268230146976

_space_group_name_H-M_alt    "P 1"
_space_group_IT_number       1

loop_
  _space_group_symop_operation_xyz
  'x, y, z'

loop_
  _atom_site_type_symbol
  _atom_site_label
  _atom_site_symmetry_multiplicity
  _atom_site_fract_x
  _atom_site_fract_y
  _atom_site_fract_z
  _atom_site_occupancy
  Na  Na1       1.0  0.21020769778971976  0.8033314849742865  0.7478523329094673  1.0000
  Na  Na2       1.0  0.7897920932858115  0.1966691112443471  0.252147607894635  1.0000
  H   H1        1.0  0.9115303734084536  0.9414197575655762  0.8244539511211074  1.0000
  H   H2        1.0  0.088468654817504  0.05857904816306098  0.17554529937966376  1.0000
  H   H3        1.0  0.11261643133953925  0.640444590800314  0.8916610526624494  1.0000
  H   H4        1.0  0.887380966596581  0.35955601067214377  0.10833815218163073  1.0000
  H   H5        1.0  0.4846172888369368  0.1347507578306164  0.3425751450754149  1.0000
  H   H6        1.0  0.5153834820496854  0.8652507326185983  0.6574255202478697  1.0000
  H   H7        1.0  0.2162351806591333  0.8052037246617374  0.470184885212099  1.0000
  H   H8        1.0  0.7837636310110981  0.1947959785224569  0.5298151125828667  1.0000
  H   H9        1.0  0.06241287744234108  0.8862355348555937  0.386749777344285  1.0000
  H   H10       1.0  0.9375845208995628  0.11376506781299871  0.6132502090098343  1.0000
  H   H11       1.0  0.2576393157211926  0.8291000745379975  0.33291198714648124  1.0000
  H   H12       1.0  0.7423594951374639  0.1708996262539202  0.6670864476284066  1.0000
  H   H13       1.0  0.41234343177614363  0.19589157944339064  0.6663228444255938  1.0000
  H   H14       1.0  0.5876544004887875  0.8041072307063647  0.3336772103602286  1.0000
  H   H15       1.0  0.20242262167319322  0.1924416911221485  0.6848140259032007  1.0000
  H   H16       1.0  0.7975759730355279  0.8075589083214753  0.31518593767590636  1.0000
  H   H17       1.0  0.34941288932310494  0.058578637662634506  0.7084132968078904  1.0000
  H   H18       1.0  0.650585706197191  0.9414219641732586  0.2915882297913016  1.0000
  H   H19       1.0  0.5449029006419579  0.5373831979615744  0.2500830452467042  1.0000
  H   H20       1.0  0.4550973243565934  0.46261560573822186  0.749916963989108  1.0000
  H   H21       1.0  0.3690560628568064  0.6535411144555852  0.24695851604592187  1.0000
  H   H22       1.0  0.6309429653691508  0.34645769127305215  0.7530407344548564  1.0000
  H   H23       1.0  0.464344287594777  0.6030670526402915  0.36871276895932686  1.0000
  H   H24       1.0  0.5356545236696705  0.3969326493477682  0.6312864473256001  1.0000
  H   H25       1.0  0.8612585705961706  0.41131503316712786  0.4288767130701316  1.0000
  H   H26       1.0  0.13873969559177365  0.5886819844637899  0.5711234101474006  1.0000
  H   H27       1.0  0.8809854953348764  0.5647964779419112  0.4013836442184982  1.0000
  H   H28       1.0  0.11901374985259139  0.43520143152731106  0.5986156404981244  1.0000
  H   H29       1.0  0.8220440012873241  0.4772493155696083  0.3011419325535911  1.0000
  H   H30       1.0  0.17795502693862633  0.5227494901590289  0.6988573179471871  1.0000
  H   H31       1.0  0.6343388691984585  0.113118960437788  0.8979800055928778  1.0000
  H   H32       1.0  0.3656633146106999  0.8868816293308799  0.1020198896612072  1.0000
  H   H33       1.0  0.7383636273074288  0.15251318586461346  0.009531393156827106  1.0000
  H   H34       1.0  0.2616371431734024  0.8474883033884596  0.9904684906564116  1.0000
  H   H35       1.0  0.6597666163822353  0.017116451657258808  0.013396038370551403  1.0000
  H   H36       1.0  0.3402343710601059  0.9828841413363991  0.9866038796585458  1.0000
  H   H37       1.0  0.1370862660221235  0.32064012533093234  0.8442702400014923  1.0000
  H   H38       1.0  0.8629133076861137  0.6793613659509817  0.1557288850767193  1.0000
  H   H39       1.0  0.9874166134785796  0.29754384918322785  0.9422414472887652  1.0000
  H   H40       1.0  0.012584590519487935  0.7024558463548658  0.0577577234461444  1.0000
  H   H41       1.0  0.057673315748317605  0.4365138252994499  0.9316416124505694  1.0000
  H   H42       1.0  0.9423264753272136  0.5634867709191836  0.0683583283535327  1.0000
  H   H43       1.0  0.004135120514959597  0.08370357178566223  0.9456426982678608  1.0000
  H   H44       1.0  0.9958639093341335  0.916295238727521  0.054359678273073114  1.0000
  H   H45       1.0  0.9764109691683132  0.12088980806491628  0.8089334330075104  1.0000
  H   H46       1.0  0.023588277236505868  0.8791081049927174  0.19106819623923602  1.0000
  H   H47       1.0  0.17391272571595104  0.059214118739696196  0.8563516449537688  1.0000
  H   H48       1.0  0.8260865206888685  0.9407837943179301  0.1436499842929848  1.0000
  H   H49       1.0  0.2997006197485205  0.5782724906817194  0.03316936429232701  1.0000
  H   H50       1.0  0.700298087331035  0.4217325892262949  0.9668319684525956  1.0000
  H   H51       1.0  0.45398036425622473  0.5989486005554738  0.9383902739405556  1.0000
  H   H52       1.0  0.5460171460507297  0.4010564813813888  0.06161030006934002  1.0000
  H   H53       1.0  0.3383827878725114  0.48421576305136677  0.9236057226390956  1.0000
  H   H54       1.0  0.6616161365743453  0.5157884217933669  0.0763964258317245  1.0000
  C   C1        1.0  0.3526387955843687  0.16053723640521156  0.3614247040844702  1.0000
  C   C2        1.0  0.6473631704517122  0.8394642472306088  0.6385735939336855  1.0000
  C   C3        1.0  0.2963476959063982  0.2733113113620007  0.2882338139079437  1.0000
  C   C4        1.0  0.703655137975723  0.7266865872361307  0.7117646209736179  1.0000
  C   C5        1.0  0.32016370732977617  0.2515795721686729  0.17158604969971245  1.0000
  C   C6        1.0  0.6798372805183563  0.7484210220211195  0.8284146498394237  1.0000
  C   C7        1.0  0.28309529031476194  0.0512560712164856  0.3386672286176237  1.0000
  C   C8        1.0  0.7169045036012704  0.9487445333751129  0.661338182756765  1.0000
  C   C9        1.0  0.3352296854056931  0.1970827882431224  0.4735515085015153  1.0000
  C   C10       1.0  0.6647716248061925  0.8029115353557045  0.5264494533235933  1.0000
  C   C11       1.0  0.26212962099775433  0.0040464008843344  0.5284265574271602  1.0000
  C   C12       1.0  0.7378704945406936  0.9959577651856364  0.4715654086381136  1.0000
  C   C13       1.0  0.4057395991633257  0.3647020691662419  0.307311284805408  1.0000
  C   C14       1.0  0.5942601927237804  0.6352985294446684  0.6926902190187789  1.0000
  C   C15       1.0  0.1172681442741705  0.3181266125238125  0.31797910834180954  1.0000
  C   C16       1.0  0.8827332774969816  0.6818721891471355  0.6820216596290294  1.0000
  C   C17       1.0  0.1650338244422969  0.523900076839027  0.3235061419446055  1.0000
  C   C18       1.0  0.8349682469960272  0.4760960324652502  0.6764923841436642  1.0000
  C   C19       1.0  0.4640094978808237  0.1786220269270871  0.133074649356729  1.0000
  C   C20       1.0  0.5359893129778399  0.8213776738648376  0.8669237854181518  1.0000
  C   C21       1.0  0.2007323730793685  0.3093788583701952  0.1018923938376162  1.0000
  C   C22       1.0  0.7992700264739411  0.690620831550646  0.8981051911022035  1.0000
  C   C23       1.0  0.3703719762206745  0.2298145826402944  0.9521420729358425  1.0000
  C   C24       1.0  0.6296311873995677  0.7701869013589545  0.047858546837424895  1.0000
  C   C25       1.0  0.19304413485520677  0.8671839323454619  0.40229870670462037  1.0000
  C   C26       1.0  0.8069554392588145  0.1328175601325938  0.5977011998836305  1.0000
  C   C27       1.0  0.31973266644715176  0.1406615501987147  0.6594816024333171  1.0000
  C   C28       1.0  0.6802663625903805  0.8593372579221994  0.3405192110875391  1.0000
  C   C29       1.0  0.43325762014519137  0.575787369803841  0.2917181314225702  1.0000
  C   C30       1.0  0.5667438008143864  0.42421142947483054  0.7082810735281913  1.0000
  C   C31       1.0  0.8971890176251163  0.4754539919264361  0.37036622587566376  1.0000
  C   C32       1.0  0.10281001100662479  0.5245448149983433  0.6296338061351464  1.0000
  C   C33       1.0  0.6396513263987914  0.11022478546642843  0.9831994432205349  1.0000
  C   C34       1.0  0.36034944408204694  0.8897767037866517  0.016800440592710703  1.0000
  C   C35       1.0  0.09357610642600632  0.33963863365122654  0.9240719657895227  1.0000
  C   C36       1.0  0.9064260769773613  0.6603619549213137  0.07592714795453052  1.0000
  C   C37       1.0  0.0440640801031904  0.0565916241497817  0.8661131086836066  1.0000
  C   C38       1.0  0.9559337533790996  0.9434071895883847  0.1338892906323395  1.0000
  C   C39       1.0  0.3324218388808689  0.5763535608385837  0.9488855542707244  1.0000
  C   C40       1.0  0.6675758887933796  0.42365062603499115  0.05111583546506181  1.0000
  N   N1        1.0  0.25010790436474656  0.9782245971171338  0.4239810812348281  1.0000
  N   N2        1.0  0.7498934128157303  0.0217795812776345  0.5760210216859747  1.0000
  N   N3        1.0  0.3143711299893539  0.10989478517507932  0.5495028953718801  1.0000
  N   N4        1.0  0.6856311653790713  0.8901102826657165  0.45049680602793535  1.0000
  N   N5        1.0  0.33000387853901  0.4843321253722123  0.3020394713685804  1.0000
  N   N6        1.0  0.669991777953797  0.5156657949680862  0.6979606631831176  1.0000
  N   N7        1.0  0.06897799610882063  0.43618899905892045  0.3422641439785751  1.0000
  N   N8        1.0  0.9310230963299874  0.563806218407052  0.6577352206105971  1.0000
  N   N9        1.0  0.48409423438315713  0.17404657754713782  0.023582659416447913  1.0000
  N   N10       1.0  0.515906536097674  0.825954911705942  0.9764172243967906  1.0000
  N   N11       1.0  0.22501465108549476  0.28913088204696175  0.9949585710227355  1.0000
  N   N12       1.0  0.7749873157621536  0.7108706039811281  0.005041290015498105  1.0000
  O   O1        1.0  0.2667280910535226  0.019687101091065504  0.2495350267048408  1.0000
  O   O2        1.0  0.7332721298871688  0.9803116906473547  0.7504571674305609  1.0000
  O   O3        1.0  0.34381116376791715  0.29916701978297777  0.4985545065149354  1.0000
  O   O4        1.0  0.6561964645789689  0.7008407266918583  0.5014488859124882  1.0000
  O   O5        1.0  0.2267851797057218  0.9361870308076167  0.5997889679323409  1.0000
  O   O6        1.0  0.7732050391477259  0.06380375316084753  0.40022095511670847  1.0000
  O   O7        1.0  0.5542951468875899  0.3365424100670609  0.3147269619447001  1.0000
  O   O8        1.0  0.4457052946666878  0.6634554961771714  0.6852722999969176  1.0000
  O   O9        1.0  0.02387525005283921  0.24573418034766803  0.3318957789586038  1.0000
  O   O10       1.0  0.9761261700951637  0.754264616538734  0.6681018629720796  1.0000
  O   O11       1.0  0.10785977596646038  0.6312662355661017  0.3292239215186541  1.0000
  O   O12       1.0  0.892138600969183  0.36873525774466026  0.6707744448245236  1.0000
  O   O13       1.0  0.5759382950062317  0.11959276742868499  0.1878694296359598  1.0000
  O   O14       1.0  0.42406432191437915  0.8804060274288759  0.8121289710297503  1.0000
  O   O15       1.0  0.07185708284357159  0.3792004307985693  0.1302027019548575  1.0000
  O   O16       1.0  0.9281433591164897  0.6207974766418048  0.8697973414967991  1.0000
  O   O17       1.0  0.3959521891082431  0.22732264676306357  0.8563331714783333  1.0000
  O   O18       1.0  0.6040509728888568  0.7726788324516392  0.14366432225476441  1.0000
  O   O19       1.0  0.022592387036951312  0.9365811033875886  0.8495113092113302  1.0000
  O   O20       1.0  0.9774090363573436  0.0634177030679055  0.15049258479967165  1.0000
  O   O21       1.0  0.2234054860664401  0.6615380868957104  0.8885399973256156  1.0000
  O   O22       1.0  0.7765926755308358  0.3384643074590202  0.11146146084187342  1.0000
