data_image0
_chemical_formula_structural       Li4H16C24N4O12
_chemical_formula_sum              "Li4 H16 C24 N4 O12"
_cell_length_a       8.707041806139424
_cell_length_b       9.022100266837874
_cell_length_c       10.323568575192455
_cell_angle_alpha    67.26565424108972
_cell_angle_beta     65.05229989987257
_cell_angle_gamma    61.15557513230485

_space_group_name_H-M_alt    "P 1"
_space_group_IT_number       1

loop_
  _space_group_symop_operation_xyz
  'x, y, z'

loop_
  _atom_site_type_symbol
  _atom_site_label
  _atom_site_symmetry_multiplicity
  _atom_site_fract_x
  _atom_site_fract_y
  _atom_site_fract_z
  _atom_site_occupancy
  Li  Li1       1.0  0.11970279978350402  0.8414148458710925  0.5556578201794622  1.0000
  Li  Li2       1.0  0.01678771507104686  0.6586015559756075  0.9443440012433229  1.0000
  Li  Li3       1.0  0.8802997263099146  0.15858467210911437  0.44434012587933586  1.0000
  Li  Li4       1.0  0.9832168135763553  0.3413966595596278  0.05565651874040628  1.0000
  H   H1        1.0  0.3127022504551817  0.34189413257108475  0.11371972865571674  1.0000
  H   H2        1.0  0.26828803980869526  0.15812601873594187  0.38628264066832674  1.0000
  H   H3        1.0  0.6873051902009525  0.6580988811561213  0.8862822506460404  1.0000
  H   H4        1.0  0.7317115799979207  0.8418734962409361  0.6137182114221814  1.0000
  H   H5        1.0  0.7170378313617722  0.35708622212151647  0.6065306001612213  1.0000
  H   H6        1.0  0.1806040447080409  0.14296184825916913  0.8934299381338063  1.0000
  H   H7        1.0  0.28296425003392073  0.6429119944957478  0.39346856663902946  1.0000
  H   H8        1.0  0.8193965438608402  0.857037667718821  0.10656994527946038  1.0000
  H   H9        1.0  0.4569434153270608  0.6242248032953199  0.6891158762154104  1.0000
  H   H10       1.0  0.27025734003304824  0.8758161038637198  0.8108636839982707  1.0000
  H   H11       1.0  0.5430580683592084  0.3757721105972038  0.31088593106468904  1.0000
  H   H12       1.0  0.7297422797735679  0.1241834111131581  0.1891371680922376  1.0000
  H   H13       1.0  0.5667559011710638  0.06058724784891469  0.048808690627680666  1.0000
  H   H14       1.0  0.1760960561649014  0.4394867236994955  0.45115454530885296  1.0000
  H   H15       1.0  0.43324968994277707  0.9394070696850676  0.9511892950107494  1.0000
  H   H16       1.0  0.8239045324039865  0.5605127922784945  0.5488453381044139  1.0000
  C   C1        1.0  0.410559912319762  0.333741292469199  0.005463214925747205  1.0000
  C   C2        1.0  0.249704641932027  0.1663218789179268  0.49452398223902344  1.0000
  C   C3        1.0  0.5894448487061514  0.6662543227030325  0.9945373581252496  1.0000
  C   C4        1.0  0.7502949778745893  0.833677636058951  0.505476869851485  1.0000
  C   C5        1.0  0.6655606742643488  0.18532762844710493  0.822493236791253  1.0000
  C   C6        1.0  0.17331407607946414  0.3147441378852562  0.6774823226465969  1.0000
  C   C7        1.0  0.33444148649815025  0.8146679864453718  0.17750740281466187  1.0000
  C   C8        1.0  0.826687852304531  0.6852540773702173  0.3225182638920502  1.0000
  C   C9        1.0  0.8203164303270614  0.021716384434746806  0.7795963822555407  1.0000
  C   C10       1.0  0.12173071481817775  0.47829764727639923  0.7203971998665536  1.0000
  C   C11       1.0  0.17968811265770085  0.9782805338229038  0.22040109925445248  1.0000
  C   C12       1.0  0.8782698737507035  0.5217018687015909  0.279602683546713  1.0000
  C   C13       1.0  0.6329653056908744  0.3459607931200068  0.7208455219934323  1.0000
  C   C14       1.0  0.19968337819335594  0.15410785947370437  0.7791247481548567  1.0000
  C   C15       1.0  0.3670355152565181  0.6540361224949863  0.2791544144871096  1.0000
  C   C16       1.0  0.8003180261260995  0.8458916561436071  0.22087558631957904  1.0000
  C   C17       1.0  0.49351227689313526  0.49546220255237483  0.7628030724017023  1.0000
  C   C18       1.0  0.25171899199828124  0.0045861586893707  0.737178365044862  1.0000
  C   C19       1.0  0.5064908526316361  0.504533413341214  0.23719659852698524  1.0000
  C   C20       1.0  0.7482806278083347  0.9954133562874999  0.2628224870456463  1.0000
  C   C21       1.0  0.5492982742140172  0.1826367418433819  0.9664414110889081  1.0000
  C   C22       1.0  0.19826646881516316  0.31746121908084035  0.5335410029716384  1.0000
  C   C23       1.0  0.45070322380961175  0.8173588747715642  0.03355735771744852  1.0000
  C   C24       1.0  0.8017333040031505  0.6825382972578212  0.4664584293804736  1.0000
  N   N1        1.0  0.3847594159710047  0.4890293629796219  0.9047520082771711  1.0000
  N   N2        1.0  0.2784828356325664  0.0110251697112886  0.5952327354673415  1.0000
  N   N3        1.0  0.6152451920432117  0.5109662508308261  0.09524998451222909  1.0000
  N   N4        1.0  0.7215173082385892  0.9889730449037444  0.40476836868738514  1.0000
  O   O1        1.0  0.9046695302698569  0.028395357862919496  0.6432954510180907  1.0000
  O   O2        1.0  0.07651008609244082  0.47157772274671567  0.856702282734119  1.0000
  O   O3        1.0  0.09533382591149607  0.9716028624790312  0.3566999076281263  1.0000
  O   O4        1.0  0.9234931027398546  0.5284217935110289  0.14329753412423693  1.0000
  O   O5        1.0  0.8571048126577459  0.8880567686536835  0.8818646086033154  1.0000
  O   O6        1.0  0.12721328578309973  0.6119509075702821  0.6181503485250486  1.0000
  O   O7        1.0  0.14290248360212135  0.11194015124551979  0.11813138661336355  1.0000
  O   O8        1.0  0.8727896113631604  0.3880473086863034  0.38184926933636376  1.0000
  O   O9        1.0  0.2537106684462677  0.6317539365107692  0.9437314999166304  1.0000
  O   O10       1.0  0.32916896818980507  0.8682762348076595  0.5562677010598732  1.0000
  O   O11       1.0  0.7462934948702157  0.3682403759367291  0.05627171361422261  1.0000
  O   O12       1.0  0.6708321444436154  0.1317219808084857  0.44373243441761206  1.0000
