data_image0
_chemical_formula_structural       Mn2H16C20N4Cl4
_chemical_formula_sum              "Mn2 H16 C20 N4 Cl4"
_cell_length_a       3.5476189520930173
_cell_length_b       11.421226137780888
_cell_length_c       11.761811489757791
_cell_angle_alpha    89.93549956317976
_cell_angle_beta     89.96973755655048
_cell_angle_gamma    89.94937058055689

_space_group_name_H-M_alt    "P 1"
_space_group_IT_number       1

loop_
  _space_group_symop_operation_xyz
  'x, y, z'

loop_
  _atom_site_type_symbol
  _atom_site_label
  _atom_site_symmetry_multiplicity
  _atom_site_fract_x
  _atom_site_fract_y
  _atom_site_fract_z
  _atom_site_occupancy
  Mn  Mn1       1.0  0.4990167058070226  0.24906661346527406  0.2500706148425067  1.0000
  Mn  Mn2       1.0  0.49983575139258807  0.7500003172327109  0.7499552309187222  1.0000
  H   H1        1.0  0.6827559842451905  0.052314372232409305  0.0824451767833949  1.0000
  H   H2        1.0  0.6800691812464023  0.949438814889362  0.582935595548328  1.0000
  H   H3        1.0  0.6801541646910392  0.550520326397276  0.9169529098523912  1.0000
  H   H4        1.0  0.31981303483853896  0.5508067357987727  0.5828993731093847  1.0000
  H   H5        1.0  0.31961090314092633  0.9492352931393171  0.9171206161838301  1.0000
  H   H6        1.0  0.3164615760406732  0.052293385761259976  0.4170425544791102  1.0000
  H   H7        1.0  0.31643107753865957  0.4478022499454469  0.0831868931578299  1.0000
  H   H8        1.0  0.6837844814640588  0.4477424495172924  0.4173781426979134  1.0000
  H   H9        1.0  0.6897246077798868  0.8372894076874786  0.07512089455232741  1.0000
  H   H10       1.0  0.6870751265705408  0.16741362399633886  0.5745980379900361  1.0000
  H   H11       1.0  0.686961628795842  0.3325070044981401  0.9254001690835878  1.0000
  H   H12       1.0  0.3132006813752568  0.33287259135663305  0.5746595882516559  1.0000
  H   H13       1.0  0.31309463969085266  0.167150242200762  0.9254454984880809  1.0000
  H   H14       1.0  0.3103670782443118  0.8373189207936061  0.4247874143988427  1.0000
  H   H15       1.0  0.3101944699284829  0.6629842738882559  0.07527535900688781  1.0000
  H   H16       1.0  0.6897661949317422  0.6629387856475333  0.4247703605390782  1.0000
  C   C1        1.0  0.5985586987248013  0.001997311329162699  0.15672814100481963  1.0000
  C   C2        1.0  0.5968778080442688  0.0018748478667589997  0.6561141741060937  1.0000
  C   C3        1.0  0.5970127560060445  0.49808455207693203  0.8438274186559696  1.0000
  C   C4        1.0  0.40314759000388983  0.49826593916333906  0.6560785124142756  1.0000
  C   C5        1.0  0.4029079660937995  0.0017428263452358994  0.8439165474492896  1.0000
  C   C6        1.0  0.40129333435963577  0.0020221574352205993  0.34284880058955747  1.0000
  C   C7        1.0  0.40136386183386447  0.49814346295275413  0.1572808393750336  1.0000
  C   C8        1.0  0.5993528426621992  0.49814016825284557  0.3431533186535206  1.0000
  C   C9        1.0  0.6010360032050384  0.8803387523596766  0.153427360553998  1.0000
  C   C10       1.0  0.599399446815248  0.1229817875954993  0.6522774016738566  1.0000
  C   C11       1.0  0.599390087000877  0.3769722852192601  0.8477253968241102  1.0000
  C   C12       1.0  0.4009294563612826  0.3771666927518565  0.6522889021554336  1.0000
  C   C13       1.0  0.40081888071912897  0.12284376328889114  0.8477639803109513  1.0000
  C   C14       1.0  0.3990853007948231  0.880342778517651  0.3463930690042858  1.0000
  C   C15       1.0  0.39906893940477756  0.6198744920428395  0.1536149477717075  1.0000
  C   C16       1.0  0.6015333947874806  0.6198440576540135  0.3464939981355855  1.0000
  C   C17       1.0  0.4999552437799934  0.8150692430261228  0.249951492199763  1.0000
  C   C18       1.0  0.5001911637567744  0.18597388961353536  0.7500232728259278  1.0000
  C   C19       1.0  0.5002229067334908  0.31400747617635005  0.7500249724383112  1.0000
  C   C20       1.0  0.500117762810241  0.6851023632474236  0.24999406731971166  1.0000
  N   N1        1.0  0.49994708748226185  0.0652451955351907  0.24969327283344  1.0000
  N   N2        1.0  0.4997663282041103  0.9415393048119964  0.7500143364991347  1.0000
  N   N3        1.0  0.5000743022801686  0.5584446632127608  0.7499233322755929  1.0000
  N   N4        1.0  0.5004257122101234  0.4350210297220228  0.25033310313745016  1.0000
  Cl  Cl1       1.0  6.093469504260019e-05  0.24858226834392372  0.11495176364383045  1.0000
  Cl  Cl2       1.0  1.6160948291600024e-05  0.7500926676808104  0.5965281927435415  1.0000
  Cl  Cl3       1.0  0.9997203693268303  0.7498458141571261  0.9033712183038602  1.0000
  Cl  Cl4       1.0  0.9994266829007828  0.2507415625407176  0.3852070298988508  1.0000
