data_image0
_chemical_formula_structural       H56Rh4C68N4O16
_chemical_formula_sum              "H56 Rh4 C68 N4 O16"
_cell_length_a       10.205136676533474
_cell_length_b       10.44005761670891
_cell_length_c       15.704091355922616
_cell_angle_alpha    79.46170175174824
_cell_angle_beta     81.01770113539177
_cell_angle_gamma    87.20867176909967

_space_group_name_H-M_alt    "P 1"
_space_group_IT_number       1

loop_
  _space_group_symop_operation_xyz
  'x, y, z'

loop_
  _atom_site_type_symbol
  _atom_site_label
  _atom_site_symmetry_multiplicity
  _atom_site_fract_x
  _atom_site_fract_y
  _atom_site_fract_z
  _atom_site_occupancy
  H   H1        1.0  0.3795122102894126  0.9520214215265385  0.4721751015138621  1.0000
  H   H2        1.0  0.6204869171050548  0.04797007336279081  0.5278171643599805  1.0000
  H   H3        1.0  0.2782862608919744  0.14750390069467306  0.5332182335836818  1.0000
  H   H4        1.0  0.7217147922092766  0.8524905063280389  0.4667753992286519  1.0000
  H   H5        1.0  0.19665065074600116  0.12585141974975042  0.6914571812573411  1.0000
  H   H6        1.0  0.8033572095077947  0.8741497932173063  0.3085368576078763  1.0000
  H   H7        1.0  0.22651395049940254  0.9173673348961204  0.7924843636124803  1.0000
  H   H8        1.0  0.7734918868746663  0.08263581902574657  0.20751155927425904  1.0000
  H   H9        1.0  0.32930314705232894  0.7245464285470791  0.7318637123931919  1.0000
  H   H10       1.0  0.6706958652148743  0.2754508713487382  0.2681361500408456  1.0000
  H   H11       1.0  0.23456478267260655  0.5163023913482264  0.27934714828751334  1.0000
  H   H12       1.0  0.7654252241915955  0.4836987849200228  0.7206588969923685  1.0000
  H   H13       1.0  0.04335328155431031  0.4492977429424557  0.2166255523057643  1.0000
  H   H14       1.0  0.9566389076478075  0.5506936771351434  0.7833833467903019  1.0000
  H   H15       1.0  0.8616007950727752  0.3220119921022047  0.3151191291906698  1.0000
  H   H16       1.0  0.13839032359452122  0.6779833203001788  0.684890687360209  1.0000
  H   H17       1.0  0.8686012981924947  0.26288188042475014  0.4747357760979867  1.0000
  H   H18       1.0  0.13138865149090861  0.7371221935107003  0.5252750231710052  1.0000
  H   H19       1.0  0.06124007592845261  0.32909760267734367  0.5365459086218393  1.0000
  H   H20       1.0  0.9387507661116248  0.6709113557595432  0.463461669536798  1.0000
  H   H21       1.0  0.03206218263333231  0.973526173989377  0.3055020182591051  1.0000
  H   H22       1.0  0.9679467099496791  0.02647307950570621  0.6944940600975968  1.0000
  H   H23       1.0  0.13552948841745402  0.0322760621942493  0.4267037632051468  1.0000
  H   H24       1.0  0.8644765468756219  0.967717340414936  0.5732945777123533  1.0000
  H   H25       1.0  0.337869969916369  0.16800911750824102  0.39163549380492657  1.0000
  H   H26       1.0  0.6621299357283945  0.8319930539929176  0.6083636960761251  1.0000
  H   H27       1.0  0.435742964833665  0.24448487101939517  0.23762078050192767  1.0000
  H   H28       1.0  0.5642527755856079  0.7555270422062534  0.7623789426135515  1.0000
  H   H29       1.0  0.3316383898142946  0.18574167637516584  0.11628812212561707  1.0000
  H   H30       1.0  0.6683592155578567  0.8142760917873775  0.8837088019666837  1.0000
  H   H31       1.0  0.06489540318959541  0.5374992894455417  0.052468358581130296  1.0000
  H   H32       1.0  0.935106326395001  0.4625107053095762  0.9475239806902706  1.0000
  H   H33       1.0  0.18773877471607392  0.33164594576231116  0.02615179163442599  1.0000
  H   H34       1.0  0.8122619420249466  0.6683650372023423  0.9738379853813581  1.0000
  H   H35       1.0  0.4102732269925158  0.3432537047117706  0.9348811041766466  1.0000
  H   H36       1.0  0.5897304472740502  0.656758237362318  0.0651108049904323  1.0000
  H   H37       1.0  0.5087464932339429  0.5580741463769243  0.8675161552850311  1.0000
  H   H38       1.0  0.4912561897164453  0.4419377868520799  0.132477765977029  1.0000
  H   H39       1.0  0.3828288546931234  0.7631464794536812  0.8915631668154872  1.0000
  H   H40       1.0  0.6171690065445007  0.23685863005690774  0.10843333273648169  1.0000
  H   H41       1.0  0.20395003059200437  0.4304775354896294  0.6814337932672883  1.0000
  H   H42       1.0  0.7960520984037134  0.5695129115038213  0.31857230201641323  1.0000
  H   H43       1.0  0.06969291549354041  0.3028422673397131  0.8159891144026401  1.0000
  H   H44       1.0  0.9303091160739997  0.6971530359659327  0.18401959470173065  1.0000
  H   H45       1.0  0.36480419775893586  0.038390999427420504  0.9562087716922816  1.0000
  H   H46       1.0  0.6352069186854692  0.9615965231119077  0.043795486345750645  1.0000
  H   H47       1.0  0.52202057003624  0.10558611945167234  0.9054511805344843  1.0000
  H   H48       1.0  0.47798655731906353  0.8944023937781085  0.094550817278801  1.0000
  H   H49       1.0  0.45880398691784313  0.9774756336471453  0.8660786635673643  1.0000
  H   H50       1.0  0.5412021086186841  0.0225148326065607  0.13392256903311758  1.0000
  H   H51       1.0  0.6147218051951527  0.23910965150266614  0.6612382998711154  1.0000
  H   H52       1.0  0.3852662921300407  0.7608876832820642  0.33875757289469977  1.0000
  H   H53       1.0  0.5908126953277348  0.08631356779761032  0.7338113581651553  1.0000
  H   H54       1.0  0.4091913147886147  0.9136818047825914  0.26618313251979214  1.0000
  H   H55       1.0  0.6402777927940023  0.22261256495883688  0.7721420374917398  1.0000
  H   H56       1.0  0.3597290746122824  0.777388658507256  0.22785019063241654  1.0000
  Rh  Rh1       1.0  0.4618447134600104  0.43392050124974474  0.5707547448877718  1.0000
  Rh  Rh2       1.0  0.5381553296050896  0.566074858518242  0.42924333420170036  1.0000
  Rh  Rh3       1.0  0.08434279750991182  0.06389572120212961  0.9489292259058569  1.0000
  Rh  Rh4       1.0  0.9156570699292389  0.9361083831518472  0.05107292092148444  1.0000
  C   C1        1.0  0.4094213046375614  0.7094581707772321  0.5621141694561587  1.0000
  C   C2        1.0  0.5905758221702443  0.2905342583402231  0.4378864662078215  1.0000
  C   C3        1.0  0.3582182478812257  0.8270472774579716  0.5983114706778707  1.0000
  C   C4        1.0  0.641777846852591  0.17294710790743303  0.4016877626339692  1.0000
  C   C5        1.0  0.34536154663841506  0.9462205608171746  0.5419825837138956  1.0000
  C   C6        1.0  0.6546345460536289  0.05377385034040572  0.4580115524832137  1.0000
  C   C7        1.0  0.28834836739485337  0.05382871722417799  0.5758663138429156  1.0000
  C   C8        1.0  0.7116486784077553  0.9461676356313121  0.42412876720550224  1.0000
  C   C9        1.0  0.2442678739542288  0.04253045855806901  0.6656088706952443  1.0000
  C   C10       1.0  0.755733993816371  0.9574727147918126  0.3343842692026087  1.0000
  C   C11       1.0  0.26025186910049314  0.9250797074591119  0.7224446728107876  1.0000
  C   C12       1.0  0.7397490476013078  0.074921498400677  0.27755261935048736  1.0000
  C   C13       1.0  0.31744780472625683  0.8175549336853296  0.6888380814881144  1.0000
  C   C14       1.0  0.6825492231220524  0.18244237108846315  0.3111613451604922  1.0000
  C   C15       1.0  0.27685086910756246  0.4602859258483392  0.44628628047312446  1.0000
  C   C16       1.0  0.7231451087124301  0.5397142870917051  0.5537160894235311  1.0000
  C   C17       1.0  0.15869799849617292  0.42632677133568125  0.41131998521375823  1.0000
  C   C18       1.0  0.8412890331433972  0.5736743945174042  0.5886889106543547  1.0000
  C   C19       1.0  0.15329694219001772  0.4615522032177142  0.3212996942759502  1.0000
  C   C20       1.0  0.8466971317058312  0.5384440973103112  0.6787065201721487  1.0000
  C   C21       1.0  0.04667548646885681  0.4238081191972541  0.2868124824337243  1.0000
  C   C22       1.0  0.9533095607518123  0.5761930515337994  0.7131959776489578  1.0000
  C   C23       1.0  0.9447843685798323  0.35197274010892693  0.34200293019890887  1.0000
  C   C24       1.0  0.0552057387752072  0.6480235411588496  0.6580081469324027  1.0000
  C   C25       1.0  0.9489032525766845  0.3182854418215443  0.43190545400210567  1.0000
  C   C26       1.0  0.05109171673849031  0.6817157045196468  0.568105185007731  1.0000
  C   C27       1.0  0.0558663980742153  0.35482877303911664  0.4667079034412181  1.0000
  C   C28       1.0  0.9441224218517874  0.6451821166805091  0.5333034701569659  1.0000
  C   C29       1.0  0.11462248646228802  0.042122054326071606  0.13102601163322444  1.0000
  C   C30       1.0  0.8853774196929155  0.9578801107270395  0.8689744525265083  1.0000
  C   C31       1.0  0.17643478798409973  0.07504280772387521  0.20375291292388906  1.0000
  C   C32       1.0  0.8235660902568611  0.9249603342127485  0.7962466990443386  1.0000
  C   C33       1.0  0.12105077679682104  0.031852129827378006  0.2912600808977785  1.0000
  C   C34       1.0  0.8789521050934682  0.9681500391928568  0.7087388069524037  1.0000
  C   C35       1.0  0.17894262631703137  0.06531724348905502  0.3586866156005825  1.0000
  C   C36       1.0  0.8210643423457571  0.9346790753045013  0.6413125557930214  1.0000
  C   C37       1.0  0.29216434318571777  0.1415687680319806  0.3392188559049813  1.0000
  C   C38       1.0  0.707841474957931  0.8584353539283003  0.6607782268852417  1.0000
  C   C39       1.0  0.3475167635101003  0.1849541036698241  0.2521284806823657  1.0000
  C   C40       1.0  0.6524810205506456  0.8150548812184585  0.7478720213441646  1.0000
  C   C41       1.0  0.28998753169162234  0.15214789046881805  0.18449536084765578  1.0000
  C   C42       1.0  0.7100112439405211  0.8478611000405322  0.8155037662232372  1.0000
  C   C43       1.0  0.14022285807917712  0.7842149574441708  0.9860794791405989  1.0000
  C   C44       1.0  0.8597769273338972  0.21579308354392884  0.013914564513818608  1.0000
  C   C45       1.0  0.21672510052529503  0.6622795049238521  0.9737343049023436  1.0000
  C   C46       1.0  0.7832708355159995  0.3377226860053213  0.02626210198981482  1.0000
  C   C47       1.0  0.16241622808808395  0.5406448683669255  0.012465439627106884  1.0000
  C   C48       1.0  0.8375826436961308  0.4593592819503415  0.9875278879264043  1.0000
  C   C49       1.0  0.2313646361632778  0.4261170521419118  0.9979712530644277  1.0000
  C   C50       1.0  0.7686351472080307  0.5738910146383632  0.0020176934752526915  1.0000
  C   C51       1.0  0.35590920925839953  0.4327588262296518  0.9457768117920294  1.0000
  C   C52       1.0  0.6440934911358556  0.5672521615290905  0.054211489591168054  1.0000
  C   C53       1.0  0.41118698521214014  0.5535573817762369  0.9077141425031812  1.0000
  C   C54       1.0  0.5888197650251215  0.44644967248852657  0.0922805850664403  1.0000
  C   C55       1.0  0.3417669544693781  0.668120461788476  0.9212716935460391  1.0000
  C   C56       1.0  0.6582329311793061  0.3318826874231675  0.07872674482045737  1.0000
  C   C57       1.0  0.2486540612781241  0.3524582864023459  0.724326154056527  1.0000
  C   C58       1.0  0.7513450922377276  0.6475321533999648  0.2756821546760618  1.0000
  C   C59       1.0  0.17531618295693366  0.28335832265186417  0.7983573242460407  1.0000
  C   C60       1.0  0.8246869399071673  0.7166321009464557  0.20165313033609059  1.0000
  C   C61       1.0  0.36217494150871243  0.16304048458066944  0.8318924183250329  1.0000
  C   C62       1.0  0.6378341910272385  0.8369470363885797  0.16811267820625625  1.0000
  C   C63       1.0  0.43573146364584414  0.22867118889070073  0.7534342104952713  1.0000
  C   C64       1.0  0.5642726482374486  0.77131927256891  0.24656849773780445  1.0000
  C   C65       1.0  0.42983953744150244  0.0658016783671229  0.8938894012611767  1.0000
  C   C66       1.0  0.5701696153457476  0.9341848616676245  0.10611708392400487  1.0000
  C   C67       1.0  0.5781051064006848  0.19243505222853236  0.7282268925857734  1.0000
  C   C68       1.0  0.42189991732491466  0.8075593224700698  0.2717720717728085  1.0000
  N   N1        1.0  0.3776359054087807  0.3226844760110127  0.6998659544571666  1.0000
  N   N2        1.0  0.6223640997059334  0.6773128133857682  0.3001357187179393  1.0000
  N   N3        1.0  0.230734526301184  0.1865205638655567  0.8515261916074977  1.0000
  N   N4        1.0  0.7692734754564869  0.8134737857839626  0.14847693069561524  1.0000
  O   O1        1.0  0.4633722707445003  0.7255473190395776  0.4816048764045959  1.0000
  O   O2        1.0  0.5366318014018532  0.2744450946169863  0.5183969659387271  1.0000
  O   O3        1.0  0.3933244964300187  0.5997558411652125  0.6146105532688464  1.0000
  O   O4        1.0  0.606667668437261  0.4002366114312537  0.3853867629438596  1.0000
  O   O5        1.0  0.3610231466324479  0.534758839769978  0.3930364270143229  1.0000
  O   O6        1.0  0.6389767605436348  0.46524331238704525  0.6069665857027714  1.0000
  O   O7        1.0  0.2879872018208546  0.4104854074255968  0.525921732721059  1.0000
  O   O8        1.0  0.7120128822572839  0.5895079840253318  0.4740803979548787  1.0000
  O   O9        1.0  0.012497471609080402  0.9697939821213952  0.1502365048828905  1.0000
  O   O10       1.0  0.9875054092603155  0.03020819979493441  0.8497598344099301  1.0000
  O   O11       1.0  0.16890619914382657  0.09099945682937968  0.053004946988252796  1.0000
  O   O12       1.0  0.8310935695910475  0.9090095199569107  0.9469966279630525  1.0000
  O   O13       1.0  0.0301926446880287  0.772938162613386  0.038767078881825505  1.0000
  O   O14       1.0  0.9698081138316965  0.2270708423621315  0.9612286611384488  1.0000
  O   O15       1.0  0.18875809768037047  0.8917941255576525  0.9422901570991512  1.0000
  O   O16       1.0  0.8112466506941164  0.10821387905534861  0.057709754563901955  1.0000
