data_image0
_chemical_formula_structural       Ag8H24C40N16
_chemical_formula_sum              "Ag8 H24 C40 N16"
_cell_length_a       6.953288230381708
_cell_length_b       9.775544469188933
_cell_length_c       16.719389830919354
_cell_angle_alpha    84.66981149563911
_cell_angle_beta     83.00988855888421
_cell_angle_gamma    73.92789706778414

_space_group_name_H-M_alt    "P 1"
_space_group_IT_number       1

loop_
  _space_group_symop_operation_xyz
  'x, y, z'

loop_
  _atom_site_type_symbol
  _atom_site_label
  _atom_site_symmetry_multiplicity
  _atom_site_fract_x
  _atom_site_fract_y
  _atom_site_fract_z
  _atom_site_occupancy
  Ag  Ag1       1.0  0.7365510826115266  0.007839935642913104  0.9223807281188954  1.0000
  Ag  Ag2       1.0  0.26345187126609904  0.9921607814454417  0.0776179491132467  1.0000
  Ag  Ag3       1.0  0.3785990249532885  0.35031783790032733  0.15423763393729217  1.0000
  Ag  Ag4       1.0  0.621406152778803  0.649680735949474  0.8457628427889504  1.0000
  Ag  Ag5       1.0  0.11654956034994497  0.6102575566654806  0.4242800484195471  1.0000
  Ag  Ag6       1.0  0.8834496885332256  0.3897452826831299  0.5757180931474579  1.0000
  Ag  Ag7       1.0  0.5139695115809316  0.27869634729557186  0.6491248943964295  1.0000
  Ag  Ag8       1.0  0.4860174704288055  0.7213042508710004  0.3508768979326505  1.0000
  H   H1        1.0  0.3841797072817739  0.37826611152687667  0.8197875264607504  1.0000
  H   H2        1.0  0.6158229394500552  0.6217388493472527  0.1802139480389826  1.0000
  H   H3        1.0  0.39849487503035147  0.3718526896460618  0.9683859914004245  1.0000
  H   H4        1.0  0.6014993345282348  0.6281479512789474  0.0316154745736483  1.0000
  H   H5        1.0  0.9543510465232927  0.7937400452220088  0.8270505010777498  1.0000
  H   H6        1.0  0.045641283815413665  0.20626164751316617  0.17295159598222654  1.0000
  H   H7        1.0  0.8606866072415611  0.8936993066204549  0.095542000399611  1.0000
  H   H8        1.0  0.13932986305309913  0.10630359185522315  0.9044595528682465  1.0000
  H   H9        1.0  0.09290013084010704  0.6829855190839565  0.1668269019731028  1.0000
  H   H10       1.0  0.9071046309969757  0.3170141213409963  0.8331735412890567  1.0000
  H   H11       1.0  0.16082046245653453  0.5858222855858415  0.7494364992212895  1.0000
  H   H12       1.0  0.8391782458258915  0.4141815768447615  0.2505658038345047  1.0000
  H   H13       1.0  0.9255420892596713  0.8342965980285301  0.3251893887802524  1.0000
  H   H14       1.0  0.07445762896382746  0.16570519338484496  0.6748069884138915  1.0000
  H   H15       1.0  0.9521435224803905  0.7117610197634433  0.5977696729203358  1.0000
  H   H16       1.0  0.04786051688773093  0.28823330174888884  0.4022280718093114  1.0000
  H   H17       1.0  0.7537956018254731  0.9342224507250876  0.668236670275256  1.0000
  H   H18       1.0  0.24620408319823636  0.06577183891888441  0.3317618695463764  1.0000
  H   H19       1.0  0.5467894189196086  0.2768178197617956  0.4637775716674568  1.0000
  H   H20       1.0  0.45321182036308005  0.7231796556444792  0.5362237336148397  1.0000
  H   H21       1.0  0.5806058460423742  0.2770665966296164  0.313939452056303  1.0000
  H   H22       1.0  0.4193916882458666  0.7229330010369139  0.6860613175608634  1.0000
  H   H23       1.0  0.7668557051116166  0.057643528547764306  0.2444840702102198  1.0000
  H   H24       1.0  0.23313673211772099  0.9423582014672575  0.7555144311758681  1.0000
  C   C1        1.0  0.32907644691471194  0.43308699620763486  0.584577625111514  1.0000
  C   C2        1.0  0.6709022755009996  0.5669199734164608  0.4154236282381234  1.0000
  C   C3        1.0  0.20935610690963094  0.5233376729853988  0.31604689696077065  1.0000
  C   C4        1.0  0.7906522131120607  0.47666414488485753  0.6839514857232913  1.0000
  C   C5        1.0  0.6853331162561316  0.09756966572826542  0.8100856033498189  1.0000
  C   C6        1.0  0.31466508519716974  0.9024320922801934  0.18991323623124862  1.0000
  C   C7        1.0  0.5354835454780228  0.19031841924537926  0.08521336122154112  1.0000
  C   C8        1.0  0.46452368962501117  0.8096791649273383  0.9147804916289816  1.0000
  C   C9        1.0  0.29269219134021524  0.4668873690881485  0.8544654021944497  1.0000
  C   C10       1.0  0.7073065525724117  0.5331165057690797  0.1455357023033841  1.0000
  C   C11       1.0  0.3017322082585564  0.4624540188119042  0.9367852934309654  1.0000
  C   C12       1.0  0.6982644407943397  0.5375476933650134  0.0632172070949863  1.0000
  C   C13       1.0  0.05025277319907671  0.6996683671414203  0.8567671997476722  1.0000
  C   C14       1.0  0.9497453035484893  0.3003333473738792  0.1432358347862603  1.0000
  C   C15       1.0  0.18453557409699775  0.5778777799793389  0.9818873196290312  1.0000
  C   C16       1.0  0.8154637859658037  0.422120747237102  0.018114616739175894  1.0000
  C   C17       1.0  0.9554573087909758  0.8041182257764916  0.0622304579394068  1.0000
  C   C18       1.0  0.044552385480059783  0.19588357579222299  0.9377702565895732  1.0000
  C   C19       1.0  0.056500017436064705  0.6980989560851043  0.9411193876896676  1.0000
  C   C20       1.0  0.9434999207162775  0.30190170040672365  0.0588836150373382  1.0000
  C   C21       1.0  0.08384865605803773  0.6855655952719318  0.1019284506731708  1.0000
  C   C22       1.0  0.9161570997635944  0.31443510785324963  0.8980730924118703  1.0000
  C   C23       1.0  0.166433744389586  0.5856906691630215  0.8143306685999008  1.0000
  C   C24       1.0  0.8335695897528339  0.4143089689235566  0.18566924065427767  1.0000
  C   C25       1.0  0.8402643017107888  0.9314927345126945  0.35416826137452523  1.0000
  C   C26       1.0  0.15973288794285878  0.0685079545822234  0.6458300776626373  1.0000
  C   C27       1.0  0.711909946824754  0.05517853198072231  0.4795717479438225  1.0000
  C   C28       1.0  0.2880874074538508  0.9448178636219569  0.5204285880575911  1.0000
  C   C29       1.0  0.8213085559217034  0.9289417480525164  0.43945988540341574  1.0000
  C   C30       1.0  0.1786933683411647  0.0710578939089928  0.5605388905638051  1.0000
  C   C31       1.0  0.8823585373748484  0.8096936314925146  0.5633908257887725  1.0000
  C   C32       1.0  0.1176423750883657  0.19030494155546052  0.4366074496345504  1.0000
  C   C33       1.0  0.7721970114159614  0.9342208044244131  0.602434293411676  1.0000
  C   C34       1.0  0.22780511310206455  0.06577455647146728  0.3975652809618353  1.0000
  C   C35       1.0  0.627136951845216  0.1810223324863784  0.4328069853379262  1.0000
  C   C36       1.0  0.3728653348673345  0.818976224260048  0.5671936219303148  1.0000
  C   C37       1.0  0.6481747423852651  0.18039984000387227  0.34967783148446324  1.0000
  C   C38       1.0  0.35181993651364246  0.8195997529859012  0.6503218701167484  1.0000
  C   C39       1.0  0.7541812001913114  0.0553423208558499  0.3102293820251489  1.0000
  C   C40       1.0  0.24581346089249226  0.944657265920611  0.6897709188550395  1.0000
  N   N1        1.0  0.22386031536646556  0.5184190787297709  0.543582886081289  1.0000
  N   N2        1.0  0.7761354865117339  0.48157727104136683  0.45642111086501563  1.0000
  N   N3        1.0  0.6378413791537767  0.1545367417284567  0.7478603049858991  1.0000
  N   N4        1.0  0.3621621908740238  0.8454586277191112  0.25213920411660956  1.0000
  N   N5        1.0  0.6258961748963898  0.10290125482013221  0.04096780782462161  1.0000
  N   N6        1.0  0.3741047197517131  0.8970973120145374  0.9590310668776783  1.0000
  N   N7        1.0  0.9410241332979081  0.8102360071965435  0.9837342712226941  1.0000
  N   N8        1.0  0.058977085739257945  0.18976895133921803  0.016266669269057798  1.0000
  N   N9        1.0  0.19504662800589748  0.5744023814101312  0.06321006459617  1.0000
  N   N10       1.0  0.8049532013972324  0.42559509787107436  0.9367901073991688  1.0000
  N   N11       1.0  0.2621041991894087  0.463851300035664  0.256157290878896  1.0000
  N   N12       1.0  0.737906796211966  0.5361473204474977  0.7438417262053748  1.0000
  N   N13       1.0  0.9089173932659802  0.8074724404381258  0.4837577191768361  1.0000
  N   N14       1.0  0.09108310330221762  0.19252719918500824  0.5162405227824038  1.0000
  N   N15       1.0  0.6915764004431535  0.0549753064547929  0.561902718894018  1.0000
  N   N16       1.0  0.30842673587452635  0.9450211233546213  0.4380973560233982  1.0000
