data_image0
_chemical_formula_structural       Cu2H16C26S2N14
_chemical_formula_sum              "Cu2 H16 C26 S2 N14"
_cell_length_a       5.641698620405563
_cell_length_b       5.751751686589944
_cell_length_c       20.288782008403416
_cell_angle_alpha    89.98824042415796
_cell_angle_beta     90.00596953813171
_cell_angle_gamma    98.986516278412

_space_group_name_H-M_alt    "P 1"
_space_group_IT_number       1

loop_
  _space_group_symop_operation_xyz
  'x, y, z'

loop_
  _atom_site_type_symbol
  _atom_site_label
  _atom_site_symmetry_multiplicity
  _atom_site_fract_x
  _atom_site_fract_y
  _atom_site_fract_z
  _atom_site_occupancy
  Cu  Cu1       1.0  0.7261101937704809  0.15098233252599869  0.749952721499419  1.0000
  Cu  Cu2       1.0  0.27390133311789105  0.8489750067765838  0.25000520654113256  1.0000
  H   H1        1.0  0.1396398761151119  0.4377589021598567  0.808293268303615  1.0000
  H   H2        1.0  0.8603702295109343  0.5624825671164331  0.3083020261878319  1.0000
  H   H3        1.0  0.8604562505902822  0.5623541993771752  0.19167254473908465  1.0000
  H   H4        1.0  0.13965066621452854  0.4374046216261577  0.6916963178378241  1.0000
  H   H5        1.0  0.753850232431603  0.7894594885004763  0.8597920125934737  1.0000
  H   H6        1.0  0.24650421673368336  0.21043938896026765  0.3598794500904604  1.0000
  H   H7        1.0  0.2461824579720471  0.21065621827796122  0.14017971632438997  1.0000
  H   H8        1.0  0.7534732702877137  0.7894419278205616  0.6400967150359165  1.0000
  H   H9        1.0  0.409499120783515  0.0476707057604386  0.9644708188610169  1.0000
  H   H10       1.0  0.5901300292048859  0.9527590525062024  0.4643093264187004  1.0000
  H   H11       1.0  0.5904079930456164  0.9524712871616858  0.035540836201029415  1.0000
  H   H12       1.0  0.4099854830323011  0.0470346143068312  0.5357235172065274  1.0000
  H   H13       1.0  0.4584826995253266  0.4002846741519619  0.8919990379124275  1.0000
  H   H14       1.0  0.5412342756105205  0.600199752930159  0.3918961098076822  1.0000
  H   H15       1.0  0.5414736457137437  0.5998668077185414  0.10800423718555414  1.0000
  H   H16       1.0  0.45882745287833865  0.3996265263090494  0.6081268773446027  1.0000
  C   C1        1.0  0.07368513519678996  0.8916175827087257  0.919040178989967  1.0000
  C   C2        1.0  0.9262808308941857  0.108627207357884  0.4189991711069895  1.0000
  C   C3        1.0  0.9262029800083341  0.1085768281048942  0.08097640547238433  1.0000
  C   C4        1.0  0.07370327059769721  0.8912629705116188  0.5809986807811216  1.0000
  C   C5        1.0  0.03414332888250021  0.6832516844862085  0.9619185955527317  1.0000
  C   C6        1.0  0.9657515079805494  0.3168551150558585  0.46189032303455957  1.0000
  C   C7        1.0  0.965730807080341  0.3169074010271729  0.038095524645633816  1.0000
  C   C8        1.0  0.0342368918163132  0.6829912003956623  0.5381272439389806  1.0000
  C   C9        1.0  0.1282971211470709  0.282123978574269  0.8395599682526086  1.0000
  C   C10       1.0  0.871664747434508  0.71805396137502  0.3395664361704221  1.0000
  C   C11       1.0  0.8717147814311159  0.7180072242827858  0.16043394088141133  1.0000
  C   C12       1.0  0.12832416726951834  0.2818204761022828  0.6604333870978325  1.0000
  C   C13       1.0  0.9099470847462356  0.9224082518721916  0.8689929814579218  1.0000
  C   C14       1.0  0.0901945058430869  0.07763114443739741  0.36902458544491173  1.0000
  C   C15       1.0  0.09002572955911599  0.0777101009022303  0.13099895687771831  1.0000
  C   C16       1.0  0.9097933876350696  0.9222485600350722  0.6309574940665288  1.0000
  C   C17       1.0  0.2758456956983721  0.0655070533091973  0.927126804767184  1.0000
  C   C18       1.0  0.7240366739747587  0.934862321583964  0.4270382079734889  1.0000
  C   C19       1.0  0.7240812647137318  0.9347230410525427  0.072886328865053  1.0000
  C   C20       1.0  0.2760349547764989  0.0649711252657568  0.5729833003571585  1.0000
  C   C21       1.0  0.3031081073541486  0.26305079804095033  0.8867721566632486  1.0000
  C   C22       1.0  0.6967723531997834  0.7373097105792894  0.38672167261397317  1.0000
  C   C23       1.0  0.6968987350099668  0.737106679383082  0.11322076689991434  1.0000
  C   C24       1.0  0.30326984002321206  0.262528588651854  0.6132963861394813  1.0000
  C   C25       1.0  0.5459056753734899  0.628158014683045  0.750011268816387  1.0000
  C   C26       1.0  0.45420713391472844  0.3718253363537728  0.2499757374050945  1.0000
  S   S1        1.0  0.40285767739509026  0.8543996017779277  0.7500489488484805  1.0000
  S   S2        1.0  0.5971993066487826  0.1455653720717791  0.24996418123296146  1.0000
  N   N1        1.0  0.9364344235034425  0.11330889880331088  0.829881722242796  1.0000
  N   N2        1.0  0.06366544705348076  0.8867421876572903  0.3299211920672677  1.0000
  N   N3        1.0  0.0635934505258504  0.8868102480584881  0.17009592138236942  1.0000
  N   N4        1.0  0.9363247438172947  0.11315335161283  0.67006877358687  1.0000
  N   N5        1.0  0.2023409705744186  0.6615474445024886  0.008203365273871601  1.0000
  N   N6        1.0  0.7975825110376391  0.3384501269293381  0.5081942242675412  1.0000
  N   N7        1.0  0.7975521989119018  0.3386206995497929  0.9918028684452839  1.0000
  N   N8        1.0  0.2024107014554559  0.6613804488087355  0.4918243283196944  1.0000
  N   N9        1.0  0.8323628916296641  0.5249543026682203  0.9531420688961918  1.0000
  N   N10       1.0  0.16755221873056309  0.4751843075433726  0.4531359787956647  1.0000
  N   N11       1.0  0.16754221238317507  0.47522279024560277  0.04686860056581572  1.0000
  N   N12       1.0  0.8324410020837689  0.5246585617160235  0.5468845453685419  1.0000
  N   N13       1.0  0.6422717926356043  0.4592601044293687  0.7499791634370043  1.0000
  N   N14       1.0  0.3578562395505429  0.5407304985970783  0.24999404177615506  1.0000
