data_image0
_chemical_formula_structural       Ag4H28C32N8O16
_chemical_formula_sum              "Ag4 H28 C32 N8 O16"
_cell_length_a       7.125112814034217
_cell_length_b       10.33470313453737
_cell_length_c       12.758281905784685
_cell_angle_alpha    109.74039346996452
_cell_angle_beta     89.9998706352859
_cell_angle_gamma    90.00035473633575

_space_group_name_H-M_alt    "P 1"
_space_group_IT_number       1

loop_
  _space_group_symop_operation_xyz
  'x, y, z'

loop_
  _atom_site_type_symbol
  _atom_site_label
  _atom_site_symmetry_multiplicity
  _atom_site_fract_x
  _atom_site_fract_y
  _atom_site_fract_z
  _atom_site_occupancy
  Ag  Ag1       1.0  0.9505450767034346  0.4245462596169744  0.8786375999029589  1.0000
  Ag  Ag2       1.0  0.45054436659730607  0.5754541557790063  0.6213617777267189  1.0000
  Ag  Ag3       1.0  0.04944857112220549  0.5754556813676004  0.12136385470481771  1.0000
  Ag  Ag4       1.0  0.5494591056308239  0.4245457229583494  0.3786367643989834  1.0000
  H   H1        1.0  0.6242409956701706  0.6360267934172086  0.8890470947269904  1.0000
  H   H2        1.0  0.1242426403289016  0.3639712182729014  0.6109536055174942  1.0000
  H   H3        1.0  0.37574142427253315  0.363975135111886  0.11094965366203269  1.0000
  H   H4        1.0  0.8757580249060978  0.6360255867401177  0.38904801939992945  1.0000
  H   H5        1.0  0.6295261784621644  0.2124164563084391  0.8150697066077511  1.0000
  H   H6        1.0  0.12952571126325552  0.7875836358505237  0.6849323368350397  1.0000
  H   H7        1.0  0.3704772937636989  0.7875844587427989  0.1849322526834455  1.0000
  H   H8        1.0  0.8704805679260373  0.21241522522649345  0.3150698474539979  1.0000
  H   H9        1.0  0.2769885831349157  0.20929976506379683  0.817722475356696  1.0000
  H   H10       1.0  0.7769891631779658  0.7906988966854411  0.6822797779171877  1.0000
  H   H11       1.0  0.7230120820879478  0.7906939558710417  0.1822783105028662  1.0000
  H   H12       1.0  0.2230213264855863  0.2093040785766718  0.31772430948533537  1.0000
  H   H13       1.0  0.2691588890930703  0.6331472098393859  0.8873499764023336  1.0000
  H   H14       1.0  0.7691587542964983  0.36685038662925956  0.6126504292511542  1.0000
  H   H15       1.0  0.7308249342925635  0.36684444257598864  0.1126455438668614  1.0000
  H   H16       1.0  0.23083770050066477  0.6331515564331978  0.3873518097263613  1.0000
  H   H17       1.0  0.11639823870710592  0.06624582081042259  0.1065302361006957  1.0000
  H   H18       1.0  0.61639223049783  0.9337589548099601  0.3934727839156622  1.0000
  H   H19       1.0  0.8836136544528799  0.9337612748467236  0.8934781075251125  1.0000
  H   H20       1.0  0.38361124173098904  0.0662398896854626  0.6065231254144265  1.0000
  H   H21       1.0  0.9595204069089859  0.09126792169667648  0.8165422959135712  1.0000
  H   H22       1.0  0.45951120843444226  0.9087304776547994  0.6834573057913859  1.0000
  H   H23       1.0  0.04048446880994311  0.9087350514816066  0.18346100711934818  1.0000
  H   H24       1.0  0.5404810359019763  0.0912683668168839  0.3165386035392714  1.0000
  H   H25       1.0  0.074925194478773  0.8823986524038003  0.5373898988274916  1.0000
  H   H26       1.0  0.5749298277316016  0.11760017049115848  0.962607948695485  1.0000
  H   H27       1.0  0.9250754707780402  0.11760329066756726  0.4626123401498107  1.0000
  H   H28       1.0  0.42507645146469025  0.8823976480560988  0.037388465318386514  1.0000
  C   C1        1.0  0.5450404519043914  0.5411257427610038  0.8734584936650833  1.0000
  C   C2        1.0  0.04504007813902429  0.458871936084698  0.6265429990953422  1.0000
  C   C3        1.0  0.4549489854550827  0.4588741400905859  0.1265416172011129  1.0000
  C   C4        1.0  0.9549633940850554  0.5411269146265951  0.3734552633444039  1.0000
  C   C5        1.0  0.548762930683175  0.30669082262316033  0.83349380818062  1.0000
  C   C6        1.0  0.048763095516484604  0.69330892594494  0.6665074591989323  1.0000
  C   C7        1.0  0.4512349275947116  0.6933080280762667  0.1665044542594174  1.0000
  C   C8        1.0  0.951240376718161  0.30669301091648277  0.3334924266685563  1.0000
  C   C9        1.0  0.3538172375375268  0.3051807346881147  0.834047959500232  1.0000
  C   C10       1.0  0.8538184267046348  0.6948182519445891  0.6659542858716208  1.0000
  C   C11       1.0  0.6461750067806449  0.6948171004051175  0.16595472947346218  1.0000
  C   C12       1.0  0.14618223854881762  0.305181628858783  0.3340450406241118  1.0000
  C   C13       1.0  0.34955862766729234  0.539295339463429  0.8729214442271882  1.0000
  C   C14       1.0  0.8495578732143657  0.4607015668889715  0.6270778891012015  1.0000
  C   C15       1.0  0.6504308096800457  0.46070145930998024  0.12707782758114652  1.0000
  C   C16       1.0  0.15044980947568123  0.5392972755433973  0.3729172358587789  1.0000
  C   C17       1.0  0.011575397871190801  0.19415438056123688  0.013278050966064806  1.0000
  C   C18       1.0  0.5115790923625383  0.8058489237935474  0.4867247001451105  1.0000
  C   C19       1.0  0.9884224604093675  0.8058475666481113  0.9867257567511556  1.0000
  C   C20       1.0  0.48842578335529646  0.19415095080285735  0.5132722732407444  1.0000
  C   C21       1.0  0.036038931957058686  0.060145993379748575  0.03239298595548949  1.0000
  C   C22       1.0  0.5360340819707402  0.9398574123329551  0.46760897827009973  1.0000
  C   C23       1.0  0.9639715577098543  0.9398590441503458  0.9676140139285965  1.0000
  C   C24       1.0  0.46396939026459444  0.06014349028654209  0.5323882748017752  1.0000
  C   C25       1.0  0.96134518893345  0.0752241702388545  0.657642185186468  1.0000
  C   C26       1.0  0.4613481228070953  0.9247721849464483  0.8423584256980519  1.0000
  C   C27       1.0  0.038651265862135596  0.9247777748955669  0.34236083816093554  1.0000
  C   C28       1.0  0.5386511389451983  0.07522358167776129  0.1576389976840531  1.0000
  C   C29       1.0  0.012831168820604002  0.9816362292307516  0.5450560474675825  1.0000
  C   C30       1.0  0.512834942547741  0.018362329015964497  0.9549410220720631  1.0000
  C   C31       1.0  0.9871694964402592  0.018366741866671494  0.4549464711956687  1.0000
  C   C32       1.0  0.4871713366580152  0.9816354770995517  0.045050685722493766  1.0000
  N   N1        1.0  0.6444587432663982  0.4251725786283627  0.8562032183116485  1.0000
  N   N2        1.0  0.14445793674926222  0.5748265465765884  0.6437977595394742  1.0000
  N   N3        1.0  0.35553490455026077  0.5748262741341178  0.14379582849849018  1.0000
  N   N4        1.0  0.8555427284994507  0.4251733404426545  0.3562039200659157  1.0000
  N   N5        1.0  0.2539638587214128  0.4217729344835064  0.8559941669677115  1.0000
  N   N6        1.0  0.7539640904074076  0.5782245956593499  0.6440054558787124  1.0000
  N   N7        1.0  0.7460311925696531  0.5782228342037569  0.14400404078449472  1.0000
  N   N8        1.0  0.24603938181194002  0.42177426126780665  0.355995159670691  1.0000
  O   O1        1.0  0.07211792232583042  0.3002018757099094  0.08774772057644502  1.0000
  O   O2        1.0  0.5721223699955758  0.6998027106142571  0.412254519623815  1.0000
  O   O3        1.0  0.9278827429455915  0.6998041815376508  0.9122564215145559  1.0000
  O   O4        1.0  0.42787829526981364  0.3001981878553934  0.587741164708433  1.0000
  O   O5        1.0  0.9280306300289708  0.19539471052200238  0.9234853627348018  1.0000
  O   O6        1.0  0.42802654382998645  0.804604583706812  0.5765145218946373  1.0000
  O   O7        1.0  0.07197284219127201  0.8046051785751301  0.07651710124033427  1.0000
  O   O8        1.0  0.571974121424148  0.1953942628546343  0.42348217180547454  1.0000
  O   O9        1.0  0.8970870445515048  0.1917866051504831  0.6752920688230404  1.0000
  O   O10       1.0  0.39709461775593274  0.808205366214608  0.8247074299265266  1.0000
  O   O11       1.0  0.102906603264465  0.8082132818539306  0.324709610782719  1.0000
  O   O12       1.0  0.6028990300589355  0.1917914222079204  0.1752879200321544  1.0000
  O   O13       1.0  0.9932979610330009  0.020240404806791897  0.7364601424526213  1.0000
  O   O14       1.0  0.49329047937428777  0.9797560834019089  0.7635396807761337  1.0000
  O   O15       1.0  0.006705511196905401  0.9797615382705089  0.26354209652453164  1.0000
  O   O16       1.0  0.5067031684398984  0.020241739262551996  0.2364583019781676  1.0000
