data_image0
_chemical_formula_structural       Na2B4H30C32O26
_chemical_formula_sum              "Na2 B4 H30 C32 O26"
_cell_length_a       6.598029370983816
_cell_length_b       7.0875900896162385
_cell_length_c       19.344844284589314
_cell_angle_alpha    79.61027586014033
_cell_angle_beta     81.40802336087961
_cell_angle_gamma    83.91994032815391

_space_group_name_H-M_alt    "P 1"
_space_group_IT_number       1

loop_
  _space_group_symop_operation_xyz
  'x, y, z'

loop_
  _atom_site_type_symbol
  _atom_site_label
  _atom_site_symmetry_multiplicity
  _atom_site_fract_x
  _atom_site_fract_y
  _atom_site_fract_z
  _atom_site_occupancy
  Na  Na1       1.0  0.5248556406868374  0.7347193592356119  0.009159993217373607  1.0000
  Na  Na2       1.0  0.47515696372664706  0.2652752183461756  0.9908367737440857  1.0000
  B   B1        1.0  0.8111250373310169  0.5055517420216304  0.1615944982998485  1.0000
  B   B2        1.0  0.188875165734764  0.4944441675517623  0.8384048738160744  1.0000
  B   B3        1.0  0.7572674087746875  0.1241234332748888  0.14497904763506853  1.0000
  B   B4        1.0  0.24273152796143183  0.8758695726700552  0.8550221272085708  1.0000
  H   H1        1.0  0.014931860092772807  0.2761889878989691  0.13705943595400075  1.0000
  H   H2        1.0  0.9850652767871821  0.7238068948876019  0.8629406090553007  1.0000
  H   H3        1.0  0.027316738270101806  0.3569263594665344  0.2952410538146637  1.0000
  H   H4        1.0  0.9726806718186508  0.6430666450422675  0.7047591640327655  1.0000
  H   H5        1.0  0.08332811160318701  0.6358094553862373  0.1558543481531842  1.0000
  H   H6        1.0  0.9166718234102333  0.3641893420307412  0.8441438163702842  1.0000
  H   H7        1.0  0.4803784851842253  0.4650070531527676  0.43963662163940154  1.0000
  H   H8        1.0  0.5196175537040801  0.5350003331790844  0.5603637667717082  1.0000
  H   H9        1.0  0.8770223354066786  0.3045090591614895  0.5356937835226534  1.0000
  H   H10       1.0  0.12296743966201255  0.6954997223014203  0.4643068295018296  1.0000
  H   H11       1.0  0.2847353867405999  0.5978117661079166  0.33734301285129226  1.0000
  H   H12       1.0  0.7152637209117573  0.4021956517936617  0.6626561852892722  1.0000
  H   H13       1.0  0.8945591371615365  0.8664572839375921  0.11683903626387603  1.0000
  H   H14       1.0  0.1054441372465078  0.13353866198843178  0.8831586282043349  1.0000
  H   H15       1.0  0.9768817342031185  0.917999001983091  0.2725943139639213  1.0000
  H   H16       1.0  0.023113716221089903  0.08199827546007299  0.727409344024551  1.0000
  H   H17       1.0  0.820880263535365  0.8124322186134594  0.5144959914939592  1.0000
  H   H18       1.0  0.1791129823759121  0.18757226265380206  0.48550524264865663  1.0000
  H   H19       1.0  0.8212424112892548  0.4063912900587283  0.03112683458859071  1.0000
  H   H20       1.0  0.17876253152699922  0.5936032277303626  0.968870838540582  1.0000
  H   H21       1.0  0.8629632474960329  0.430165037896046  0.9481177425644703  1.0000
  H   H22       1.0  0.13704016351641712  0.5698294688910863  0.05188000832281151  1.0000
  H   H23       1.0  0.4236987379310193  0.9488066746531344  0.4214951597472664  1.0000
  H   H24       1.0  0.5762991144995269  0.05121364766936409  0.5785084343933278  1.0000
  H   H25       1.0  0.8509021565115447  0.9870119068163702  0.9421380927741084  1.0000
  H   H26       1.0  0.1491228363585577  0.012981314859288797  0.05785865591869311  1.0000
  H   H27       1.0  0.7891999538211819  0.0035638717330500015  0.021684850675434603  1.0000
  H   H28       1.0  0.21081238511816736  0.9964335984752284  0.9783101913164105  1.0000
  H   H29       1.0  0.21668888240790102  0.08020444041655848  0.3227866488782568  1.0000
  H   H30       1.0  0.7833071461675234  0.9198029267836745  0.6772158090414919  1.0000
  C   C1        1.0  0.7573701170003203  0.4785019247490253  0.24619971109538608  1.0000
  C   C2        1.0  0.2426309296908187  0.5215011819549459  0.7538001859214207  1.0000
  C   C3        1.0  0.8655693690567217  0.4089558011654616  0.30316076803480746  1.0000
  C   C4        1.0  0.1344412782704438  0.5910430541336  0.6968389216905281  1.0000
  C   C5        1.0  0.7638524896604508  0.4057201212211368  0.37263125492635407  1.0000
  C   C6        1.0  0.23614229321107422  0.5942843806138923  0.6273688667038259  1.0000
  C   C7        1.0  0.5550748605747772  0.470909474764042  0.38533547191443773  1.0000
  C   C8        1.0  0.44492632529898657  0.5290921975839495  0.6146639941442731  1.0000
  C   C9        1.0  0.44569451910405894  0.5436608858160455  0.328757454210141  1.0000
  C   C10       1.0  0.5543070688482459  0.4563364547665713  0.671243823237248  1.0000
  C   C11       1.0  0.5502428308021052  0.5465391625405471  0.26046420233851825  1.0000
  C   C12       1.0  0.4497562425384131  0.4534524042655121  0.7395370589241921  1.0000
  C   C13       1.0  0.46436203012297733  0.617622958053843  0.19330740319326625  1.0000
  C   C14       1.0  0.5356408164243263  0.3823772718085082  0.8066936236578783  1.0000
  C   C15       1.0  0.8810700623334071  0.33185188794008263  0.43288650870881196  1.0000
  C   C16       1.0  0.1189358632908295  0.6681483926236067  0.5671112583631484  1.0000
  C   C17       1.0  0.6997843275411029  0.04009297486540219  0.2273712771195236  1.0000
  C   C18       1.0  0.3002123892127671  0.9599072062062106  0.7726305781412252  1.0000
  C   C19       1.0  0.8116193717915366  0.955422808098497  0.2822609185406649  1.0000
  C   C20       1.0  0.1883769351491296  0.04458169038976931  0.7177406774628922  1.0000
  C   C21       1.0  0.7090127797953087  0.9243076070145761  0.3519783090408596  1.0000
  C   C22       1.0  0.2909801980636146  0.07569976209626357  0.6480217175093019  1.0000
  C   C23       1.0  0.4962687744775137  0.9719431568639153  0.36669865794191037  1.0000
  C   C24       1.0  0.503727393280535  0.028062775980338  0.6333033690197426  1.0000
  C   C25       1.0  0.3815541563235243  0.045805024752496586  0.3118382362306847  1.0000
  C   C26       1.0  0.6184407502612997  0.9541980140291173  0.6881645587043651  1.0000
  C   C27       1.0  0.4865786384867334  0.07844260987953788  0.2432967953969865  1.0000
  C   C28       1.0  0.5134176658757141  0.9215618838258308  0.7567053179837373  1.0000
  C   C29       1.0  0.3969483412445456  0.16373262107802586  0.17786004056127783  1.0000
  C   C30       1.0  0.6030490662659888  0.8362603786478716  0.8221406946633112  1.0000
  C   C31       1.0  0.8274656356016122  0.8459573199440698  0.41159300196544996  1.0000
  C   C32       1.0  0.17253582348094912  0.1540414741261458  0.5884066369313957  1.0000
  O   O1        1.0  0.865614033316447  0.3152916661795259  0.13021677887788746  1.0000
  O   O2        1.0  0.1343831009852892  0.6847042118241473  0.8697837835085737  1.0000
  O   O3        1.0  0.6072912076130663  0.5931406826633038  0.13723538446313913  1.0000
  O   O4        1.0  0.3927092635050826  0.40685233906651047  0.8627651952452313  1.0000
  O   O5        1.0  0.9707713751648867  0.6297608753668767  0.12755265882958614  1.0000
  O   O6        1.0  0.029227571884106886  0.3702321497096933  0.8724464465054144  1.0000
  O   O7        1.0  0.2888753869929134  0.6912508996770654  0.18681963103700383  1.0000
  O   O8        1.0  0.7111253890676394  0.3087550900875866  0.8131795757645152  1.0000
  O   O9        1.0  0.7875836687855439  0.3623873971026726  0.4956581702382224  1.0000
  O   O10       1.0  0.2124109800598006  0.6376185486541459  0.5043413475957339  1.0000
  O   O11       1.0  0.0568676946366367  0.24719384152678706  0.4238654752810476  1.0000
  O   O12       1.0  0.943120540893588  0.7528149145854499  0.576136767633031  1.0000
  O   O13       1.0  0.5429767613882106  0.18653471181973202  0.12197776075895211  1.0000
  O   O14       1.0  0.45702119769636346  0.8134525409164295  0.8780222853875728  1.0000
  O   O15       1.0  0.8797585502222348  0.007611591077406401  0.09858253641921522  1.0000
  O   O16       1.0  0.12024763314148154  0.9923857825110783  0.9014185077538387  1.0000
  O   O17       1.0  0.21228249596561713  0.21101317703065084  0.17455611115656924  1.0000
  O   O18       1.0  0.7877083719382868  0.7889840913211683  0.8254451932204321  1.0000
  O   O19       1.0  0.728721921731605  0.8636374526845004  0.47489688952164516  1.0000
  O   O20       1.0  0.2712713190232349  0.13636701901695147  0.5251053793752902  1.0000
  O   O21       1.0  0.007702951891104683  0.7709811908208054  0.4017443140049935  1.0000
  O   O22       1.0  0.9922786228974089  0.22903330175366676  0.5982553073794676  1.0000
  O   O23       1.0  0.7588090112086334  0.4601161081889061  0.9881230891083989  1.0000
  O   O24       1.0  0.2411973164941372  0.5398798406094087  0.011876489352239587  1.0000
  O   O25       1.0  0.7291661322722192  0.9947792247185772  0.9781239852457801  1.0000
  O   O26       1.0  0.27085148510054324  0.0052110828011394  0.0218712555670564  1.0000
