data_image0
_chemical_formula_structural       Zn4Cu4H60C92N12O20
_chemical_formula_sum              "Zn4 Cu4 H60 C92 N12 O20"
_cell_length_a       14.873213406533088
_cell_length_b       15.345547354304115
_cell_length_c       15.345534891517731
_cell_angle_alpha    83.77861867510566
_cell_angle_beta     61.19044045308347
_cell_angle_gamma    61.190718157531066

_space_group_name_H-M_alt    "P 1"
_space_group_IT_number       1

loop_
  _space_group_symop_operation_xyz
  'x, y, z'

loop_
  _atom_site_type_symbol
  _atom_site_label
  _atom_site_symmetry_multiplicity
  _atom_site_fract_x
  _atom_site_fract_y
  _atom_site_fract_z
  _atom_site_occupancy
  Zn  Zn1       1.0  0.3769427117771045  0.250740382717666  0.6429974318759051  1.0000
  Zn  Zn2       1.0  0.12306099321291714  0.3570002047383198  0.7492605349328797  1.0000
  Zn  Zn3       1.0  0.6230534989020385  0.749282877521125  0.3570013136836819  1.0000
  Zn  Zn4       1.0  0.8769435242629272  0.6429990760669497  0.2507172896631433  1.0000
  Cu  Cu1       1.0  0.008907321344509259  0.8993828284700737  0.5004933556877161  1.0000
  Cu  Cu2       1.0  0.4910924641281869  0.49950451536366075  0.10061986687279043  1.0000
  Cu  Cu3       1.0  0.9910630716998909  0.10068037166199419  0.4995178207597065  1.0000
  Cu  Cu4       1.0  0.5089415013932526  0.5004714048932684  0.8993206003351589  1.0000
  H   H1        1.0  0.4466288387926485  0.938378453452529  0.6323233766904721  1.0000
  H   H2        1.0  0.05338472658493747  0.36766441489481133  0.06161633432753893  1.0000
  H   H3        1.0  0.553361783161222  0.06165463681934819  0.3676697805227818  1.0000
  H   H4        1.0  0.9466192526386978  0.6323439161894553  0.9383516739297021  1.0000
  H   H5        1.0  0.44392587248123067  0.7789743631313328  0.6306355448130958  1.0000
  H   H6        1.0  0.05608657535130865  0.369354208909172  0.22102163915420184  1.0000
  H   H7        1.0  0.5560661627800985  0.22105484185535568  0.36938342527396617  1.0000
  H   H8        1.0  0.9439173511507948  0.6306286078134419  0.7789503582939971  1.0000
  H   H9        1.0  0.06727168146940705  0.9482844415804549  0.7468402481970032  1.0000
  H   H10       1.0  0.43273874662500605  0.2531580245368516  0.05171044158793583  1.0000
  H   H11       1.0  0.9327136284654928  0.0517349723968863  0.25320177641771835  1.0000
  H   H12       1.0  0.5672705356589491  0.7467991932259463  0.9482721558900238  1.0000
  H   H13       1.0  0.07229874646152722  0.1070947490576017  0.7506985389059223  1.0000
  H   H14       1.0  0.42771243430996725  0.24929823163953554  0.8928990493940816  1.0000
  H   H15       1.0  0.9276930167800972  0.8929255381234497  0.24930389331173344  1.0000
  H   H16       1.0  0.5722900372564653  0.7506965510219813  0.10708280475490274  1.0000
  H   H17       1.0  0.42975987240674857  0.6725216126076886  0.5632352226443231  1.0000
  H   H18       1.0  0.07024581805696783  0.43676512458471706  0.3274707477381895  1.0000
  H   H19       1.0  0.5702439669786873  0.3274908299755666  0.43681518291926114  1.0000
  H   H20       1.0  0.9297458194809638  0.5631907464915358  0.6725163055601371  1.0000
  H   H21       1.0  0.4205302812316632  0.5163059395842922  0.5582144349826237  1.0000
  H   H22       1.0  0.07946734416709239  0.44179059790015157  0.4836909076947151  1.0000
  H   H23       1.0  0.5794896822168527  0.48370106903836774  0.44184140250132486  1.0000
  H   H24       1.0  0.9205080262333855  0.5581601554185268  0.5163023075619433  1.0000
  H   H25       1.0  0.06837716418418438  0.6572012631190135  0.8079069661031966  1.0000
  H   H26       1.0  0.4316179446548886  0.1920974508560747  0.3428043591246281  1.0000
  H   H27       1.0  0.9316294106397083  0.34279697450014607  0.19212865775169524  1.0000
  H   H28       1.0  0.5683671913336498  0.8078711535656848  0.6571993850005243  1.0000
  H   H29       1.0  0.07353677420582032  0.8147617523452695  0.8134348686456363  1.0000
  H   H30       1.0  0.42646607694474187  0.18656348619953173  0.18524059097307335  1.0000
  H   H31       1.0  0.9264587472895871  0.18524107465614748  0.18660477749786966  1.0000
  H   H32       1.0  0.5735306289152579  0.8133982741184198  0.8147591252506318  1.0000
  H   H33       1.0  0.5477927085737734  0.3140376145804992  0.6015914515846817  1.0000
  H   H34       1.0  0.9522166540474686  0.39839903005184857  0.6859635632388931  1.0000
  H   H35       1.0  0.4521897162329297  0.6860044307440204  0.39842805257240604  1.0000
  H   H36       1.0  0.04780226198471386  0.601577681987166  0.3139994767592569  1.0000
  H   H37       1.0  0.575096474890323  0.03560380217182061  0.5772094319272227  1.0000
  H   H38       1.0  0.9249086332968305  0.4227879606956649  0.9643968448636713  1.0000
  H   H39       1.0  0.4248903229222026  0.9644359496119745  0.4228102279109505  1.0000
  H   H40       1.0  0.07511096502677365  0.57719024969564  0.035565069127962076  1.0000
  H   H41       1.0  0.7520027489458913  0.8807016274345969  0.5203406870014932  1.0000
  H   H42       1.0  0.7479983204112272  0.4796591897231083  0.11930112946009797  1.0000
  H   H43       1.0  0.2479391537432322  0.1193617080853357  0.4797013513142616  1.0000
  H   H44       1.0  0.2520633433869648  0.5202977124756316  0.8806388361171642  1.0000
  H   H45       1.0  0.03042339286323436  0.7356993714190664  0.3722679032208375  1.0000
  H   H46       1.0  0.469579460406088  0.6277324674572425  0.264298851555779  1.0000
  H   H47       1.0  0.9695178999007509  0.2643084254103769  0.6277854257072664  1.0000
  H   H48       1.0  0.5304822960171833  0.3722106861962756  0.7356939861281617  1.0000
  H   H49       1.0  0.9267116508510754  0.7146311266875215  0.4816908514353743  1.0000
  H   H50       1.0  0.5732868400506207  0.5183090751868561  0.28537153856169073  1.0000
  H   H51       1.0  0.07322698235202553  0.2854163153827898  0.5183889068120848  1.0000
  H   H52       1.0  0.4267751483539758  0.48160949386301866  0.7145866106059842  1.0000
  H   H53       1.0  0.035315647209984126  0.6885522280982881  0.5690153496785229  1.0000
  H   H54       1.0  0.46467981159752736  0.4309881477791321  0.311449185078821  1.0000
  H   H55       1.0  0.9646379364469271  0.31149596040951605  0.4310339015660602  1.0000
  H   H56       1.0  0.535368434973556  0.568961296294212  0.68851019459499  1.0000
  H   H57       1.0  0.14595636586370386  0.6251872841536752  0.4408420503427736  1.0000
  H   H58       1.0  0.3540414088704795  0.559162653135857  0.37481468142432545  1.0000
  H   H59       1.0  0.8539942484464904  0.3748593434783629  0.5592263427605174  1.0000
  H   H60       1.0  0.6460074513502506  0.4407695519643439  0.625141648682707  1.0000
  C   C1        1.0  0.2614596677757107  0.12938643223020557  0.6938265312939434  1.0000
  C   C2        1.0  0.2385509978795215  0.30617071869456675  0.8706087284569151  1.0000
  C   C3        1.0  0.7385221457957056  0.8706392138359219  0.3061734635139007  1.0000
  C   C4        1.0  0.7614649947736327  0.693829968438422  0.12936490347519947  1.0000
  C   C5        1.0  0.25943491807621655  0.03275366639595489  0.6932462568998972  1.0000
  C   C6        1.0  0.2405795298807548  0.30674562631296715  0.9672395781917089  1.0000
  C   C7        1.0  0.7405550404009709  0.9672711392268025  0.30675589367128675  1.0000
  C   C8        1.0  0.7594290996763675  0.6932491337498092  0.03273419440000677  1.0000
  C   C9        1.0  0.3635107684659148  0.9396053956035715  0.6590999475413072  1.0000
  C   C10       1.0  0.13650378285500864  0.34089048066556416  0.06039034026233029  1.0000
  C   C11       1.0  0.6364821892678735  0.06042087520199858  0.3409032587065964  1.0000
  C   C12       1.0  0.8634997058771177  0.659106569589042  0.939585589909761  1.0000
  C   C13       1.0  0.3612853533148836  0.8501556310132727  0.6580145220858143  1.0000
  C   C14       1.0  0.13872666475631226  0.3419773147345921  0.14983990530536323  1.0000
  C   C15       1.0  0.6387046321776921  0.14986908817714098  0.3420058714206037  1.0000
  C   C16       1.0  0.8612793264699479  0.6580032138349452  0.8501359299412881  1.0000
  C   C17       1.0  0.25467866123812405  0.8510228343794991  0.6907981376599182  1.0000
  C   C18       1.0  0.2453334402901959  0.30919730123112277  0.1489713583888275  1.0000
  C   C19       1.0  0.7453110159135862  0.14899430457832344  0.3092401334354805  1.0000
  C   C20       1.0  0.7546727528671938  0.6907666863460447  0.8510132763169624  1.0000
  C   C21       1.0  0.15054858126591605  0.9451218722044101  0.7242148900266727  1.0000
  C   C22       1.0  0.34946422430253693  0.27578048983610154  0.054872977704242494  1.0000
  C   C23       1.0  0.8494415124284843  0.0548945533383005  0.2758147897098199  1.0000
  C   C24       1.0  0.6505432498396005  0.7241879832753142  0.9451118953102479  1.0000
  C   C25       1.0  0.15279849957283184  0.03442842787169549  0.7256297563949444  1.0000
  C   C26       1.0  0.347215284409046  0.2743650717393677  0.9655651428393027  1.0000
  C   C27       1.0  0.8471913912265097  0.9655910895445031  0.27438079724919356  1.0000
  C   C28       1.0  0.6527942192394036  0.7256214041983353  0.03441429965422323  1.0000
  C   C29       1.0  0.25184840132660485  0.7564298214043104  0.6885520429634439  1.0000
  C   C30       1.0  0.24815850516182544  0.31144770071100675  0.24356708522392262  1.0000
  C   C31       1.0  0.7481539956669254  0.2435810947827974  0.3115070141353228  1.0000
  C   C32       1.0  0.7518337445780505  0.6884976621252789  0.756420778757423  1.0000
  C   C33       1.0  0.34983343085108504  0.6702760768636864  0.6175872885042538  1.0000
  C   C34       1.0  0.15017130501041723  0.3824158319022928  0.3297189207123665  1.0000
  C   C35       1.0  0.650177198505638  0.3297324977029136  0.38247404016971126  1.0000
  C   C36       1.0  0.84981391988417  0.6175310884034104  0.6702714038750345  1.0000
  C   C37       1.0  0.34537519449390436  0.5824341843202631  0.6139967990240366  1.0000
  C   C38       1.0  0.15462643005577803  0.3860070821316199  0.4175623470059691  1.0000
  C   C39       1.0  0.6546477870259652  0.4175675031883799  0.38606796148803113  1.0000
  C   C40       1.0  0.845347069350126  0.6139361706890296  0.5824351294273741  1.0000
  C   C41       1.0  0.2447400265968299  0.5759845949426747  0.6829237822560827  1.0000
  C   C42       1.0  0.25526073686716444  0.31708079175678705  0.42401585892231003  1.0000
  C   C43       1.0  0.7552828669836559  0.4240118691836657  0.317135699127526  1.0000
  C   C44       1.0  0.7447132834230102  0.6828669185542682  0.5759893813484069  1.0000
  C   C45       1.0  0.14677822458617137  0.6614230152872621  0.753667545322159  1.0000
  C   C46       1.0  0.3532219329283848  0.2463360059514912  0.33857879995414214  1.0000
  C   C47       1.0  0.8532390072850548  0.3385712815405171  0.2463863298044516  1.0000
  C   C48       1.0  0.6467565425179843  0.7536146527223407  0.6614279659257108  1.0000
  C   C49       1.0  0.15013195087363596  0.7501162816487579  0.7561774723111938  1.0000
  C   C50       1.0  0.349872330411273  0.24382369869913129  0.24988396078994415  1.0000
  C   C51       1.0  0.8498771298199372  0.2498856017899129  0.24387484963487785  1.0000
  C   C52       1.0  0.6501129882117029  0.7561284264676543  0.7501155521263311  1.0000
  C   C53       1.0  0.24579490435331774  0.4775277588708845  0.6850335435013193  1.0000
  C   C54       1.0  0.25420172598369123  0.31497196070413475  0.5224734588183324  1.0000
  C   C55       1.0  0.7542296582924307  0.5224658423343626  0.31499352704685185  1.0000
  C   C56       1.0  0.7457701218615471  0.6850065081728756  0.4775334958402625  1.0000
  C   C57       1.0  0.6059737370020173  0.2327673834585724  0.5816628033333872  1.0000
  C   C58       1.0  0.8940363351700642  0.4183270183014684  0.7672311259991103  1.0000
  C   C59       1.0  0.3940037059742993  0.7672807267397272  0.41835317727659327  1.0000
  C   C60       1.0  0.10599019378756222  0.581651157405652  0.23272365084080351  1.0000
  C   C61       1.0  0.7254554812949153  0.19304810585053636  0.5489388818871818  1.0000
  C   C62       1.0  0.7745543492557305  0.4510460928087097  0.8069497397762289  1.0000
  C   C63       1.0  0.2745058467837896  0.8070121350859764  0.4510826939196519  1.0000
  C   C64       1.0  0.22549016897146157  0.5489207157513151  0.192992623507152  1.0000
  C   C65       1.0  0.797657640762644  0.08510141631344936  0.5198999568538342  1.0000
  C   C66       1.0  0.7023529166185228  0.4800847651410293  0.9148980500271192  1.0000
  C   C67       1.0  0.20231528337653526  0.9149708536669365  0.4800908471421721  1.0000
  C   C68       1.0  0.29768384333388564  0.5199091705516847  0.08503271879820323  1.0000
  C   C69       1.0  0.7424240018522854  0.02528179120876219  0.5336747101941269  1.0000
  C   C70       1.0  0.7575820196986528  0.4663171966757318  0.9747197582433104  1.0000
  C   C71       1.0  0.2575630052647429  0.9747805312329303  0.4663288129422013  1.0000
  C   C72       1.0  0.24243856443305153  0.5336701077347995  0.025219894485815075  1.0000
  C   C73       1.0  0.6214175152399477  0.07673438396015092  0.5672266772901509  1.0000
  C   C74       1.0  0.8785881574614365  0.4327671420371501  0.9232664944616858  1.0000
  C   C75       1.0  0.37857286122581263  0.9233098819257959  0.4327823718719444  1.0000
  C   C76       1.0  0.1214256018255214  0.5672186372299136  0.0766927903656338  1.0000
  C   C77       1.0  0.7653728457167973  0.26453487636545947  0.5469050848411001  1.0000
  C   C78       1.0  0.7346375097556573  0.45307794716881494  0.7354651731891977  1.0000
  C   C79       1.0  0.2345640248320395  0.7355157280522916  0.45314388550190876  1.0000
  C   C80       1.0  0.26543139143215216  0.5468608226125724  0.26448829810855307  1.0000
  C   C81       1.0  0.804742980035883  0.9153748289908776  0.5126919478560267  1.0000
  C   C82       1.0  0.6952599632400834  0.4873038341780997  0.0846259185644271  1.0000
  C   C83       1.0  0.19522984251774736  0.08467330433020952  0.48732879085510217  1.0000
  C   C84       1.0  0.304771887246389  0.5126690304616942  0.9153308415192426  1.0000
  C   C85       1.0  0.9831510844172232  0.7492074082133938  0.45539763398800664  1.0000
  C   C86       1.0  0.5168489153509342  0.5446026337727755  0.25079244811402646  1.0000
  C   C87       1.0  0.01680047455755576  0.2508227620337848  0.5446603054445447  1.0000
  C   C88       1.0  0.48319987429653816  0.4553377445872186  0.7491800055655632  1.0000
  C   C89       1.0  0.07641310636207542  0.6990845930001653  0.48976377878643973  1.0000
  C   C90       1.0  0.42358299731770205  0.5102397133685271  0.3009178873788656  1.0000
  C   C91       1.0  0.9235433035662695  0.3009680568709925  0.5102875995779356  1.0000
  C   C92       1.0  0.576462415263265  0.48970529403641894  0.6990341529079416  1.0000
  N   N1        1.0  0.5549315733584592  0.1776908979533616  0.5891936367144767  1.0000
  N   N2        1.0  0.9450747093892391  0.4108000010760903  0.8223093580151826  1.0000
  N   N3        1.0  0.4450584556901661  0.8223526388210941  0.41081174048377284  1.0000
  N   N4        1.0  0.05493801584695753  0.5891902907209711  0.17764928650441186  1.0000
  N   N5        1.0  0.9154307791372747  0.8584099514214143  0.48622857160803057  1.0000
  N   N6        1.0  0.5845720030585115  0.5137686146304217  0.14159029417264424  1.0000
  N   N7        1.0  0.08454085471319676  0.14163217975394096  0.5137953022732588  1.0000
  N   N8        1.0  0.41546234413215904  0.4862011990512655  0.8583721368849807  1.0000
  N   N9        1.0  0.8731252689381468  0.23658244723527838  0.5170055256936266  1.0000
  N   N10       1.0  0.6268825450809177  0.48298178287274846  0.7634204839913962  1.0000
  N   N11       1.0  0.12679013961474106  0.7635058590986643  0.48304430361707057  1.0000
  N   N12       1.0  0.3732065189228706  0.5169607190133761  0.23649452578375468  1.0000
  O   O1        1.0  0.35872993127809144  0.12368664896046508  0.6717290358169237  1.0000
  O   O2        1.0  0.14127889401332558  0.32826617687535975  0.8763104322106444  1.0000
  O   O3        1.0  0.6412404129041106  0.8763510244624654  0.3282887359550486  1.0000
  O   O4        1.0  0.8587486723715403  0.6717142016005936  0.12365210285381092  1.0000
  O   O5        1.0  0.16525125568134766  0.2106576619981624  0.7158362855006715  1.0000
  O   O6        1.0  0.33475968928564026  0.2841607362084914  0.7893364993872255  1.0000
  O   O7        1.0  0.83473113921729  0.7893575746078196  0.2841436709213736  1.0000
  O   O8        1.0  0.6652575862810298  0.7158578824907523  0.21064834902020396  1.0000
  O   O9        1.0  0.3440588303901394  0.4000480286591354  0.6287038743756383  1.0000
  O   O10       1.0  0.1559379968662855  0.3712995561435475  0.5999544172543737  1.0000
  O   O11       1.0  0.655970427591946  0.5999575405812364  0.37131975904883757  1.0000
  O   O12       1.0  0.8440298041638884  0.6286820032968163  0.4000417199521706  1.0000
  O   O13       1.0  0.1489919708989406  0.4785185710573358  0.7454652830655775  1.0000
  O   O14       1.0  0.3510038923243571  0.2545398400046465  0.5214828599058593  1.0000
  O   O15       1.0  0.8510303120676074  0.5214737226574683  0.2545258418743685  1.0000
  O   O16       1.0  0.648970235337636  0.7454723450617208  0.4785253801495628  1.0000
  O   O17       1.0  0.9113762496484484  0.04078826714939509  0.48304119989736466  1.0000
  O   O18       1.0  0.5886338598435189  0.5169403598204028  0.9592118013316763  1.0000
  O   O19       1.0  0.08860057499342881  0.9592826017438152  0.5169205622013705  1.0000
  O   O20       1.0  0.41139765397565514  0.4830776026569906  0.04072346854396611  1.0000
