data_image0
_chemical_formula_structural       FeH20C16S2N14
_chemical_formula_sum              "Fe1 H20 C16 S2 N14"
_cell_length_a       7.6997915818391345
_cell_length_b       8.459204860835174
_cell_length_c       9.54645616695001
_cell_angle_alpha    77.21173998262226
_cell_angle_beta     72.96807025970294
_cell_angle_gamma    66.96576130178242

_space_group_name_H-M_alt    "P 1"
_space_group_IT_number       1

loop_
  _space_group_symop_operation_xyz
  'x, y, z'

loop_
  _atom_site_type_symbol
  _atom_site_label
  _atom_site_symmetry_multiplicity
  _atom_site_fract_x
  _atom_site_fract_y
  _atom_site_fract_z
  _atom_site_occupancy
  Fe  Fe1       1.0  0.4792123478595514  0.5133625793935083  0.5057530292892665  1.0000
  H   H1        1.0  0.745930421464742  0.15708330459087702  0.29088818987028725  1.0000
  H   H2        1.0  0.26615922069608905  0.8387186060992633  0.7056938103272258  1.0000
  H   H3        1.0  0.9778486910369821  0.36211032948786226  0.5258505692077479  1.0000
  H   H4        1.0  0.03392579805797169  0.6280741689175784  0.4742714323106371  1.0000
  H   H5        1.0  0.04403851947082429  0.902919070133194  0.21246092647897544  1.0000
  H   H6        1.0  0.9639548315692537  0.0899070806355056  0.7869087909035315  1.0000
  H   H7        1.0  0.23743722498815595  0.8449884394405273  0.30048200497662253  1.0000
  H   H8        1.0  0.7737160913945687  0.1463602706498506  0.695967761187163  1.0000
  H   H9        1.0  0.3281825361816431  0.4210733951533073  0.860730907347211  1.0000
  H   H10       1.0  0.6515737707774677  0.5896890691130922  0.1455462568549919  1.0000
  H   H11       1.0  0.11759512163295942  0.27719293275042395  0.05807732521817847  1.0000
  H   H12       1.0  0.8814402973638027  0.716173015202209  0.9456942368801152  1.0000
  H   H13       1.0  0.02343341818706079  0.1511264031659749  0.9955950652222256  1.0000
  H   H14       1.0  0.979270728993846  0.8416206801926693  0.005210114031967832  1.0000
  H   H15       1.0  0.3432895228143522  0.891742292066354  0.025528519968055777  1.0000
  H   H16       1.0  0.6624059252454089  0.10403193270002481  0.9701180894932548  1.0000
  H   H17       1.0  0.39005784266356613  0.029481605056439295  0.11551924628926716  1.0000
  H   H18       1.0  0.6160603198060034  0.9659381511996517  0.8804254037865248  1.0000
  H   H19       1.0  0.38704346651352495  0.15827703641684815  0.512439647016194  1.0000
  H   H20       1.0  0.6042916747408782  0.8590686953673057  0.4855391429100565  1.0000
  C   C1        1.0  0.8418345807328863  0.1842793793265187  0.33831310120034175  1.0000
  C   C2        1.0  0.17012183875128528  0.8101803787029738  0.6596102622713859  1.0000
  C   C3        1.0  0.9653803357107263  0.2844880759686248  0.4553419409818106  1.0000
  C   C4        1.0  0.04632601358478172  0.7066169037213755  0.5437645057388849  1.0000
  C   C5        1.0  0.1478667906899247  0.9491370335018062  0.2332498434567185  1.0000
  C   C6        1.0  0.8614536108144862  0.042915978126529794  0.7650519505274858  1.0000
  C   C7        1.0  0.3255976275955419  0.3319487504805211  0.795780808284562  1.0000
  C   C8        1.0  0.6583571140581626  0.6790333968775926  0.20813286794848562  1.0000
  C   C9        1.0  0.3224079866178046  0.4888065174667346  0.25322852451116523  1.0000
  C   C10       1.0  0.6634811007121898  0.5189303256919118  0.7490589803520608  1.0000
  C   C11       1.0  0.15772363801550432  0.16237581267406406  0.003296846204499102  1.0000
  C   C12       1.0  0.8438827887059902  0.8325895707109652  0.9975657850502485  1.0000
  C   C13       1.0  0.2753742653698055  0.0023286189514593004  0.0899360018195523  1.0000
  C   C14       1.0  0.7305800044969499  0.9919735246830684  0.9073959100481518  1.0000
  C   C15       1.0  0.3582872666921162  0.19285749290289544  0.6219831118412814  1.0000
  C   C16       1.0  0.6326637725934674  0.8211085408436746  0.37736998406816724  1.0000
  S   S1        1.0  0.21685247009003922  0.5199838699501244  0.12046312739018111  1.0000
  S   S2        1.0  0.7825435072411935  0.4760560400167009  0.8758447893621124  1.0000
  N   N1        1.0  0.2608247065867815  0.19971199307904902  0.8527093904639855  1.0000
  N   N2        1.0  0.7374955867464975  0.8018761752991567  0.14859197097663926  1.0000
  N   N3        1.0  0.2807729600653204  0.10941635012171962  0.743807951662653  1.0000
  N   N4        1.0  0.7223214366311838  0.8939247557413595  0.2546608405419022  1.0000
  N   N5        1.0  0.3889743031925407  0.33115185259408964  0.6489258756156318  1.0000
  N   N6        1.0  0.5895262959844346  0.6884560084609531  0.3537406353504124  1.0000
  N   N7        1.0  0.03294568185673801  0.09224492075014008  0.32074721000937967  1.0000
  N   N8        1.0  0.9784673286134976  0.898887918963837  0.6785830360906501  1.0000
  N   N9        1.0  0.11467586653844113  0.1544317627405789  0.3947434233766102  1.0000
  N   N10       1.0  0.8974196222234813  0.8350309291635583  0.6057038669545207  1.0000
  N   N11       1.0  0.7948287598538786  0.306577982120352  0.42406538107477587  1.0000
  N   N12       1.0  0.21883509599906853  0.6868813092589791  0.572894728687352  1.0000
  N   N13       1.0  0.3950175798272397  0.47257991964448115  0.3520897309096256  1.0000
  N   N14       1.0  0.5802916344058962  0.54428209607714  0.6546453745497943  1.0000
