data_image0
_chemical_formula_structural       Dy2H12C16N2O16
_chemical_formula_sum              "Dy2 H12 C16 N2 O16"
_cell_length_a       6.328633377174126
_cell_length_b       9.41179178519534
_cell_length_c       9.77527123633519
_cell_angle_alpha    72.50351933721824
_cell_angle_beta     80.57931517053707
_cell_angle_gamma    82.44527246451304

_space_group_name_H-M_alt    "P 1"
_space_group_IT_number       1

loop_
  _space_group_symop_operation_xyz
  'x, y, z'

loop_
  _atom_site_type_symbol
  _atom_site_label
  _atom_site_symmetry_multiplicity
  _atom_site_fract_x
  _atom_site_fract_y
  _atom_site_fract_z
  _atom_site_occupancy
  Dy  Dy1       1.0  0.5916891382205165  0.7898366877513184  0.8034158115091544  1.0000
  Dy  Dy2       1.0  0.4083082458120515  0.21016191436425663  0.19658463862826642  1.0000
  H   H1        1.0  0.7111828235503239  0.5217067488209393  0.45766817682059735  1.0000
  H   H2        1.0  0.288817243260901  0.478295230223587  0.5423299297058792  1.0000
  H   H3        1.0  0.9429133299654636  0.17286750108580407  0.8905748628919525  1.0000
  H   H4        1.0  0.057091269987424205  0.8271367741502827  0.10942407212873222  1.0000
  H   H5        1.0  0.8896091624172084  0.2943903321246708  0.43395624394013055  1.0000
  H   H6        1.0  0.11039285769697216  0.7056094329665895  0.5660433128598542  1.0000
  H   H7        1.0  0.023295822969089396  0.10799321060562758  0.6539958117744435  1.0000
  H   H8        1.0  0.9767033226180781  0.8920042882415656  0.3460047580599836  1.0000
  H   H9        1.0  0.05282505441801535  0.7316443148870417  0.8567236960838686  1.0000
  H   H10       1.0  0.9471781082713662  0.2683588272270043  0.14327574545404792  1.0000
  H   H11       1.0  0.06515747623227948  0.8462337119402079  0.7055740875190751  1.0000
  H   H12       1.0  0.9348396131119896  0.15376713407611928  0.294426753873495  1.0000
  C   C1        1.0  0.7145181891592498  0.4933516071133043  0.6730928212611362  1.0000
  C   C2        1.0  0.2854779710460632  0.5066547998377614  0.32690238471832356  1.0000
  C   C3        1.0  0.4387967937754097  0.058686911937620316  0.942142217635798  1.0000
  C   C4        1.0  0.5612171145186977  0.9413073366240425  0.05785348095148638  1.0000
  C   C5        1.0  0.38102959611050113  0.9830624874780726  0.5158750522104256  1.0000
  C   C6        1.0  0.6189760142333894  0.0169250449649923  0.48413487764342034  1.0000
  C   C7        1.0  0.7350653475316233  0.4210789063841531  0.9424885899874555  1.0000
  C   C8        1.0  0.26492165892167197  0.5789252046568548  0.05751247254440278  1.0000
  C   C9        1.0  0.7821906163700658  0.38646364158275043  0.8008183140461329  1.0000
  C   C10       1.0  0.21780934750120903  0.613539470677651  0.19918151431198794  1.0000
  C   C11       1.0  0.8907435700307572  0.2507416453795059  0.7921032982355883  1.0000
  C   C12       1.0  0.10926413993183097  0.7492626371792354  0.20789219755673133  1.0000
  C   C13       1.0  0.8651486588165156  0.31345791370426906  0.5399731263769213  1.0000
  C   C14       1.0  0.13485770269097935  0.686545258263429  0.46002592834077677  1.0000
  C   C15       1.0  0.936608306665093  0.213418287787789  0.6610374614516985  1.0000
  C   C16       1.0  0.06339815778234481  0.7865837509640413  0.33895987143434797  1.0000
  N   N1        1.0  0.7581209533909713  0.4459641845048523  0.5488863794667368  1.0000
  N   N2        1.0  0.24188705125992263  0.5540378541531369  0.4511087250704407  1.0000
  O   O1        1.0  0.3252784917680103  0.888402891349827  0.6359818092703623  1.0000
  O   O2        1.0  0.6747184791650511  0.1115979246251868  0.3640149622446742  1.0000
  O   O3        1.0  0.7124296051761545  0.5544750048345577  0.9465974263195278  1.0000
  O   O4        1.0  0.28756712271785995  0.44551686567260157  0.05340407840132145  1.0000
  O   O5        1.0  0.4372698810925612  0.0278499140829211  0.8247113401653935  1.0000
  O   O6        1.0  0.562730687626562  0.9721498736331567  0.1752934973916213  1.0000
  O   O7        1.0  0.61811944881088  0.6223824566689657  0.6617558650397941  1.0000
  O   O8        1.0  0.3818748689463261  0.37761498988741954  0.3382442675555737  1.0000
  O   O9        1.0  0.3508743733010462  0.1749332065757585  0.9748743572099698  1.0000
  O   O10       1.0  0.6491220753759208  0.8250620710893344  0.025133330475206682  1.0000
  O   O11       1.0  0.2609636984336774  0.051385938099116395  0.4215953576507588  1.0000
  O   O12       1.0  0.7390320861898373  0.9486126490896323  0.5784052858967642  1.0000
  O   O13       1.0  0.7221349769101265  0.3081383803452623  0.05691200953179286  1.0000
  O   O14       1.0  0.2778574467497278  0.6918612951850491  0.9430887077288336  1.0000
  O   O15       1.0  0.9623727063679295  0.7830013925266713  0.7793621626519215  1.0000
  O   O16       1.0  0.03762436884478859  0.2170006092365142  0.220643452980447  1.0000
