data_image0
_chemical_formula_structural       Hg4H16C8N16Cl8
_chemical_formula_sum              "Hg4 H16 C8 N16 Cl8"
_cell_length_a       3.9851100050767987
_cell_length_b       9.072668110704752
_cell_length_c       20.274865744036674
_cell_angle_alpha    90.00021829366356
_cell_angle_beta     89.99996741337006
_cell_angle_gamma    94.90267991887072

_space_group_name_H-M_alt    "P 1"
_space_group_IT_number       1

loop_
  _space_group_symop_operation_xyz
  'x, y, z'

loop_
  _atom_site_type_symbol
  _atom_site_label
  _atom_site_symmetry_multiplicity
  _atom_site_fract_x
  _atom_site_fract_y
  _atom_site_fract_z
  _atom_site_occupancy
  Hg  Hg1       1.0  0.7794337325986759  0.6414410716504758  0.4395969944348223  1.0000
  Hg  Hg2       1.0  0.7205696085241511  0.8585605633878185  0.9395990151022033  1.0000
  Hg  Hg3       1.0  0.22056805268813653  0.3585581470150173  0.5604010429373361  1.0000
  Hg  Hg4       1.0  0.27942987482164466  0.1414397583625089  0.0604034612646913  1.0000
  H   H1        1.0  0.9452732574381171  0.15462412496449926  0.3467619206221997  1.0000
  H   H2        1.0  0.5547139064224422  0.34537793964478414  0.8467624614672076  1.0000
  H   H3        1.0  0.05472078998440111  0.8453739778812162  0.6532361167495253  1.0000
  H   H4        1.0  0.445273443191759  0.654624578666052  0.1532385352378327  1.0000
  H   H5        1.0  0.2640789981603646  0.08084769464491608  0.3945792361940903  1.0000
  H   H6        1.0  0.2359090889173174  0.4191552416876831  0.8945783989829579  1.0000
  H   H7        1.0  0.7359154652841295  0.919152620720183  0.6054212672870775  1.0000
  H   H8        1.0  0.7640857905501119  0.5808472861842728  0.1054216112785582  1.0000
  H   H9        1.0  0.8373296137620583  0.020496553410886496  0.40993411819803777  1.0000
  H   H10       1.0  0.6626522812300661  0.47950493376923475  0.9099338871903413  1.0000
  H   H11       1.0  0.16266171569778012  0.9795004399961016  0.5900649056159537  1.0000
  H   H12       1.0  0.3373346523615197  0.5204953720305667  0.09006661629131679  1.0000
  H   H13       1.0  0.3154972371324191  0.035534694409569995  0.24244255159101874  1.0000
  H   H14       1.0  0.1845037063439676  0.4644680751883641  0.7424408122830926  1.0000
  H   H15       1.0  0.6845097760667612  0.9644656368997885  0.7575584451108313  1.0000
  H   H16       1.0  0.8154987029765265  0.535534462246808  0.2575587047564056  1.0000
  C   C1        1.0  0.018401487915937795  0.05397293893362589  0.3709933769513825  1.0000
  C   C2        1.0  0.48158619842981654  0.44602758506882606  0.8709930457443066  1.0000
  C   C3        1.0  0.9815948614458418  0.9460240608502274  0.6290056468622751  1.0000
  C   C4        1.0  0.518403037101187  0.5539716176670237  0.129007950957778  1.0000
  C   C5        1.0  0.03512357149770653  0.9318007296945154  0.3232739576479132  1.0000
  C   C6        1.0  0.4648634376112069  0.5682014703773745  0.8232744628729591  1.0000
  C   C7        1.0  0.9648754958264261  0.06819737953224347  0.6767250661665186  1.0000
  C   C8        1.0  0.5351289319049356  0.4318010543103269  0.1767265338317472  1.0000
  N   N1        1.0  0.18855254571751354  0.9405933494835281  0.2638476673498076  1.0000
  N   N2        1.0  0.31144956162452786  0.5594083662432252  0.7638466985767849  1.0000
  N   N3        1.0  0.8114590713613125  0.05940477568748999  0.7361518496852993  1.0000
  N   N4        1.0  0.688548035805418  0.44059527106954716  0.23615281846397806  1.0000
  N   N5        1.0  0.155691263307169  0.8076932964592344  0.2340431663284619  1.0000
  N   N6        1.0  0.34431839321035795  0.692308176325042  0.7340424201726847  1.0000
  N   N7        1.0  0.8443257896962136  0.19230704759968376  0.7659568439296862  1.0000
  N   N8        1.0  0.6556863180494047  0.3076932580482675  0.265958083308746  1.0000
  N   N9        1.0  0.9851343259070828  0.7194516858940859  0.2748265356654258  1.0000
  N   N10       1.0  0.5148693300506294  0.7805496594269314  0.7748264779095848  1.0000
  N   N11       1.0  0.014880009134259388  0.2805475487177488  0.7251724881489352  1.0000
  N   N12       1.0  0.4851305693184144  0.21945287482607506  0.22517451879462413  1.0000
  N   N13       1.0  0.9047812071367927  0.7920443724780026  0.3302114334622317  1.0000
  N   N14       1.0  0.5952173930116302  0.7079574357040669  0.8302132137389862  1.0000
  N   N15       1.0  0.09522789999154208  0.20795374949831566  0.6697866039084985  1.0000
  N   N16       1.0  0.4047774864551527  0.29204509217624514  0.1697887694085907  1.0000
  Cl  Cl1       1.0  0.42280223122494204  0.8116745915146736  0.48413457348423344  1.0000
  Cl  Cl2       1.0  0.07719639130484517  0.6883245623248654  0.9841363226521195  1.0000
  Cl  Cl3       1.0  0.5771995540618775  0.18832462715081988  0.5158634638879248  1.0000
  Cl  Cl4       1.0  0.9228001660673611  0.3116735437259947  0.0158656604915635  1.0000
  Cl  Cl5       1.0  0.12489397131636785  0.4557243801322314  0.40434929757236654  1.0000
  Cl  Cl6       1.0  0.3751135649999426  0.044275345729857876  0.904351253692056  1.0000
  Cl  Cl7       1.0  0.8751101159097131  0.5442737354713926  0.5956497262417244  1.0000
  Cl  Cl8       1.0  0.6248907302364015  0.955723876142869  0.09565122267357398  1.0000
