data_image0
_chemical_formula_structural       Zn8H52C64O26F8
_chemical_formula_sum              "Zn8 H52 C64 O26 F8"
_cell_length_a       17.913332229421503
_cell_length_b       18.517374205688814
_cell_length_c       20.154532850224566
_cell_angle_alpha    61.56992381758944
_cell_angle_beta     63.749227721621196
_cell_angle_gamma    90.01229293747058

_space_group_name_H-M_alt    "P 1"
_space_group_IT_number       1

loop_
  _space_group_symop_operation_xyz
  'x, y, z'

loop_
  _atom_site_type_symbol
  _atom_site_label
  _atom_site_symmetry_multiplicity
  _atom_site_fract_x
  _atom_site_fract_y
  _atom_site_fract_z
  _atom_site_occupancy
  Zn  Zn1       1.0  0.1289629516523476  0.5418953715604929  0.9245186898427917  1.0000
  Zn  Zn2       1.0  0.9621298878442559  0.5506130566781877  0.0674290384125982  1.0000
  Zn  Zn3       1.0  0.9693359972885388  0.3806337757159212  0.06237651077587709  1.0000
  Zn  Zn4       1.0  0.9536561070405655  0.5428242806533705  0.9130280277551748  1.0000
  Zn  Zn5       1.0  0.37840742335114896  0.9704939359189312  0.062013144537857605  1.0000
  Zn  Zn6       1.0  0.5419882398576517  0.12732462655768018  0.9192647389725581  1.0000
  Zn  Zn7       1.0  0.5378884042942997  0.9574906306261255  0.915831132612361  1.0000
  Zn  Zn8       1.0  0.5567547455114265  0.96219211827718  0.06701466540516782  1.0000
  H   H1        1.0  0.21371272538704736  0.8422725605859965  0.31453313843447733  1.0000
  H   H2        1.0  0.3016864545115963  0.6670466929614705  0.6689492989809979  1.0000
  H   H3        1.0  0.6641675549381247  0.2982647584162947  0.6628572129458236  1.0000
  H   H4        1.0  0.8371090964524157  0.20913652560845722  0.32019814029441557  1.0000
  H   H5        1.0  0.21489490484237433  0.31471767253593436  0.8844309110971623  1.0000
  H   H6        1.0  0.13067119033944136  0.22933642373819663  0.9851615974829357  1.0000
  H   H7        1.0  0.22209764689739572  0.1395098382619936  0.9802656949351418  1.0000
  H   H8        1.0  0.3064773051164875  0.22604316581575304  0.8807581115204783  1.0000
  H   H9        1.0  0.2011589068318146  0.10970235553723742  0.12357325044857248  1.0000
  H   H10       1.0  0.27234331951783014  0.17256504888505478  0.12661852525564404  1.0000
  H   H11       1.0  0.11198324611590488  0.20200770249565633  0.1272301928677919  1.0000
  H   H12       1.0  0.1852966882442857  0.2656747981051879  0.12740643957123862  1.0000
  H   H13       1.0  0.31953618286829766  0.4082194016620236  0.8842134115013991  1.0000
  H   H14       1.0  0.30643171532236096  0.3893457326003826  0.9832814298021619  1.0000
  H   H15       1.0  0.3951252798798208  0.2967452042375528  0.9837951634305995  1.0000
  H   H16       1.0  0.41006087583912165  0.317562344807314  0.883544488363448  1.0000
  H   H17       1.0  0.9068553435723528  0.8157711826410079  0.8768275504667501  1.0000
  H   H18       1.0  0.8882777204869611  0.7909347131728596  0.9801780512095633  1.0000
  H   H19       1.0  0.7989724733440509  0.8829450588485274  0.9804098908076072  1.0000
  H   H20       1.0  0.8171508329865914  0.9063297689405302  0.877613008229723  1.0000
  H   H21       1.0  0.6768928990937295  0.760522812290027  0.1185829489596486  1.0000
  H   H22       1.0  0.6061010512408345  0.697406328910546  0.1154920532359256  1.0000
  H   H23       1.0  0.7650219982770636  0.667276567693527  0.11801201159801884  1.0000
  H   H24       1.0  0.6949231128958716  0.6060277879352752  0.1125533098203206  1.0000
  H   H25       1.0  0.8079483991804821  0.7268170560951148  0.8680327233785975  1.0000
  H   H26       1.0  0.7220628958762206  0.6404123027062455  0.963813552168773  1.0000
  H   H27       1.0  0.6311494178773457  0.7306062983167578  0.9671832253468297  1.0000
  H   H28       1.0  0.7166205872878776  0.8165803713240792  0.8705811830747906  1.0000
  H   H29       1.0  0.17499810545615443  0.8067988480537593  0.9180414959962349  1.0000
  H   H30       1.0  0.26543282968094656  0.7763608944510094  0.86473934704636  1.0000
  H   H31       1.0  0.35481068761442464  0.8723225864313593  0.860562091068573  1.0000
  H   H32       1.0  0.2636751592969018  0.9013169067077557  0.9150595917261555  1.0000
  H   H33       1.0  0.4011316850371641  0.7506361668906152  0.9462868985332094  1.0000
  H   H34       1.0  0.34470639805106623  0.6941211953547466  0.06147969944539971  1.0000
  H   H35       1.0  0.31033999907231885  0.6537429737078497  0.9524039225321418  1.0000
  H   H36       1.0  0.253295754960682  0.5991324715084189  0.06751216545605132  1.0000
  H   H37       1.0  0.09131513564564389  0.726815489085844  0.08407728208398883  1.0000
  H   H38       1.0  0.1227345303004554  0.6415987108687846  0.1450799119969446  1.0000
  H   H39       1.0  0.21372523076414038  0.7359840222977782  0.1409839224766856  1.0000
  H   H40       1.0  0.1814786516709432  0.821045713776172  0.0808865887823629  1.0000
  H   H41       1.0  0.9120911534281361  0.27989818442596  0.9068917515778809  1.0000
  H   H42       1.0  0.8752587160911673  0.3635770289337401  0.8497283580861679  1.0000
  H   H43       1.0  0.7891029649025614  0.26596318291483817  0.8527476324523209  1.0000
  H   H44       1.0  0.8237104278470252  0.18228701910587838  0.9129910822514803  1.0000
  H   H45       1.0  0.6599321588069526  0.30746136918258327  0.9306629013868247  1.0000
  H   H46       1.0  0.6004975543158296  0.2510359133394288  0.045801568603465605  1.0000
  H   H47       1.0  0.7467694604677814  0.40233090643832276  0.9304457497749112  1.0000
  H   H48       1.0  0.6882262886925616  0.3439186642168082  0.04562702354713371  1.0000
  H   H49       1.0  0.829252543634311  0.19453206315470345  0.0729488654836743  1.0000
  H   H50       1.0  0.7393956028288784  0.22145980750954666  0.1304220853145139  1.0000
  H   H51       1.0  0.6480785010128753  0.1287253141224554  0.1331430845734474  1.0000
  H   H52       1.0  0.7376158934357518  0.09905478375269891  0.0791391744725232  1.0000
  C   C1        1.0  0.1403304608351164  0.6362251548604904  0.0037967821836630993  1.0000
  C   C2        1.0  0.8826056895311323  0.37868708942796303  0.2273081057008568  1.0000
  C   C3        1.0  0.14596780126406367  0.3647695106579434  0.9990453752741287  1.0000
  C   C4        1.0  0.8636740497795826  0.36774818617287525  0.9865752355331525  1.0000
  C   C5        1.0  0.12955568111212995  0.6228651122417831  0.7566662980244773  1.0000
  C   C6        1.0  0.8629476442362147  0.6440408233986757  0.9864845343877776  1.0000
  C   C7        1.0  0.36399433617031446  0.1447320449859504  0.9947571450522333  1.0000
  C   C8        1.0  0.6150959424995149  0.12868871107599486  0.7556035326761901  1.0000
  C   C9        1.0  0.3586098333069571  0.8644507916574541  0.995594656654845  1.0000
  C   C10       1.0  0.6442565730637925  0.8646184706944738  0.9896319258751944  1.0000
  C   C11       1.0  0.3851603505939351  0.8865277675809791  0.2266082664697109  1.0000
  C   C12       1.0  0.6481962663500834  0.14005107382025986  0.9909690419218223  1.0000
  C   C13       1.0  0.36006137116645925  0.8084904587586763  0.3821991469863804  1.0000
  C   C14       1.0  0.23867737944898693  0.8197623926190687  0.3592188920129971  1.0000
  C   C15       1.0  0.18295557851637057  0.7755086051704723  0.4473489896455122  1.0000
  C   C16       1.0  0.21175894705491058  0.7450712868536015  0.5089310353577617  1.0000
  C   C17       1.0  0.15555420012434953  0.6993652445196192  0.6009942170205916  1.0000
  C   C18       1.0  0.27679491585996635  0.6888232542758316  0.6242108074451524  1.0000
  C   C19       1.0  0.33258545368018116  0.732511570483979  0.5360371949113301  1.0000
  C   C20       1.0  0.303920132789564  0.7626853985274238  0.4743371119919999  1.0000
  C   C21       1.0  0.32927389876972774  0.8372543219660074  0.324278098205987  1.0000
  C   C22       1.0  0.18615752619646023  0.6710668279640897  0.6591109261089444  1.0000
  C   C23       1.0  0.6934018370646413  0.15330668822585383  0.6027475466605735  1.0000
  C   C24       1.0  0.6858132459715804  0.2734682390804295  0.620157325697086  1.0000
  C   C25       1.0  0.7317210354240798  0.3281106577453485  0.5315590902594992  1.0000
  C   C26       1.0  0.7612556970429335  0.2991881571185431  0.47265927606382263  1.0000
  C   C27       1.0  0.8078722857395916  0.35413770273719086  0.38023041835410254  1.0000
  C   C28       1.0  0.8156212247251347  0.23392839295613752  0.3629019342634621  1.0000
  C   C29       1.0  0.7710565222650985  0.17928765898980714  0.45152186218347623  1.0000
  C   C30       1.0  0.7413012359519512  0.20824990345221278  0.510375258086228  1.0000
  C   C31       1.0  0.6654167275522697  0.18409627422161645  0.6580345093026878  1.0000
  C   C32       1.0  0.8346943576430303  0.32332086257549253  0.32496896655771934  1.0000
  C   C33       1.0  0.19840327949913203  0.26475813991127245  0.9510137648941213  1.0000
  C   C34       1.0  0.25884879289517226  0.20512334322156534  0.9485840839561135  1.0000
  C   C35       1.0  0.3070182597888903  0.20550871763433798  0.9960327400743623  1.0000
  C   C36       1.0  0.23896997999842273  0.1750241600341198  0.0913193753054742  1.0000
  C   C37       1.0  0.18012039397542165  0.23624745453690113  0.09278657981739262  1.0000
  C   C38       1.0  0.2065584993499314  0.3072270097121362  0.9985849508679792  1.0000
  C   C39       1.0  0.3009433459424499  0.35736493001890324  0.9509729398648403  1.0000
  C   C40       1.0  0.36033160473244397  0.2968206007343782  0.9505079634165341  1.0000
  C   C41       1.0  0.8560246567841148  0.7933568116140678  0.9440562961235912  1.0000
  C   C42       1.0  0.7963475254468404  0.8540230470347013  0.9446277234186342  1.0000
  C   C43       1.0  0.7019429223242709  0.8041159851615874  0.9883261432893563  1.0000
  C   C44       1.0  0.6739683538055626  0.7320458504896408  0.08258273009608533  1.0000
  C   C45       1.0  0.732983356245377  0.6710645994050495  0.0814076764078564  1.0000
  C   C46       1.0  0.8025959711713494  0.7021100665795501  0.9865026124786525  1.0000
  C   C47       1.0  0.7584398100120421  0.7052492210012105  0.935315749353741  1.0000
  C   C48       1.0  0.698311716478898  0.7651216390004195  0.9370101522012888  1.0000
  C   C49       1.0  0.23074396621575494  0.7836521422813406  0.9208392448675085  1.0000
  C   C50       1.0  0.2900703607927966  0.8468066451228823  0.9183900297250746  1.0000
  C   C51       1.0  0.29819504215937087  0.8012271356122226  0.0012699071863551024  1.0000
  C   C52       1.0  0.336475192678428  0.7257464049847897  0.004022907026339301  1.0000
  C   C53       1.0  0.27617942702013204  0.6623030513882214  0.007633142254149998  1.0000
  C   C54       1.0  0.19743107976945135  0.6950861357896585  0.0058792076358998  1.0000
  C   C55       1.0  0.147945080274333  0.7045877515833607  0.08465894080491412  1.0000
  C   C56       1.0  0.20787403109383723  0.7671822413433914  0.0821556943129096  1.0000
  C   C57       1.0  0.8538185819210256  0.2999554925530816  0.9085260856333691  1.0000
  C   C58       1.0  0.7955511967395734  0.23555082443497347  0.9111870323287194  1.0000
  C   C59       1.0  0.7044922210778424  0.19978618989244265  0.9929740253103959  1.0000
  C   C60       1.0  0.6661551736012113  0.27559960909737663  0.9891624815466714  1.0000
  C   C61       1.0  0.7243618314765072  0.338140884632395  0.9885964949415751  1.0000
  C   C62       1.0  0.8034090511704264  0.30612743883269655  0.9901432475694917  1.0000
  C   C63       1.0  0.7726411289762396  0.21679319277252776  0.07243222495706192  1.0000
  C   C64       1.0  0.7126705648003478  0.1543094034756578  0.07502581734829049  1.0000
  O   O1        1.0  0.0025502943576114026  0.5051954166385427  0.9908115117737211  1.0000
  O   O2        1.0  0.17835649120527813  0.6164508306787371  0.9466204211461645  1.0000
  O   O3        1.0  0.893889749240074  0.45880444571092477  0.19200520423390094  1.0000
  O   O4        1.0  0.06516614601232357  0.32779651781488883  0.045400200755239  1.0000
  O   O5        1.0  0.0593752229026521  0.6127680973148343  0.05713492476021292  1.0000
  O   O6        1.0  0.17980825336949374  0.4450074469070275  0.9522249290284182  1.0000
  O   O7        1.0  0.9076803305703294  0.3386296893515279  0.1878479852769033  1.0000
  O   O8        1.0  0.8936229355479668  0.3344973945006942  0.0379917198618855  1.0000
  O   O9        1.0  0.0480246060332233  0.6065940873481922  0.7893699244346096  1.0000
  O   O10       1.0  0.881027146828501  0.44729759458564183  0.9318535276684871  1.0000
  O   O11       1.0  0.17029331644167905  0.6022912622416071  0.7986089975387574  1.0000
  O   O12       1.0  0.8925500163622287  0.6280545487950774  0.037819021298602706  1.0000
  O   O13       1.0  0.8801383849962503  0.6167591470013534  0.9353779327120508  1.0000
  O   O14       1.0  0.50454054869909  0.0029020888285699632  0.9921599663118884  1.0000
  O   O15       1.0  0.3257738332073288  0.0659245198448062  0.035556628359025  1.0000
  O   O16       1.0  0.5881542846014013  0.1685126134515756  0.7951854532923832  1.0000
  O   O17       1.0  0.4376020549165175  0.8901386414084416  0.9354374865473147  1.0000
  O   O18       1.0  0.4454172886038846  0.17663647247773195  0.9528543573418915  1.0000
  O   O19       1.0  0.32603567143177503  0.887604842024494  0.050432136206971706  1.0000
  O   O20       1.0  0.6036220088633966  0.04853690045074904  0.7909390829886294  1.0000
  O   O21       1.0  0.6117728937775198  0.8831411406926292  0.9405105031237468  1.0000
  O   O22       1.0  0.46603208854913464  0.8940889161258173  0.1926547934712204  1.0000
  O   O23       1.0  0.6331114441384785  0.8923052368988351  0.0397100113727262  1.0000
  O   O24       1.0  0.3441276205057662  0.916864975232322  0.18574749103540003  1.0000
  O   O25       1.0  0.6312416983456827  0.17470340747320998  0.9290534487201186  1.0000
  O   O26       1.0  0.6228499232853507  0.060968294300664604  0.04965669822947661  1.0000
  F   F1        1.0  0.4184993830440932  0.7470062855705637  0.5075875473915659  1.0000
  F   F2        1.0  0.44575282488163737  0.8244875749883677  0.35191311046252594  1.0000
  F   F3        1.0  0.09705225248098509  0.7608953226922355  0.4757450141821664  1.0000
  F   F4        1.0  0.06997254406102361  0.6840295945678818  0.6308256786388284  1.0000
  F   F5        1.0  0.7551946944706243  0.0944333224819047  0.48321369856955704  1.0000
  F   F6        1.0  0.6746361627374711  0.06882028294333516  0.6358109754653825  1.0000
  F   F7        1.0  0.7488200939002282  0.4129416020827462  0.4998989262945984  1.0000
  F   F8        1.0  0.8258222236394203  0.43865639232463854  0.34709355250669205  1.0000
