data_image0
_chemical_formula_structural       Cd2H22C40N6O12
_chemical_formula_sum              "Cd2 H22 C40 N6 O12"
_cell_length_a       7.377946925113828
_cell_length_b       10.279916192000018
_cell_length_c       11.813792528692309
_cell_angle_alpha    85.2518773436587
_cell_angle_beta     80.5572299081285
_cell_angle_gamma    78.94832437443372

_space_group_name_H-M_alt    "P 1"
_space_group_IT_number       1

loop_
  _space_group_symop_operation_xyz
  'x, y, z'

loop_
  _atom_site_type_symbol
  _atom_site_label
  _atom_site_symmetry_multiplicity
  _atom_site_fract_x
  _atom_site_fract_y
  _atom_site_fract_z
  _atom_site_occupancy
  Cd  Cd1       1.0  0.8071743301019298  0.11573188419482253  0.09958083394450057  1.0000
  Cd  Cd2       1.0  0.1928213893422496  0.8842695445574406  0.9004174124851757  1.0000
  H   H1        1.0  0.39792118113663116  0.23399476350135745  0.2666075593798993  1.0000
  H   H2        1.0  0.6020872631456413  0.7659995579852465  0.7333957383724081  1.0000
  H   H3        1.0  0.25520630614069967  0.4273554885580142  0.3853835479089938  1.0000
  H   H4        1.0  0.7447967804811101  0.5726439004893464  0.6146149132227023  1.0000
  H   H5        1.0  0.43757110489564616  0.61064406104056  0.3884175749150955  1.0000
  H   H6        1.0  0.5624262216099821  0.3893564073005963  0.6115780252342162  1.0000
  H   H7        1.0  0.7314576426797998  0.700563198852386  0.3220439501086502  1.0000
  H   H8        1.0  0.2685413263637884  0.29943617475544937  0.6779574737074155  1.0000
  H   H9        1.0  0.05011858831896631  0.673183810153077  0.2085064279221598  1.0000
  H   H10       1.0  0.9498820019766753  0.32681454931476145  0.7914957375923847  1.0000
  H   H11       1.0  0.30290917078642104  0.5447127216729372  0.0793396219309912  1.0000
  H   H12       1.0  0.6970939406689497  0.4552865733488646  0.9206647681636823  1.0000
  H   H13       1.0  0.4285866808816294  0.33176402482947503  0.9738027722542313  1.0000
  H   H14       1.0  0.5714166863950183  0.6682342240413847  0.026205041089802695  1.0000
  H   H15       1.0  0.22935468568051215  0.16113230598485026  0.9895764856307635  1.0000
  H   H16       1.0  0.7706514160053288  0.8388659934756934  0.010426811606222884  1.0000
  H   H17       1.0  0.544544956005268  0.9138979976571666  0.441478366506999  1.0000
  H   H18       1.0  0.4554530918447456  0.08609950685004723  0.5585164924591552  1.0000
  H   H19       1.0  0.28482790405065816  0.8508363206823547  0.5891802664352426  1.0000
  H   H20       1.0  0.7151703188149839  0.14916611078498224  0.4108159696010034  1.0000
  H   H21       1.0  0.9570545868674215  0.8480552672936595  0.3194407723334507  1.0000
  H   H22       1.0  0.04293903515865341  0.15194913357826323  0.6805583558461236  1.0000
  C   C1        1.0  0.47527693920870456  0.3133970894009294  0.2708807290593356  1.0000
  C   C2        1.0  0.5247301183568924  0.6865972806680533  0.7291201682755926  1.0000
  C   C3        1.0  0.3946419330316218  0.4235710886378783  0.33689264735832586  1.0000
  C   C4        1.0  0.6053611571378354  0.5764282869772617  0.6631066607680794  1.0000
  C   C5        1.0  0.4951997192975099  0.5234168213301588  0.3386306359704534  1.0000
  C   C6        1.0  0.5047978630293956  0.4765826008600556  0.6613683874282187  1.0000
  C   C7        1.0  0.676873738655651  0.5128119558058303  0.27521213402081907  1.0000
  C   C8        1.0  0.3231282277137097  0.48718639537629127  0.7247898909269849  1.0000
  C   C9        1.0  0.7887711523078594  0.6123913736648846  0.27360442823609776  1.0000
  C   C10       1.0  0.2112317068738747  0.3876089540756383  0.7263973856039244  1.0000
  C   C11       1.0  0.9639319461294278  0.5977751682402969  0.2113765203846043  1.0000
  C   C12       1.0  0.0360702654182674  0.40222217708754476  0.7886263868284259  1.0000
  C   C13       1.0  0.04063641767261568  0.48321905660970543  0.146966276179505  1.0000
  C   C14       1.0  0.9593653035184174  0.5167803004266959  0.8530348665030658  1.0000
  C   C15       1.0  0.2212654118244117  0.466186094585396  0.08166924206231839  1.0000
  C   C16       1.0  0.7787393066924081  0.5338122400253058  0.9183325017519974  1.0000
  C   C17       1.0  0.2895227879736524  0.351529230307385  0.023761542825241098  1.0000
  C   C18       1.0  0.7104851801425695  0.6484670491588888  0.9762433783754574  1.0000
  C   C19       1.0  0.17656994031852957  0.25459910992204726  0.030882356318521396  1.0000
  C   C20       1.0  0.8234345472105602  0.7454001768140445  0.9691218932094045  1.0000
  C   C21       1.0  0.9344253853541605  0.38180313603025695  0.14695774204252388  1.0000
  C   C22       1.0  0.06557933671030719  0.618195185148224  0.8530448487664941  1.0000
  C   C23       1.0  0.7480022158780956  0.3973265681442798  0.21159493026542003  1.0000
  C   C24       1.0  0.2520027336264405  0.6026708143410319  0.7884043078352719  1.0000
  C   C25       1.0  0.5457768487410065  0.9720544685641955  0.2178282395396209  1.0000
  C   C26       1.0  0.4542218573859956  0.02794597805903011  0.7821680670376593  1.0000
  C   C27       1.0  0.39840912149541197  0.914067911358444  0.2991567503063591  1.0000
  C   C28       1.0  0.6015907226222907  0.08593350596889592  0.7008402274283655  1.0000
  C   C29       1.0  0.41582473766275285  0.8975520065496384  0.41613611744270423  1.0000
  C   C30       1.0  0.5841737197382673  0.10244945936008071  0.5838584598746337  1.0000
  C   C31       1.0  0.2732629680151746  0.8618627020149887  0.4981439817675408  1.0000
  C   C32       1.0  0.7267313682599834  0.1381387618874328  0.501852711239458  1.0000
  C   C33       1.0  0.11054968041072036  0.8443279938668199  0.4602258226539959  1.0000
  C   C34       1.0  0.8894464450368247  0.1556774097201767  0.5397712951321479  1.0000
  C   C35       1.0  0.08913117105007726  0.8580014809937995  0.3444323642154714  1.0000
  C   C36       1.0  0.9108592226624949  0.14200489442921344  0.6555686685459818  1.0000
  C   C37       1.0  0.23594755625634173  0.8892477074273802  0.2626778767204385  1.0000
  C   C38       1.0  0.7640417101084865  0.11075765699484923  0.7373250258676975  1.0000
  C   C39       1.0  0.2219710977923626  0.8813096553401751  0.13762768269813813  1.0000
  C   C40       1.0  0.7780222896983348  0.11869571108935872  0.8623731042003371  1.0000
  N   N1        1.0  0.6461033664556552  0.3007154298961581  0.2104912029451995  1.0000
  N   N2        1.0  0.3539004592487914  0.6992809281561422  0.7895107519768914  1.0000
  N   N3        1.0  0.004054302229633308  0.27016361830630586  0.08902729388012891  1.0000
  N   N4        1.0  0.9959471773307274  0.7298367311521545  0.9109738135319246  1.0000
  N   N5        1.0  0.9561439159004337  0.8092554209838669  0.544700817005257  1.0000
  N   N6        1.0  0.04385480086951789  0.19074498534268974  0.45529803055615753  1.0000
  O   O1        1.0  0.5003523778092784  0.0342810486062817  0.1269280650590829  1.0000
  O   O2        1.0  0.49964908401282315  0.9657193680132894  0.8730688073794112  1.0000
  O   O3        1.0  0.7067733285818818  0.9641951653903862  0.24850819932114376  1.0000
  O   O4        1.0  0.2932219813112837  0.03580230195935741  0.7514903287573417  1.0000
  O   O5        1.0  0.8176762243216376  0.7847882290589611  0.5083668422133982  1.0000
  O   O6        1.0  0.18232322798330367  0.21520915970475576  0.491634652143695  1.0000
  O   O7        1.0  0.9706311834124222  0.8048340271035179  0.6483024447265393  1.0000
  O   O8        1.0  0.0293707723139889  0.19516436437527324  0.3516970392371235  1.0000
  O   O9        1.0  0.31724016068520916  0.7805901038391173  0.08858830423145034  1.0000
  O   O10       1.0  0.6827434263690934  0.2194103667658354  0.9114137835535772  1.0000
  O   O11       1.0  0.10848013562964101  0.9684577509256657  0.08788663267409899  1.0000
  O   O12       1.0  0.8915182622516371  0.03154960750179471  0.9121109804322315  1.0000
