data_image0
_chemical_formula_structural       Mg2H14C10O14
_chemical_formula_sum              "Mg2 H14 C10 O14"
_cell_length_a       5.929800224738857
_cell_length_b       7.316374958755941
_cell_length_c       8.987533571979181
_cell_angle_alpha    105.39442632015927
_cell_angle_beta     105.63927804392863
_cell_angle_gamma    97.20901412536423

_space_group_name_H-M_alt    "P 1"
_space_group_IT_number       1

loop_
  _space_group_symop_operation_xyz
  'x, y, z'

loop_
  _atom_site_type_symbol
  _atom_site_label
  _atom_site_symmetry_multiplicity
  _atom_site_fract_x
  _atom_site_fract_y
  _atom_site_fract_z
  _atom_site_occupancy
  Mg  Mg1       1.0  0.006573140313548736  0.8227105209755124  0.6894693744988629  1.0000
  Mg  Mg2       1.0  0.9934278473611399  0.1772902461098411  0.31053163705150416  1.0000
  H   H1        1.0  0.22412855667694487  0.9644930302099295  0.04532222960368413  1.0000
  H   H2        1.0  0.7758716513569438  0.03550483549875591  0.9546780210331393  1.0000
  H   H3        1.0  0.3482571970049335  0.0540395401025364  0.9410705311780561  1.0000
  H   H4        1.0  0.65174203301612  0.9459612379519485  0.05893127680130314  1.0000
  H   H5        1.0  0.26657023858106044  0.71187367050117  0.5082009076757785  1.0000
  H   H6        1.0  0.7334286186713825  0.2881256505894285  0.49179829625584404  1.0000
  H   H7        1.0  0.2698437562269405  0.5619385242860417  0.6080613105880985  1.0000
  H   H8        1.0  0.7301554823200008  0.4380622506306721  0.39193938559577657  1.0000
  H   H9        1.0  0.7031665690390199  0.07347096832167921  0.7090126085851197  1.0000
  H   H10       1.0  0.29683577794300925  0.9265283402439835  0.290988337874964  1.0000
  H   H11       1.0  0.5698069675867075  0.8630224241565683  0.7036909721082693  1.0000
  H   H12       1.0  0.43019324044718144  0.13697544155211014  0.29630927852855393  1.0000
  H   H13       1.0  0.0888071620060487  0.3122206991384431  0.9350183565505575  1.0000
  H   H14       1.0  0.9111934443741347  0.6877786141208092  0.06498116274755017  1.0000
  C   C1        1.0  0.24331383162405734  0.23810982886309523  0.6734598499325983  1.0000
  C   C2        1.0  0.7566858052691785  0.7618923936041853  0.32654011491256096  1.0000
  C   C3        1.0  0.37969952710629684  0.3723547805365469  0.8420849631440035  1.0000
  C   C4        1.0  0.6202997114406443  0.6276459943801598  0.1579157330398786  1.0000
  C   C5        1.0  0.2698663420953125  0.39374663466418985  0.9631966761207026  1.0000
  C   C6        1.0  0.730135425220169  0.6062570337978385  0.03680509634320829  1.0000
  C   C7        1.0  0.6134675217125148  0.4784384291513888  0.8800855657988932  1.0000
  C   C8        1.0  0.3865313440658227  0.5215608888014459  0.11991252633724517  1.0000
  C   C9        1.0  0.7426584550254488  0.45139989527082497  0.7560293257426949  1.0000
  C   C10       1.0  0.2573425326492398  0.5486008718145284  0.24397168580767206  1.0000
  O   O1        1.0  0.17087406526895418  0.0638665319512484  0.6602715436911808  1.0000
  O   O2        1.0  0.8291251732779938  0.9361342429654654  0.33972915249269414  1.0000
  O   O3        1.0  0.2087996328294039  0.3104227792948252  0.5564942680115905  1.0000
  O   O4        1.0  0.7912031210248146  0.6895779736836402  0.44350483531429324  1.0000
  O   O5        1.0  0.8674524380454542  0.5995559110420956  0.749311578988781  1.0000
  O   O6        1.0  0.13254991746246964  0.4004433943857962  0.2506882556758185  1.0000
  O   O7        1.0  0.7207198979426224  0.2785751008532671  0.6653901885874518  1.0000
  O   O8        1.0  0.27928108120616457  0.7214256693698642  0.3346119347584064  1.0000
  O   O9        1.0  0.23875384604133387  0.9382936822223867  0.9338633491539099  1.0000
  O   O10       1.0  0.7612436519037686  0.06170709738790951  0.06613591986799612  1.0000
  O   O11       1.0  0.28520284035618454  0.7038597377448356  0.6218848933691774  1.0000
  O   O12       1.0  0.7147981473185041  0.29614102934051795  0.3781161181811896  1.0000
  O   O13       1.0  0.7278118222889489  0.9570467747162256  0.7460460839173493  1.0000
  O   O14       1.0  0.2721883857449399  0.0429510909924531  0.2539541667194741  1.0000
