data_image0
_chemical_formula_structural       Zn2H24C44N8Cl4O12
_chemical_formula_sum              "Zn2 H24 C44 N8 Cl4 O12"
_cell_length_a       7.3048919690271
_cell_length_b       9.078854750161728
_cell_length_c       15.296649709314458
_cell_angle_alpha    90.00032332339404
_cell_angle_beta     92.49365953790091
_cell_angle_gamma    89.99937165085888

_space_group_name_H-M_alt    "P 1"
_space_group_IT_number       1

loop_
  _space_group_symop_operation_xyz
  'x, y, z'

loop_
  _atom_site_type_symbol
  _atom_site_label
  _atom_site_symmetry_multiplicity
  _atom_site_fract_x
  _atom_site_fract_y
  _atom_site_fract_z
  _atom_site_occupancy
  Zn  Zn1       1.0  0.5000011279717285  2.3998708016000004e-06  0.5000028117318038  1.0000
  Zn  Zn2       1.0  0.9999969750522693  0.5000037577622081  0.500001233052487  1.0000
  H   H1        1.0  0.35439326253773373  0.5043810947375392  0.6131765493084984  1.0000
  H   H2        1.0  0.14559577528672213  0.0043894496070607004  0.3868175190895685  1.0000
  H   H3        1.0  0.6455942601959422  0.49562097893922924  0.3868257968455283  1.0000
  H   H4        1.0  0.8543904306630382  0.9956170299015812  0.6131815260220963  1.0000
  H   H5        1.0  0.5298003058642423  0.7276073456366848  0.7451388297846082  1.0000
  H   H6        1.0  0.9702072480682704  0.22762252832929875  0.25485901085813384  1.0000
  H   H7        1.0  0.47019543814376874  0.27238481485969146  0.2548637177703697  1.0000
  H   H8        1.0  0.0297940301053146  0.7723828496532334  0.7451404035141993  1.0000
  H   H9        1.0  0.3470535098842262  0.3182411843812219  0.6696118465887226  1.0000
  H   H10       1.0  0.1529478249308269  0.8182561114668091  0.33038421883681224  1.0000
  H   H11       1.0  0.6529409280364434  0.6817542804832897  0.33038674642631355  1.0000
  H   H12       1.0  0.8470534318786209  0.1817470636011579  0.6696165025240932  1.0000
  H   H13       1.0  0.6409962424773212  0.10827198057577192  0.941945748287033  1.0000
  H   H14       1.0  0.8590128194591532  0.6082791107052262  0.05805565565161431  1.0000
  H   H15       1.0  0.35902291253883334  0.8917201797837322  0.05805018149082741  1.0000
  H   H16       1.0  0.1409966158383185  0.3917185570373078  0.9419478811005748  1.0000
  H   H17       1.0  0.3641789970020355  0.04915218940739411  0.6876105140640265  1.0000
  H   H18       1.0  0.1358202629694105  0.5491626887097996  0.3123931060210127  1.0000
  H   H19       1.0  0.6358181171712118  0.950845478385581  0.31239206706850814  1.0000
  H   H20       1.0  0.8641837021533194  0.4508437907374515  0.6876096429712392  1.0000
  H   H21       1.0  0.5137695522219872  0.9405928150571654  0.8241512077815757  1.0000
  H   H22       1.0  0.9862310532326932  0.44060818708359056  0.17584913099366165  1.0000
  H   H23       1.0  0.48624140299279633  0.059394939489614315  0.17584321358201294  1.0000
  H   H24       1.0  0.013774239363271995  0.5593938865285609  0.8241562655450213  1.0000
  C   C1        1.0  0.416437276752454  0.7295709760178754  0.5846940652944783  1.0000
  C   C2        1.0  0.08355845003178791  0.2295801628169443  0.4152969920452919  1.0000
  C   C3        1.0  0.5835475162820458  0.2704288947465586  0.41530756022171295  1.0000
  C   C4        1.0  0.9164291474763575  0.7704296210608066  0.5847007796487632  1.0000
  C   C5        1.0  0.3374454549814914  0.7149743124796972  0.4897270796482759  1.0000
  C   C6        1.0  0.162540776435236  0.2149903257816846  0.5102695804314054  1.0000
  C   C7        1.0  0.6625434700434311  0.2850244567998815  0.5102733395823054  1.0000
  C   C8        1.0  0.8374522911896137  0.7850194580754465  0.489728979035789  1.0000
  C   C9        1.0  0.41213590847737436  0.6047427508732639  0.6413071970935393  1.0000
  C   C10       1.0  0.08786970533925138  0.10475244975341273  0.3586823805403229  1.0000
  C   C11       1.0  0.5878502120231134  0.3952538155165827  0.35869707597072426  1.0000
  C   C12       1.0  0.9121151624552084  0.8952573341330424  0.6413146705192008  1.0000
  C   C13       1.0  0.5689968020018555  0.30325028371932927  0.8688394899073375  1.0000
  C   C14       1.0  0.9310001961224544  0.8032607857456285  0.13115638196975254  1.0000
  C   C15       1.0  0.43100858687782323  0.6967396737981416  0.13116002514979644  1.0000
  C   C16       1.0  0.069003811801096  0.19673908492564615  0.8688437530288625  1.0000
  C   C17       1.0  0.4822764861845529  0.6173898188291107  0.7259861889812103  1.0000
  C   C18       1.0  0.017730331211836897  0.11740152390782305  0.2740034601302953  1.0000
  C   C19       1.0  0.5177192791730789  0.3826067475028624  0.2740150515885135  1.0000
  C   C20       1.0  0.982268174505279  0.8826016511752922  0.7259978475879338  1.0000
  C   C21       1.0  0.5127883028510853  0.5130222169017816  0.7925493016423248  1.0000
  C   C22       1.0  0.9872180315016551  0.013035684667954702  0.20744387416759485  1.0000
  C   C23       1.0  0.48720739840689486  0.48696884214699315  0.20745585989472914  1.0000
  C   C24       1.0  0.012784638252078696  0.9869696933021576  0.792554266782176  1.0000
  C   C25       1.0  0.5989896128198496  0.5370120510333509  0.8767424885948433  1.0000
  C   C26       1.0  0.9010122949158659  0.03702216607094751  0.12325065840361304  1.0000
  C   C27       1.0  0.40100746934346904  0.4629768050852122  0.12326205301228303  1.0000
  C   C28       1.0  0.09899861746907848  0.962976603093864  0.8767463769602062  1.0000
  C   C29       1.0  0.4152826145439691  0.26905103328073215  0.726952131868778  1.0000
  C   C30       1.0  0.08473448327480071  0.7690638095662125  0.2730415414011916  1.0000
  C   C31       1.0  0.5847296680642488  0.7309444314965746  0.273044937059396  1.0000
  C   C32       1.0  0.9152722863941279  0.2309415683892412  0.7269573537524183  1.0000
  C   C33       1.0  0.5776918545357862  0.1508709545896636  0.8814475098997863  1.0000
  C   C34       1.0  0.9223084784017388  0.6508858175297405  0.11855055283108133  1.0000
  C   C35       1.0  0.422308053545116  0.8491179014911554  0.11855187087849121  1.0000
  C   C36       1.0  0.0776982378496029  0.34911515459979375  0.8814516097955903  1.0000
  C   C37       1.0  0.4232016475165282  0.11910483190023063  0.7391508503647375  1.0000
  C   C38       1.0  0.07682009122477501  0.6191175603043819  0.2608470151019732  1.0000
  C   C39       1.0  0.5768174967740266  0.8808928357650602  0.26084573291731067  1.0000
  C   C40       1.0  0.9231797632934332  0.38088891916076056  0.739155633182371  1.0000
  C   C41       1.0  0.5070028125731554  0.0595268307791059  0.8157492298234391  1.0000
  C   C42       1.0  0.9930082830749002  0.5595372949630644  0.18425075460044843  1.0000
  C   C43       1.0  0.49300675103971503  0.9404642281616307  0.18424646496765726  1.0000
  C   C44       1.0  0.006995671387528494  0.44046477864536376  0.8157526478811337  1.0000
  N   N1        1.0  0.49144902410714764  0.35913615064416876  0.7900623552804121  1.0000
  N   N2        1.0  0.008553195639478903  0.8591478925715992  0.20993059879889842  1.0000
  N   N3        1.0  0.5085563754473341  0.6408560097911008  0.20993650628408742  1.0000
  N   N4        1.0  0.9914453421383487  0.14085638396235114  0.7900687484331856  1.0000
  N   N5        1.0  0.6317575912965765  0.4141838577535993  0.9221169853235411  1.0000
  N   N6        1.0  0.8682420987994918  0.9141921996708152  0.0778767057605734  1.0000
  N   N7        1.0  0.3682504845540109  0.585803896847061  0.07788586434855921  1.0000
  N   N8        1.0  0.1317687922140678  0.08580546803993633  0.9221216365934597  1.0000
  Cl  Cl1       1.0  0.6657707706429506  0.7050022961036931  0.9162562951733764  1.0000
  Cl  Cl2       1.0  0.8342427115554261  0.20501482670093912  0.08373246304852702  1.0000
  Cl  Cl3       1.0  0.33423463957909416  0.2949931687098869  0.08374191290015183  1.0000
  Cl  Cl4       1.0  0.1657682649799597  0.7949817395234791  0.9162606513364012  1.0000
  O   O1        1.0  0.4841055769704496  0.8528187069130625  0.6071978335763077  1.0000
  O   O2        1.0  0.015881600365830195  0.35282607701042695  0.39279799977937574  1.0000
  O   O3        1.0  0.5158860350108655  0.14718006237072964  0.3928059202725366  1.0000
  O   O4        1.0  0.9841019079236945  0.6471826054182515  0.607198364213261  1.0000
  O   O5        1.0  0.35979028743288677  0.8267512883874206  0.4407283596871495  1.0000
  O   O6        1.0  0.14020692104185878  0.3267404416875054  0.5592617490346472  1.0000
  O   O7        1.0  0.6402042359225535  0.17325629251691055  0.5592650053785917  1.0000
  O   O8        1.0  0.8597807191945537  0.6732737480193905  0.4407334086822915  1.0000
  O   O9        1.0  0.2578440047335349  0.5977273850945508  0.4658431116769607  1.0000
  O   O10       1.0  0.24216008565365854  0.09770546925694391  0.5341614417204569  1.0000
  O   O11       1.0  0.7421489667091805  0.4022790944100906  0.5341613292486684  1.0000
  O   O12       1.0  0.7578356582382711  0.9023043146076264  0.4658411058609318  1.0000
