data_image0
_chemical_formula_structural       Sm4H32C44N12O28
_chemical_formula_sum              "Sm4 H32 C44 N12 O28"
_cell_length_a       6.849469531514598
_cell_length_b       10.063499621002062
_cell_length_c       18.46093254597694
_cell_angle_alpha    89.99995397012593
_cell_angle_beta     93.59528957209795
_cell_angle_gamma    90.00006054542345

_space_group_name_H-M_alt    "P 1"
_space_group_IT_number       1

loop_
  _space_group_symop_operation_xyz
  'x, y, z'

loop_
  _atom_site_type_symbol
  _atom_site_label
  _atom_site_symmetry_multiplicity
  _atom_site_fract_x
  _atom_site_fract_y
  _atom_site_fract_z
  _atom_site_occupancy
  Sm  Sm1       1.0  0.10996768895870451  0.9971409532919253  0.3755332718928769  1.0000
  Sm  Sm2       1.0  0.8900296807891195  0.4971423968183473  0.12446525581991348  1.0000
  Sm  Sm3       1.0  0.890034510735937  0.0028577135727161  0.624468775026372  1.0000
  Sm  Sm4       1.0  0.10996812122417769  0.5028592511170871  0.8755339823929019  1.0000
  H   H1        1.0  0.8564686289335697  0.5723188291395119  0.3768937379400015  1.0000
  H   H2        1.0  0.1435266565821678  0.07232470162062302  0.12310601063053635  1.0000
  H   H3        1.0  0.1435291785630497  0.4276748692738863  0.6231071254541831  1.0000
  H   H4        1.0  0.8564696807600855  0.9276819147652379  0.8768926524970623  1.0000
  H   H5        1.0  0.7442688319115618  0.6572165255227703  0.5992032135833509  1.0000
  H   H6        1.0  0.255732551507684  0.15721908745329224  0.9007956563453021  1.0000
  H   H7        1.0  0.25572897009881507  0.34278114765224643  0.4007960246302601  1.0000
  H   H8        1.0  0.7442696317231211  0.8427845478654774  0.09920151503361298  1.0000
  H   H9        1.0  0.651842305404095  0.4171359839600656  0.6128592117549516  1.0000
  H   H10       1.0  0.3481609324345741  0.9171396644913729  0.8871422956858691  1.0000
  H   H11       1.0  0.3481555039237066  0.5828597018331366  0.3871421933654274  1.0000
  H   H12       1.0  0.6518441838043431  0.08286297713669913  0.11285710931486648  1.0000
  H   H13       1.0  0.7599004261397155  0.3356476302481752  0.3994418436487307  1.0000
  H   H14       1.0  0.2401025647002513  0.8356516564241264  0.10055904931486027  1.0000
  H   H15       1.0  0.24009738135909237  0.6643490492355397  0.6005590197448568  1.0000
  H   H16       1.0  0.7599010905256022  0.1643539662733531  0.8994408640542415  1.0000
  H   H17       1.0  0.6919924584222984  0.7042053958217097  0.24067354115636158  1.0000
  H   H18       1.0  0.30801032987367455  0.2042072113042083  0.2593246960097203  1.0000
  H   H19       1.0  0.30801119313826314  0.29579227735573  0.7593252887611539  1.0000
  H   H20       1.0  0.6919947900224912  0.7957924492527512  0.7406757924447972  1.0000
  H   H21       1.0  0.6242903842039738  0.8480339824118488  0.35165388008396536  1.0000
  H   H22       1.0  0.3757140767262044  0.34803700490315503  0.1483437908990339  1.0000
  H   H23       1.0  0.37572057975102524  0.1519626970784174  0.648344574895276  1.0000
  H   H24       1.0  0.6242895766662713  0.6519636493442037  0.8516555807444772  1.0000
  H   H25       1.0  0.31265896644705293  0.9357169588654132  0.521195420080083  1.0000
  H   H26       1.0  0.6873442932388939  0.4357177310820788  0.9788044547126658  1.0000
  H   H27       1.0  0.6873461552773678  0.0642807143109323  0.47880561010142475  1.0000
  H   H28       1.0  0.312657899137598  0.5642819294742625  0.0211954253000144  1.0000
  H   H29       1.0  0.3166114045969906  0.7978305645861071  0.4796906808545173  1.0000
  H   H30       1.0  0.683388601249895  0.2978310186361881  0.020309077142442792  1.0000
  H   H31       1.0  0.6833878675772452  0.20216710858781536  0.5203107576230863  1.0000
  H   H32       1.0  0.31661505397229917  0.7021696356107655  0.9796908362276538  1.0000
  C   C1        1.0  0.8070683661210795  0.6324111454828555  0.4866241299125773  1.0000
  C   C2        1.0  0.19293285552817713  0.13241423508875275  0.013374644480904897  1.0000
  C   C3        1.0  0.19293089507336703  0.3675845403132527  0.5133740582058763  1.0000
  C   C4        1.0  0.8070693295338103  0.8675913876098206  0.9866230686242047  1.0000
  C   C5        1.0  0.8789880406900396  0.7722988969181087  0.47708155955945847  1.0000
  C   C6        1.0  0.12100169133805849  0.27230192022916816  0.02291905864961309  1.0000
  C   C7        1.0  0.12100245441506981  0.22769976994288035  0.5229196787722045  1.0000
  C   C8        1.0  0.8789902574678052  0.727702708774963  0.977079504405516  1.0000
  C   C9        1.0  0.8085837183142887  0.5414607203420092  0.4294670745537842  1.0000
  C   C10       1.0  0.1914144456581113  0.041464717967457404  0.0705322114096276  1.0000
  C   C11       1.0  0.19141262084964691  0.4585349654522874  0.5705321303026024  1.0000
  C   C12       1.0  0.8085848137139208  0.958540904730107  0.9294654349802369  1.0000
  C   C13       1.0  0.7473036715510729  0.5886340566246133  0.5536479412969796  1.0000
  C   C14       1.0  0.25269761096274124  0.0886385363300448  0.9463509561989549  1.0000
  C   C15       1.0  0.25269412862811447  0.4113616291705925  0.44635075519044404  1.0000
  C   C16       1.0  0.7473031167434386  0.9113670863668234  0.053648348728309286  1.0000
  C   C17       1.0  0.6961917029353019  0.4557478547483813  0.5611239497904775  1.0000
  C   C18       1.0  0.3038101252115198  0.9557544076318294  0.9388764253183904  1.0000
  C   C19       1.0  0.30380610090186627  0.5442458436658129  0.43887583015052894  1.0000
  C   C20       1.0  0.6961920653396304  0.04425121506555031  0.06112291296649628  1.0000
  C   C21       1.0  0.7551573439348473  0.4104953168354868  0.4420319794225448  1.0000
  C   C22       1.0  0.24484722353457045  0.9104994094683722  0.05797000026578299  1.0000
  C   C23       1.0  0.2448433892539157  0.5895013626492303  0.5579689506862876  1.0000
  C   C24       1.0  0.7551578963659794  0.0895062132292139  0.9420304881875335  1.0000
  C   C25       1.0  0.5131312589159833  0.8063337647387671  0.3139128331452027  1.0000
  C   C26       1.0  0.48687167964380523  0.3063358183313341  0.18608536296893155  1.0000
  C   C27       1.0  0.48687385731927446  0.19366390843877926  0.6860865718565278  1.0000
  C   C28       1.0  0.5131319774088469  0.6936658296053296  0.8139150921275656  1.0000
  C   C29       1.0  0.3811390251001043  0.688672927003374  0.22179530387106886  1.0000
  C   C30       1.0  0.6188593499766527  0.1886729526633459  0.27820229773939786  1.0000
  C   C31       1.0  0.6188631636176679  0.311327727243878  0.7782034926882274  1.0000
  C   C32       1.0  0.3811399185403346  0.8113277015816891  0.7217980572844238  1.0000
  C   C33       1.0  0.23549048077437357  0.755067246303014  0.25688923632053207  1.0000
  C   C34       1.0  0.7645094584942954  0.25506742954043926  0.24310945541260048  1.0000
  C   C35       1.0  0.7645117152622944  0.24493340794263224  0.7431117271451269  1.0000
  C   C36       1.0  0.23549273388146466  0.744931237325801  0.7568904246002786  1.0000
  C   C37       1.0  0.0218807655360251  0.7722540430601015  0.24314489635407444  1.0000
  C   C38       1.0  0.9781192026809437  0.2722563482919186  0.2568548719233518  1.0000
  C   C39       1.0  0.9781214359876103  0.22774363011403415  0.756857692291966  1.0000
  C   C40       1.0  0.021881530510746892  0.7277443059532233  0.7431460581846847  1.0000
  C   C41       1.0  0.39114398454484695  0.6090515732250736  0.15464816117592756  1.0000
  C   C42       1.0  0.6088528123672532  0.10905049858521211  0.34534998080862767  1.0000
  C   C43       1.0  0.6088508917777629  0.39094908101924375  0.8453510103218347  1.0000
  C   C44       1.0  0.39114938366721214  0.8909471745901175  0.6546509826576352  1.0000
  N   N1        1.0  0.32106340273622186  0.828144199394714  0.3136520282111377  1.0000
  N   N2        1.0  0.6789410344182444  0.3281463919259481  0.18634727594677963  1.0000
  N   N3        1.0  0.6789431818331764  0.17185347378213583  0.6863490353279997  1.0000
  N   N4        1.0  0.32106115978869804  0.6718542623201034  0.813653145792294  1.0000
  N   N5        1.0  0.7009618983398199  0.36758969800482794  0.5066428272614444  1.0000
  N   N6        1.0  0.2990354115623147  0.8675951731257857  0.9933574832111486  1.0000
  N   N7        1.0  0.2990329798081248  0.6324049940984581  0.49335688596411115  1.0000
  N   N8        1.0  0.7009638532981555  0.13240945588047032  0.006641788358692198  1.0000
  N   N9        1.0  0.5536232915738425  0.7244497804999812  0.25913095419938503  1.0000
  N   N10       1.0  0.4463780636625145  0.22445072997368234  0.2408672414717401  1.0000
  N   N11       1.0  0.4463803599867191  0.27554789267745866  0.7408678757181305  1.0000
  N   N12       1.0  0.5536255933886737  0.7755489305827652  0.759133213625155  1.0000
  O   O1        1.0  0.9506916693472363  0.8776819003286254  0.2684632558643401  1.0000
  O   O2        1.0  0.04930845764840801  0.37768555664744957  0.23153755348782565  1.0000
  O   O3        1.0  0.0493105340061177  0.12231577284511272  0.7315398745082929  1.0000
  O   O4        1.0  0.9506937347295404  0.6223160912891075  0.7684623265244495  1.0000
  O   O5        1.0  0.931083676152433  0.8051195523554785  0.4148376625595559  1.0000
  O   O6        1.0  0.06890172111513951  0.30511648363700067  0.08516446756492968  1.0000
  O   O7        1.0  0.0689068226135774  0.19488110188492413  0.5851646592248938  1.0000
  O   O8        1.0  0.9310887685015315  0.6948831769152976  0.9148351455867496  1.0000
  O   O9        1.0  0.9188189210340667  0.6829117160818542  0.20923073831701083  1.0000
  O   O10       1.0  0.0811809157318564  0.1829143141908034  0.29076906587273027  1.0000
  O   O11       1.0  0.0811818158156044  0.3170869507822758  0.7907712752446087  1.0000
  O   O12       1.0  0.9188212857961632  0.817089321123959  0.7092335227721094  1.0000
  O   O13       1.0  0.3162789773785519  0.8976676086017793  0.4721921186428801  1.0000
  O   O14       1.0  0.6837182496721893  0.3976700391773706  0.027807532507566193  1.0000
  O   O15       1.0  0.6837173709332589  0.10232708350041975  0.5278097948466679  1.0000
  O   O16       1.0  0.3162795523411077  0.6023316087580639  0.9721917057052419  1.0000
  O   O17       1.0  0.23357636518642272  0.5686749308211888  0.1211232348818498  1.0000
  O   O18       1.0  0.766417448459947  0.06867590825503102  0.378875398343581  1.0000
  O   O19       1.0  0.7664155817882587  0.4313277108031315  0.8788747864470846  1.0000
  O   O20       1.0  0.233581825546203  0.9313247459888035  0.621126581860018  1.0000
  O   O21       1.0  0.5613897165596883  0.5893507503645452  0.133800240976818  1.0000
  O   O22       1.0  0.43860412201958354  0.08935349614300492  0.36619675875754604  1.0000
  O   O23       1.0  0.43860368959759194  0.4106479165006577  0.8661967302573499  1.0000
  O   O24       1.0  0.5613951464981285  0.9106481517921385  0.6338035962660767  1.0000
  O   O25       1.0  0.887257289238505  0.8475987079615522  0.5321904543984386  1.0000
  O   O26       1.0  0.1127370655582141  0.3476010670131799  0.9678097973951832  1.0000
  O   O27       1.0  0.11273466505213751  0.15239995890074454  0.4678097338376616  1.0000
  O   O28       1.0  0.8872607346268212  0.6524025683028684  0.0321888990906416  1.0000
