data_image0
_chemical_formula_structural       Sm2Cd3H48C28N6Cl2O26
_chemical_formula_sum              "Sm2 Cd3 H48 C28 N6 Cl2 O26"
_cell_length_a       8.571772044241344
_cell_length_b       9.063674547209912
_cell_length_c       15.422
_cell_angle_alpha    98.44135826356717
_cell_angle_beta     101.61935854993652
_cell_angle_gamma    103.24732161647887

_space_group_name_H-M_alt    "P 1"
_space_group_IT_number       1

loop_
  _space_group_symop_operation_xyz
  'x, y, z'

loop_
  _atom_site_type_symbol
  _atom_site_label
  _atom_site_symmetry_multiplicity
  _atom_site_fract_x
  _atom_site_fract_y
  _atom_site_fract_z
  _atom_site_occupancy
  Sm  Sm1       1.0  0.8165170300880715  0.6873277123685001  0.2748595686655548  1.0000
  Sm  Sm2       1.0  0.1834834630655706  0.3126734779175848  0.7251394220682245  1.0000
  Cd  Cd1       1.0  0.9999986420873839  0.9999988754551197  0.9999998806527659  1.0000
  Cd  Cd2       1.0  0.9155090844077376  0.7501418080496266  0.5974946629938458  1.0000
  Cd  Cd3       1.0  0.0844907487069833  0.24985706740549324  0.40250535098964957  1.0000
  H   H1        1.0  0.07355689230163881  0.9466871608899085  0.16844819395198843  1.0000
  H   H2        1.0  0.9264420798052057  0.05331287198069391  0.8315524719245745  1.0000
  H   H3        1.0  0.0644076564169254  0.1226779392959401  0.1886065976621367  1.0000
  H   H4        1.0  0.9355925067172562  0.8773220935746622  0.811392904696504  1.0000
  H   H5        1.0  0.6559906645425073  0.9524221546084705  0.042862164216614894  1.0000
  H   H6        1.0  0.34400863758380495  0.0475790356776145  0.9571386384594264  1.0000
  H   H7        1.0  0.664713864358184  0.03898985537782811  0.9617507095658767  1.0000
  H   H8        1.0  0.3352854377681211  0.9610113349082567  0.038249444685831656  1.0000
  H   H9        1.0  0.12314438321516259  0.780282064643977  0.43332784033139404  1.0000
  H   H10       1.0  0.8768535988332927  0.21971449598017057  0.5666717667224361  1.0000
  H   H11       1.0  0.1624003636253022  0.8943233696053241  0.3691809782275115  1.0000
  H   H12       1.0  0.8376003304972882  0.10567434843430593  0.6308196807115751  1.0000
  H   H13       1.0  0.6489103613185705  0.8718394164314063  0.4549902487479756  1.0000
  H   H14       1.0  0.3510891417766899  0.1281583016082237  0.5450096284360484  1.0000
  H   H15       1.0  0.5365979357176585  0.9901515845252434  0.4039759296558856  1.0000
  H   H16       1.0  0.46340394943226937  0.0098461335143867  0.5960255110382564  1.0000
  H   H17       1.0  0.9754041128816339  0.4125827398307749  0.11543365955056117  1.0000
  H   H18       1.0  0.024596911260424303  0.5874161356243448  0.8845651909150122  1.0000
  H   H19       1.0  0.8141234682770742  0.24699940857782113  0.1030382501336646  1.0000
  H   H20       1.0  0.1858763648376467  0.7529994668772986  0.8969617638498307  1.0000
  H   H21       1.0  0.6595127734712706  0.5725479763289557  0.02819416437750992  1.0000
  H   H22       1.0  0.3404870596434435  0.427450899126157  0.9718052011816597  1.0000
  H   H23       1.0  0.7862681578162023  0.4548434513637289  0.9952617355543226  1.0000
  H   H24       1.0  0.2137316752985114  0.5451554240913907  0.004737630004846905  1.0000
  H   H25       1.0  0.6821682479530793  0.3180091632944908  0.362075883830741  1.0000
  H   H26       1.0  0.3178315851616418  0.681989712160629  0.6379234817284286  1.0000
  H   H27       1.0  0.5030010234370152  0.3532351035214063  0.38900034256683824  1.0000
  H   H28       1.0  0.49700099076342497  0.6467672441801542  0.6109995667214677  1.0000
  H   H29       1.0  0.4211986564749637  0.24289289844391962  0.1890989832594485  1.0000
  H   H30       1.0  0.5788003156318808  0.7571071344266758  0.8109016826171145  1.0000
  H   H31       1.0  0.6315418012642054  0.2505723501740249  0.2259898273521088  1.0000
  H   H32       1.0  0.36845717084263896  0.7494276826965773  0.7740095416757953  1.0000
  H   H33       1.0  0.3122080323199086  0.672179458526216  0.33392844707455543  1.0000
  H   H34       1.0  0.6877945128689474  0.3278205743443863  0.6660706735212116  1.0000
  H   H35       1.0  0.4845575524831601  0.6454362163746339  0.40605573984814214  1.0000
  H   H36       1.0  0.5154414196236843  0.3545638164959612  0.5939436291797691  1.0000
  H   H37       1.0  0.5438268514725024  0.269993781979764  0.06282855218570661  1.0000
  H   H38       1.0  0.45617265162275794  0.7300039360598731  0.9371713249983176  1.0000
  H   H39       1.0  0.5001391619042151  0.4481721085193726  0.09914849924943069  1.0000
  H   H40       1.0  0.49986067121050565  0.55182676693574  0.9008515147340646  1.0000
  H   H41       1.0  0.31842277162314037  0.4125954714010902  0.28164128409026995  1.0000
  H   H42       1.0  0.6815777215305019  0.5874057188849946  0.7183583550678422  1.0000
  H   H43       1.0  0.37974865034705363  0.5196031624718813  0.20115113224630932  1.0000
  H   H44       1.0  0.620251512787128  0.480396870398721  0.7988483701123315  1.0000
  H   H45       1.0  0.46069627911261085  0.962554169747172  0.25664627637990384  1.0000
  H   H46       1.0  0.5393091072009  0.03745165020084332  0.7433556068169409  1.0000
  H   H47       1.0  0.3308012306655357  0.7763098147061172  0.21410984375773273  1.0000
  H   H48       1.0  0.6691975404723678  0.22369369041093282  0.7858898023378629  1.0000
  C   C1        1.0  0.6202882074812591  0.9171209823751527  0.3929615819557028  1.0000
  C   C2        1.0  0.3797119556529225  0.0828790504954497  0.6070398656759224  1.0000
  C   C3        1.0  0.868586658642897  0.3664840385559955  0.14220786169958896  1.0000
  C   C4        1.0  0.1314135044912845  0.6335159943146067  0.8577916406590519  1.0000
  C   C5        1.0  0.725391387134337  0.5345384518652807  0.4442214248084539  1.0000
  C   C6        1.0  0.27460996702718177  0.4654615810053215  0.5557788593052422  1.0000
  C   C7        1.0  0.770564619563636  0.5349852142417433  0.05203188360498247  1.0000
  C   C8        1.0  0.22943488353161706  0.4650125037978938  0.9479673451547157  1.0000
  C   C9        1.0  0.6142436660474999  0.4066162630156002  0.36793352246802163  1.0000
  C   C10       1.0  0.385757688114019  0.5933837698549953  0.6320661132213488  1.0000
  C   C11       1.0  0.547442002839631  0.3201700580013664  0.2040548456845102  1.0000
  C   C12       1.0  0.4525581602945508  0.6798299748692358  0.7959453050984635  1.0000
  C   C13       1.0  0.4360310232175948  0.6543483155941985  0.3361880204031422  1.0000
  C   C14       1.0  0.5639688098971191  0.3456505598609212  0.663811993580353  1.0000
  C   C15       1.0  0.9116255702467271  0.6832559246990897  0.07666612638134748  1.0000
  C   C16       1.0  0.08837545389533122  0.316742950756023  0.9233340209328775  1.0000
  C   C17       1.0  0.578598516788638  0.3722387083377684  0.11837127703243772  1.0000
  C   C18       1.0  0.4214009863066153  0.6277590097018688  0.8816279517272605  1.0000
  C   C19       1.0  0.5375171145142873  0.8268564636822975  0.15605343654798537  1.0000
  C   C20       1.0  0.4624807956157325  0.1731481988502352  0.8439475098650036  1.0000
  C   C21       1.0  0.4178234937794514  0.5047581514861577  0.2711395897200504  1.0000
  C   C22       1.0  0.5821778603820675  0.4952418813844446  0.728860045969313  1.0000
  C   C23       1.0  0.4623637302652454  0.8414317968604692  0.23706404830736014  1.0000
  C   C24       1.0  0.5376345098842421  0.1585740230875459  0.7629376833294259  1.0000
  C   C25       1.0  0.9375145333329441  0.36469467421918017  0.23989093995158584  1.0000
  C   C26       1.0  0.062484438773900336  0.6353053586514152  0.7601090775006585  1.0000
  C   C27       1.0  0.7823602156054574  0.017762855418517607  0.38522661013761456  1.0000
  C   C28       1.0  0.21763961750925628  0.982236020036602  0.6147747006945465  1.0000
  N   N1        1.0  0.7518294520596382  0.46269998766273807  0.1297317937384079  1.0000
  N   N2        1.0  0.2481703810550826  0.5372988877923817  0.8702682202450874  1.0000
  N   N3        1.0  0.5724191066287361  0.4531096429701051  0.2798420429224748  1.0000
  N   N4        1.0  0.42758224753278284  0.5468903899004971  0.7201582411912215  1.0000
  N   N5        1.0  0.5472424839392147  0.7878365155019083  0.31490853438151584  1.0000
  N   N6        1.0  0.45275887022230416  0.21216351736868697  0.6850917497321802  1.0000
  Cl  Cl1       1.0  0.7028664247920702  0.8889784249045578  0.6211363537480638  1.0000
  Cl  Cl2       1.0  0.2971322172953066  0.11102045055056212  0.3788641753290349  1.0000
  O   O1        1.0  0.8025153723814923  0.6618854052198772  0.4267611106273179  1.0000
  O   O2        1.0  0.19748392974481283  0.3381157850662008  0.5732390436243904  1.0000
  O   O3        1.0  0.9258684817695337  0.466017140437188  0.30207584233961177  1.0000
  O   O4        1.0  0.07413201138410838  0.5339840498488968  0.6979244452428262  1.0000
  O   O5        1.0  0.976331618011379  0.7441614422486538  0.1607879391724225  1.0000
  O   O6        1.0  0.023668545122802705  0.2558385906219414  0.8392122116105443  1.0000
  O   O7        1.0  0.8595869192204402  0.9645553411173822  0.331243589777948  1.0000
  O   O8        1.0  0.1404129138942807  0.0354435343377375  0.6687564242055474  1.0000
  O   O9        1.0  0.10826687008236748  0.0491727967977837  0.1522163610135721  1.0000
  O   O10       1.0  0.8917332930518143  0.9508272360728114  0.8477831413450618  1.0000
  O   O11       1.0  0.7348825795150018  0.0068241216881191015  0.010889229921360793  1.0000
  O   O12       1.0  0.26511606257238174  0.9931747537670006  0.9891100023070791  1.0000
  O   O13       1.0  0.8384760046585028  0.15377422107929561  0.43536252091838185  1.0000
  O   O14       1.0  0.1615223074094132  0.8462234969603344  0.5646385197835785  1.0000
  O   O15       1.0  0.9496101411745669  0.7381729745393032  0.01089748605208034  1.0000
  O   O16       1.0  0.05039088296749129  0.2618259009158095  0.9891020128378187  1.0000
  O   O17       1.0  0.009133408897007204  0.2584080529943336  0.2549582117321734  1.0000
  O   O18       1.0  0.9908664242177139  0.741590822460779  0.7450418022513291  1.0000
  O   O19       1.0  0.10188041784397227  0.7861906706850021  0.36895297036760877  1.0000
  O   O20       1.0  0.8981182242434043  0.21380820477011753  0.6310462618608312  1.0000
  O   O21       1.0  0.742164858267067  0.5110892141784973  0.5240216152743358  1.0000
  O   O22       1.0  0.2578353048671147  0.488910818692105  0.4759778870842979  1.0000
  O   O23       1.0  0.6361308925346948  0.7412401255694123  0.1536325798237783  1.0000
  O   O24       1.0  0.36386516652906664  0.2587622221321553  0.8463673112352126  1.0000
  O   O25       1.0  0.4979006177644009  0.8987585857364098  0.09436183592790572  1.0000
  O   O26       1.0  0.5021027165139031  0.1012483916270881  0.9056412142556028  1.0000
