data_image0
_chemical_formula_structural       Co2H12C6N8Cl4
_chemical_formula_sum              "Co2 H12 C6 N8 Cl4"
_cell_length_a       6.635956470537133
_cell_length_b       7.342188872607998
_cell_length_c       8.626237137934773
_cell_angle_alpha    108.24668820155601
_cell_angle_beta     105.06471885758789
_cell_angle_gamma    106.67599783606558

_space_group_name_H-M_alt    "P 1"
_space_group_IT_number       1

loop_
  _space_group_symop_operation_xyz
  'x, y, z'

loop_
  _atom_site_type_symbol
  _atom_site_label
  _atom_site_symmetry_multiplicity
  _atom_site_fract_x
  _atom_site_fract_y
  _atom_site_fract_z
  _atom_site_occupancy
  Co  Co1       1.0  0.9999956943524494  0.9999937877726169  0.9999928141982936  1.0000
  Co  Co2       1.0  0.4999802557388691  0.999985685616892  0.999989068472559  1.0000
  H   H1        1.0  0.4457348388933511  0.6775863696984246  0.4416634070437342  1.0000
  H   H2        1.0  0.5542423686316482  0.3224126157985978  0.5583665324883287  1.0000
  H   H3        1.0  0.3871122937884905  0.6709074381720795  0.22700755361255895  1.0000
  H   H4        1.0  0.6128839299583219  0.3291018224818742  0.772977836138651  1.0000
  H   H5        1.0  0.4274149308849288  0.4564121060620039  0.2647326012438783  1.0000
  H   H6        1.0  0.5725947256614531  0.5435550002535338  0.7352563233454891  1.0000
  H   H7        1.0  0.9248999274472425  0.7750980888049315  0.5085191965295197  1.0000
  H   H8        1.0  0.0751239850656162  0.22490971447079033  0.49148262100293055  1.0000
  H   H9        1.0  0.07429036758099974  0.8818833199479882  0.3890988482243288  1.0000
  H   H10       1.0  0.925746035273285  0.11811662445229132  0.6109158942559392  1.0000
  H   H11       1.0  0.21981105670195686  0.8188417151888174  0.5572096842559875  1.0000
  H   H12       1.0  0.7801899893541916  0.1811456619027823  0.44277746919933497  1.0000
  C   C1        1.0  0.11137407860876888  0.4705083992810017  0.2551499344215672  1.0000
  C   C2        1.0  0.888609016043425  0.5294910608195522  0.7448522656704103  1.0000
  C   C3        1.0  0.3568369555097489  0.573526412089116  0.29991325274484393  1.0000
  C   C4        1.0  0.6432254321788733  0.4264911373337485  0.7000974058250552  1.0000
  C   C5        1.0  0.05561385730976558  0.7740419069339313  0.4532276642947155  1.0000
  C   C6        1.0  0.9443883601412467  0.22594075353957527  0.5467618732188486  1.0000
  N   N1        1.0  0.9841282652380061  0.5621304312318927  0.32223914939801573  1.0000
  N   N2        1.0  0.01587728413021947  0.43786007479980066  0.6777520481484205  1.0000
  N   N3        1.0  0.7651185500037698  0.42605174693365205  0.2501944815351892  1.0000
  N   N4        1.0  0.2348535607376547  0.573958521603302  0.7498086554541461  1.0000
  N   N5        1.0  0.7593880261513206  0.2539687073939803  0.14083451248730947  1.0000
  N   N6        1.0  0.2405934103749772  0.7460417351951989  0.8591646407402398  1.0000
  N   N7        1.0  0.9696090239445212  0.2738379406670433  0.1411035186998221  1.0000
  N   N8        1.0  0.0303849947569362  0.726194370835508  0.8589099143023663  1.0000
  Cl  Cl1       1.0  0.2887845050372349  0.1649875738545816  0.9028850222791579  1.0000
  Cl  Cl2       1.0  0.711205937844923  0.8350182282045039  0.0971180189741574  1.0000
  Cl  Cl3       1.0  0.3243796041043082  0.045709208051093186  0.23875543460749785  1.0000
  Cl  Cl4       1.0  0.6756187952350459  0.9542936695553196  0.7612401803799218  1.0000
