data_image0
_chemical_formula_structural       Zn2H42C44N4O14
_chemical_formula_sum              "Zn2 H42 C44 N4 O14"
_cell_length_a       8.074021877823764
_cell_length_b       12.106255434546092
_cell_length_c       14.0365
_cell_angle_alpha    108.83817614113158
_cell_angle_beta     104.38877910922952
_cell_angle_gamma    96.19903146419469

_space_group_name_H-M_alt    "P 1"
_space_group_IT_number       1

loop_
  _space_group_symop_operation_xyz
  'x, y, z'

loop_
  _atom_site_type_symbol
  _atom_site_label
  _atom_site_symmetry_multiplicity
  _atom_site_fract_x
  _atom_site_fract_y
  _atom_site_fract_z
  _atom_site_occupancy
  Zn  Zn1       1.0  0.9554940936442262  0.2537704604282993  0.43340398291426396  1.0000
  Zn  Zn2       1.0  0.04449808231557739  0.7462351490608441  0.5665994531089921  1.0000
  H   H1        1.0  0.7790682180397679  0.4258781449376343  0.4081626568532641  1.0000
  H   H2        1.0  0.22092395792003564  0.5741274645515162  0.5918386418850472  1.0000
  H   H3        1.0  0.6599884781358297  0.2893600352437531  0.3641495898627126  1.0000
  H   H4        1.0  0.3400031613414356  0.7106437907091063  0.635846148489648  1.0000
  H   H5        1.0  0.2804540887690763  0.9949849548445614  0.18179060445155668  1.0000
  H   H6        1.0  0.7195388473689164  0.0050019275135895  0.8181949011493899  1.0000
  H   H7        1.0  0.1280779256290145  0.7797139086820266  0.08662189062988553  1.0000
  H   H8        1.0  0.8719331172785089  0.2202694066035491  0.9133744713403827  1.0000
  H   H9        1.0  0.609503620186544  0.6718830883774629  0.19234716362905147  1.0000
  H   H10       1.0  0.39051412875274133  0.3281225211116876  0.8076613526865655  1.0000
  H   H11       1.0  0.7596997987660785  0.886542381593955  0.2875525464961369  1.0000
  H   H12       1.0  0.24030650488982266  0.113467686735909  0.7124562879993519  1.0000
  H   H13       1.0  0.0813994458737355  0.3925188822476073  0.9717145826634376  1.0000
  H   H14       1.0  0.9186185087494465  0.6074831601689752  0.028290119935164216  1.0000
  H   H15       1.0  0.9907065138400666  0.297221863191659  0.7739941913156301  1.0000
  H   H16       1.0  0.009294013622635995  0.7027775039204869  0.22600798759639668  1.0000
  H   H17       1.0  0.3028827777783647  0.6006103030915568  0.7617453146345807  1.0000
  H   H18       1.0  0.6971133772548723  0.3993872804843051  0.23825146800444227  1.0000
  H   H19       1.0  0.3901041128698778  0.6956540599949079  0.9562640947055028  1.0000
  H   H20       1.0  0.6099102114902734  0.3043444153490924  0.04373553343242514  1.0000
  H   H21       1.0  0.9885930513669761  0.0012556095452183  0.3996051298025164  1.0000
  H   H22       1.0  0.01139798907036744  0.9987419740306436  0.6003894968927381  1.0000
  H   H23       1.0  0.21033864659009538  0.8820327100952525  0.4313295121351501  1.0000
  H   H24       1.0  0.7896622742286326  0.117976466466466  0.5686761672943702  1.0000
  H   H25       1.0  0.6033083441788988  0.2049541805171913  0.5335379095319154  1.0000
  H   H26       1.0  0.39668469906209214  0.7950585631171023  0.4664747615537549  1.0000
  H   H27       1.0  0.3609318360477402  0.3089486142709461  0.49746252384230866  1.0000
  H   H28       1.0  0.6390576394875964  0.6910650211314859  0.5025463234803382  1.0000
  H   H29       1.0  0.15422244081323558  0.4759892721922583  0.41544151096422866  1.0000
  H   H30       1.0  0.8457967924589197  0.5240127702243242  0.584559812264601  1.0000
  H   H31       1.0  0.34967442703968726  0.2753788942991875  0.21008439743079063  1.0000
  H   H32       1.0  0.6502962355832052  0.7246062045226721  0.7898960028053849  1.0000
  H   H33       1.0  0.27144676840499926  0.365446584965099  0.13592665767419723  1.0000
  H   H34       1.0  0.7285239567752697  0.6345429726974743  0.864062117542744  1.0000
  H   H35       1.0  0.12030116115249709  0.2616349636806348  0.1567976425367377  1.0000
  H   H36       1.0  0.879676413186047  0.7383688622722246  0.8432003598958315  1.0000
  H   H37       1.0  0.3389063309451358  0.5927850376375048  0.39350950327506945  1.0000
  H   H38       1.0  0.6610968969420339  0.4072063035613525  0.606480140054451  1.0000
  H   H39       1.0  0.3205955431549228  0.573662853349056  0.2591734101017806  1.0000
  H   H40       1.0  0.6794082212147856  0.4263302713860924  0.7408239308986281  1.0000
  H   H41       1.0  0.4934529157821714  0.5263911158614647  0.33347911303599886  1.0000
  H   H42       1.0  0.5065424345272617  0.47360379240996753  0.6665146722364311  1.0000
  C   C1        1.0  0.6212031180811692  0.0822531264295776  0.29368947752111296  1.0000
  C   C2        1.0  0.37878388072535774  0.9177480242188594  0.7063077021474696  1.0000
  C   C3        1.0  0.5293616304581903  0.9536345578259002  0.23894984393025703  1.0000
  C   C4        1.0  0.4706294099791535  0.0463630257499617  0.7610426454800603  1.0000
  C   C5        1.0  0.3508946888916568  0.9233572458377708  0.18318655760136676  1.0000
  C   C6        1.0  0.6491024139919048  0.0766349871292391  0.8168045958480404  1.0000
  C   C7        1.0  0.2664271655282278  0.8041884853642286  0.13098238627407  1.0000
  C   C8        1.0  0.733580971270939  0.19580642290720357  0.8690125142879168  1.0000
  C   C9        1.0  0.3624667605546392  0.7154950094065454  0.1345462952267766  1.0000
  C   C10       1.0  0.6375444700250199  0.2845016824011708  0.8654509691231806  1.0000
  C   C11       1.0  0.5388498800088184  0.743393083989389  0.1912505876185832  1.0000
  C   C12       1.0  0.46115986623797056  0.2566071748909025  0.8087560071030849  1.0000
  C   C13       1.0  0.6215067539203644  0.8628293749058003  0.24350626141020362  1.0000
  C   C14       1.0  0.3784961251563955  0.1371735592789207  0.7564922600509759  1.0000
  C   C15       1.0  0.23964718369656873  0.5487709291759728  0.9747799616578374  1.0000
  C   C16       1.0  0.7603701093293154  0.4512204120228914  0.025222378586015243  1.0000
  C   C17       1.0  0.12885859531786537  0.4360674877385406  0.9240151006472813  1.0000
  C   C18       1.0  0.8711553982436441  0.5639256369966077  0.0759879770972987  1.0000
  C   C19       1.0  0.07888197501581828  0.3841112921962377  0.8147860842577686  1.0000
  C   C20       1.0  0.921125956099459  0.6158871831477697  0.18521690459109413  1.0000
  C   C21       1.0  0.14086674230442503  0.4423812061903547  0.7547466818972168  1.0000
  C   C22       1.0  0.85913687893877  0.5576199444580823  0.24525786080278064  1.0000
  C   C23       1.0  0.2540673964144275  0.5542660044725949  0.8071735974734435  1.0000
  C   C24       1.0  0.7459443706477771  0.44573247087141243  0.19282993969078177  1.0000
  C   C25       1.0  0.3035218565408542  0.6082482972355905  0.9165687868883053  1.0000
  C   C26       1.0  0.6964921995780244  0.3917492863402714  0.08343340426898038  1.0000
  C   C27       1.0  0.08725365086772288  0.3848478926822807  0.6375963515507691  1.0000
  C   C28       1.0  0.9127428349641701  0.6151550415024403  0.36240766790628226  1.0000
  C   C29       1.0  0.1270616491463059  0.042086997504704  0.4296303804786277  1.0000
  C   C30       1.0  0.8729358470932878  0.9579150449118714  0.5703713977713887  1.0000
  C   C31       1.0  0.25368437254615367  0.9763621607161355  0.44791546585553005  1.0000
  C   C32       1.0  0.7463244884076943  0.023647907613721503  0.5520894596136613  1.0000
  C   C33       1.0  0.4306065730930797  0.0330498191444377  0.4883604338796203  1.0000
  C   C34       1.0  0.5694021627460089  0.966951331503992  0.5116441274792081  1.0000
  C   C35       1.0  0.4692442647071786  0.1550267575000035  0.5051565306568547  1.0000
  C   C36       1.0  0.5307527576072459  0.8449779602210015  0.4948523367578375  1.0000
  C   C37       1.0  0.33437819957405407  0.214116206417458  0.48428308087258637  1.0000
  C   C38       1.0  0.6656214425957003  0.7858929701442605  0.515723840641769  1.0000
  C   C39       1.0  0.14273317751934658  0.39862571049026485  0.34450208300113155  1.0000
  C   C40       1.0  0.8572733318204442  0.6013807907670312  0.6554958134942266  1.0000
  C   C41       1.0  0.24656371215396428  0.3244323845363155  0.1915799557938769  1.0000
  C   C42       1.0  0.753419593832149  0.6755607401988328  0.8084130360013189  1.0000
  C   C43       1.0  0.3559599798783778  0.5345704132682485  0.3200582557547023  1.0000
  C   C44       1.0  0.6440430423248953  0.4654244950031838  0.6799352012918193  1.0000
  N   N1        1.0  0.16507083382331436  0.1595854762465692  0.4484513675053633  1.0000
  N   N2        1.0  0.8349297561967645  0.8404183497062903  0.5515513496759964  1.0000
  N   N3        1.0  0.242973518617319  0.418394426682319  0.286823818173552  1.0000
  N   N4        1.0  0.7570328656077121  0.5816031568935429  0.7131730017831399  1.0000
  O   O1        1.0  0.7789243004889527  0.0997576433067877  0.3522900874501858  1.0000
  O   O2        1.0  0.2210643077651966  0.9002488579505084  0.6477095248100326  1.0000
  O   O3        1.0  0.5407366186256437  0.1626290809183288  0.28009187471899105  1.0000
  O   O4        1.0  0.4592557630180493  0.8373729614982537  0.7199006233041345  1.0000
  O   O5        1.0  0.2811207493544571  0.5952561271615124  0.08305525130912629  1.0000
  O   O6        1.0  0.7189027312324113  0.4047387811099199  0.9169468295124829  1.0000
  O   O7        1.0  0.15415293602099917  0.432611886184759  0.5831432515015462  1.0000
  O   O8        1.0  0.8458417972367512  0.5673937233043915  0.41686126249358313  1.0000
  O   O9        1.0  0.9739219026968156  0.2867016744097342  0.5935275016892732  1.0000
  O   O10       1.0  0.02606967422306642  0.7132976927024117  0.4064733978202497  1.0000
  O   O11       1.0  0.042985186257290295  0.3001013825251206  0.32105734454798807  1.0000
  O   O12       1.0  0.9570103517242713  0.6999069022684523  0.6789487419571214  1.0000
  O   O13       1.0  0.7532630199685143  0.3534960000819467  0.4255464756363096  1.0000
  O   O14       1.0  0.24672835126747825  0.6465069341027743  0.5744504008787884  1.0000
