data_image0
_chemical_formula_structural       Zn4H28C20O28
_chemical_formula_sum              "Zn4 H28 C20 O28"
_cell_length_a       6.7108555516860475
_cell_length_b       7.5852343293610245
_cell_length_c       16.72508618391423
_cell_angle_alpha    104.3218183363483
_cell_angle_beta     93.34310848473379
_cell_angle_gamma    91.90266141453456

_space_group_name_H-M_alt    "P 1"
_space_group_IT_number       1

loop_
  _space_group_symop_operation_xyz
  'x, y, z'

loop_
  _atom_site_type_symbol
  _atom_site_label
  _atom_site_symmetry_multiplicity
  _atom_site_fract_x
  _atom_site_fract_y
  _atom_site_fract_z
  _atom_site_occupancy
  Zn  Zn1       1.0  0.21768228116028607  0.5739020665237009  0.18545994529705473  1.0000
  Zn  Zn2       1.0  0.7823080870697013  0.4260923245492806  0.8145406300573299  1.0000
  Zn  Zn3       1.0  0.2625130176248121  0.9754671146549969  0.3178007392748725  1.0000
  Zn  Zn4       1.0  0.7374928064200647  0.02453525746650341  0.6822003961162936  1.0000
  H   H1        1.0  0.36087898113822087  0.5665488707052332  0.493059553432495  1.0000
  H   H2        1.0  0.6391114334603643  0.43346864382223765  0.5069422491056415  1.0000
  H   H3        1.0  0.3425051598261888  0.11601447405122663  0.0597030197332771  1.0000
  H   H4        1.0  0.6574795872570645  0.8839853848890514  0.9402968152675228  1.0000
  H   H5        1.0  0.5606753915992755  0.7518051182922819  0.2892508976913248  1.0000
  H   H6        1.0  0.43932317948984684  0.2482001084821165  0.7107515816312001  1.0000
  H   H7        1.0  0.538629567831407  0.8444705260220362  0.21018741522619416  1.0000
  H   H8        1.0  0.46137109586194913  0.155522268397938  0.789810217346897  1.0000
  H   H9        1.0  0.4535126723115042  0.6137691561666828  0.07595480869498059  1.0000
  H   H10       1.0  0.5464758965994747  0.3862210951753583  0.9240435015100843  1.0000
  H   H11       1.0  0.28010878591886973  0.4800556156879595  0.024464859138760196  1.0000
  H   H12       1.0  0.7198767729559847  0.5199334481681106  0.975536851995777  1.0000
  H   H13       1.0  0.4816071657565357  0.42350266429792083  0.2555585956302693  1.0000
  H   H14       1.0  0.5183898003237813  0.576501170218265  0.7444425084000983  1.0000
  H   H15       1.0  0.3550038421469352  0.26400267590037885  0.19525376363007746  1.0000
  H   H16       1.0  0.6449883470497325  0.7359959019128229  0.8047502782599807  1.0000
  H   H17       1.0  0.8935599009917186  0.9209577305320169  0.3557891050034669  1.0000
  H   H18       1.0  0.1064600764077426  0.07905421289893162  0.6442181119212975  1.0000
  H   H19       1.0  0.8831404976112934  0.03081533148128561  0.2888499458869235  1.0000
  H   H20       1.0  0.11688244137642557  0.9691965314701606  0.7111561282990806  1.0000
  H   H21       1.0  0.510340481078728  0.2775132795035873  0.3783693402312949  1.0000
  H   H22       1.0  0.48968381396969113  0.7224994350992945  0.6216242933037393  1.0000
  H   H23       1.0  0.5619343842282304  0.11725653132489815  0.4229055020211376  1.0000
  H   H24       1.0  0.4381085622368488  0.88274622029153  0.57708209441072  1.0000
  H   H25       1.0  0.8654793202129056  0.38893658881977444  0.1706071724187552  1.0000
  H   H26       1.0  0.13451846281155608  0.6110576245590948  0.8293911467819086  1.0000
  H   H27       1.0  0.8536013113268978  0.51762947804572  0.11067217670695577  1.0000
  H   H28       1.0  0.1463950826466203  0.4823661375569372  0.8893268584450807  1.0000
  C   C1        1.0  0.0674165050348918  0.5774839856624114  0.4378650546500538  1.0000
  C   C2        1.0  0.9325837808618758  0.42250333731676193  0.5621313989018759  1.0000
  C   C3        1.0  0.8624101290941368  0.5384471663412995  0.4408785678151616  1.0000
  C   C4        1.0  0.13759144687855948  0.4615580739721708  0.5591251715413177  1.0000
  C   C5        1.0  0.2021345685365148  0.5392830023852968  0.4970806995087216  1.0000
  C   C6        1.0  0.7978638999855859  0.46072083890042154  0.5029210345386232  1.0000
  C   C7        1.0  0.14524348461853254  0.6553171619873979  0.3709945387174898  1.0000
  C   C8        1.0  0.854751703790427  0.3446825798071276  0.6290055015499121  1.0000
  C   C9        1.0  0.7114359574088597  0.5777260279243993  0.3789530331397443  1.0000
  C   C10       1.0  0.2885693950169567  0.42229136626128394  0.6210502640227489  1.0000
  C   C11       1.0  0.06480967921741149  0.9846702125031259  0.07882947110923766  1.0000
  C   C12       1.0  0.9351835696814775  0.015322759610953095  0.9211704176175741  1.0000
  C   C13       1.0  0.8723488970071498  0.9177439146124446  0.044877699436121125  1.0000
  C   C14       1.0  0.1276434323805731  0.0822572931502634  0.9551242288452144  1.0000
  C   C15       1.0  0.1918498081551405  0.06705760218189033  0.03386827940403239  1.0000
  C   C16       1.0  0.8081346204032229  0.9329380767876999  0.9661287190780712  1.0000
  C   C17       1.0  0.12729265949920426  0.9608520465743029  0.16221815971108094  1.0000
  C   C18       1.0  0.8727050317820612  0.039140804820533504  0.8377800149075867  1.0000
  C   C19       1.0  0.7338665011200829  0.8357730851132956  0.09490778025165265  1.0000
  C   C20       1.0  0.2661345511936872  0.16422520425211934  0.9050916320357771  1.0000
  O   O1        1.0  0.2399196103639412  0.8103077975741471  0.3953112603348288  1.0000
  O   O2        1.0  0.7600840417178745  0.18968613732251072  0.6046817699224221  1.0000
  O   O3        1.0  0.11026539411014369  0.5621880530010018  0.2971755674030092  1.0000
  O   O4        1.0  0.8897293840307369  0.4378061468387955  0.7028214917636928  1.0000
  O   O5        1.0  0.5661899280428601  0.45990963571627935  0.3525887025788208  1.0000
  O   O6        1.0  0.4338007726091177  0.5401119882679454  0.6474141343984811  1.0000
  O   O7        1.0  0.7314980243879744  0.7236757304535929  0.3552210761077816  1.0000
  O   O8        1.0  0.26850781407273416  0.2763473702193124  0.6447894070076643  1.0000
  O   O9        1.0  0.23867797887887574  0.08444700228394451  0.21352800960136875  1.0000
  O   O10       1.0  0.761303865887818  0.9155542286059487  0.7864713106406568  1.0000
  O   O11       1.0  0.06245965011737548  0.8206558642040565  0.18291705287641946  1.0000
  O   O12       1.0  0.9375306155455974  0.17933714138024476  0.817082777202792  1.0000
  O   O13       1.0  0.6639585202083609  0.9405906383166  0.15662566580135007  1.0000
  O   O14       1.0  0.3360348204337171  0.05940369578151921  0.843374367507451  1.0000
  O   O15       1.0  0.6907381500541163  0.6636065901205797  0.06979405438023889  1.0000
  O   O16       1.0  0.3092598813996971  0.3363904882542244  0.9302081581434932  1.0000
  O   O17       1.0  0.45888062629616394  0.7885281419953999  0.2494262657554103  1.0000
  O   O18       1.0  0.5411141951400396  0.21146615186297174  0.7505731961840069  1.0000
  O   O19       1.0  0.30518362248975717  0.5879548333636465  0.07250275974065798  1.0000
  O   O20       1.0  0.6948032120451869  0.4120314192753157  0.9274968894741562  1.0000
  O   O21       1.0  0.4256050870803989  0.38301844168658056  0.19650514783187129  1.0000
  O   O22       1.0  0.5743898910419744  0.6169773551836856  0.8034980628486181  1.0000
  O   O23       1.0  0.9525485395281876  0.030954050516413593  0.341959684042088  1.0000
  O   O24       1.0  0.04746573580517579  0.9690620223024384  0.6580472486402797  1.0000
  O   O25       1.0  0.4542369672641938  0.16509998079309443  0.3941662821207359  1.0000
  O   O26       1.0  0.5458023104673231  0.8348931763867073  0.6058178408168402  1.0000
  O   O27       1.0  0.9417207122101486  0.4331966933465667  0.131079141336464  1.0000
  O   O28       1.0  0.05827389326818629  0.5667948060297976  0.86891822935943  1.0000
