data_image0
_chemical_formula_structural       Tb4H72C112S12N12O32
_chemical_formula_sum              "Tb4 H72 C112 S12 N12 O32"
_cell_length_a       8.48789778089264
_cell_length_b       15.070383205163942
_cell_length_c       28.883718745954198
_cell_angle_alpha    89.99976214200305
_cell_angle_beta     91.90144979567228
_cell_angle_gamma    90.00474972981316

_space_group_name_H-M_alt    "P 1"
_space_group_IT_number       1

loop_
  _space_group_symop_operation_xyz
  'x, y, z'

loop_
  _atom_site_type_symbol
  _atom_site_label
  _atom_site_symmetry_multiplicity
  _atom_site_fract_x
  _atom_site_fract_y
  _atom_site_fract_z
  _atom_site_occupancy
  Tb  Tb1       1.0  0.7759298502835891  0.99833797759387  0.7161738639403764  1.0000
  Tb  Tb2       1.0  0.27584659770173664  0.5016437211722999  0.21613058239390165  1.0000
  Tb  Tb3       1.0  0.7241486050401209  0.4983590860207912  0.7838684666681246  1.0000
  Tb  Tb4       1.0  0.22408182292785037  0.0016615121949001997  0.28382610183929546  1.0000
  H   H1        1.0  0.5669553250229812  0.8452106239193996  0.5803416294613157  1.0000
  H   H2        1.0  0.44240170889575137  0.7139075175189973  0.5395331494201656  1.0000
  H   H3        1.0  0.2876642378112991  0.614933678424208  0.66978916948662  1.0000
  H   H4        1.0  0.4061270596504231  0.7475319062505223  0.7103696534751904  1.0000
  H   H5        1.0  0.43808175374308433  0.5974450468603366  0.4575644631594499  1.0000
  H   H6        1.0  0.4597746649994648  0.5870946185290363  0.3710726009162641  1.0000
  H   H7        1.0  0.08310014669365272  0.3966086882847079  0.3658562023704518  1.0000
  H   H8        1.0  0.0776018002548824  0.39717472131903964  0.4525938160160336  1.0000
  H   H9        1.0  0.07787963372339853  0.2871159285589044  0.5443666649456133  1.0000
  H   H10       1.0  0.9636978883244539  0.1590596884273481  0.5880191939069447  1.0000
  H   H11       1.0  0.0028095477338965008  0.3100628880024061  0.7144167307126281  1.0000
  H   H12       1.0  0.11122971608465093  0.437761057188922  0.6705919023477307  1.0000
  H   H13       1.0  0.1857064890861366  0.0845297710784507  0.7353146250011946  1.0000
  H   H14       1.0  0.37106398924985484  0.0281822268030751  0.7497312613743148  1.0000
  H   H15       1.0  0.1915284831922008  0.998919796446138  0.7784169251210782  1.0000
  H   H16       1.0  0.23615983511781746  0.9474684800028469  0.6235162472425201  1.0000
  H   H17       1.0  0.3693995263831341  0.019805393020043  0.6558514260864854  1.0000
  H   H18       1.0  0.1638096824617961  0.0496083376024714  0.6469586457733669  1.0000
  H   H19       1.0  0.06680204196887732  0.6547813054715517  0.08033453337335317  1.0000
  H   H20       1.0  0.9422531912444613  0.7860896803011669  0.0395383328355123  1.0000
  H   H21       1.0  0.7877730764300352  0.8850756440107331  0.16981327223759723  1.0000
  H   H22       1.0  0.9062606725099658  0.7524855259090016  0.21038531252020926  1.0000
  H   H23       1.0  0.9381221857768125  0.9025927462161504  0.957602474250315  1.0000
  H   H24       1.0  0.9598485792971377  0.9129630923579412  0.8711096655397128  1.0000
  H   H25       1.0  0.5830823275824385  0.1033575344966096  0.8658762615419349  1.0000
  H   H26       1.0  0.5775695629822125  0.10278358290157999  0.9526178348044423  1.0000
  H   H27       1.0  0.577828853174644  0.2128485991019957  0.0443604901037986  1.0000
  H   H28       1.0  0.46360461309299694  0.34089562364943765  0.08799702286808041  1.0000
  H   H29       1.0  0.5028387398627814  0.18996859018773896  0.2144158378033154  1.0000
  H   H30       1.0  0.6112869179749297  0.06226648565979789  0.17060614631859036  1.0000
  H   H31       1.0  0.6855975572952958  0.41543461995359354  0.2352494971739603  1.0000
  H   H32       1.0  0.8709553133316918  0.47178029510245517  0.2496698516419968  1.0000
  H   H33       1.0  0.6914310783866711  0.5010295285618085  0.2783547236845436  1.0000
  H   H34       1.0  0.7360584594625551  0.5524966302372859  0.12345632953806529  1.0000
  H   H35       1.0  0.8693686360114583  0.48021391813091424  0.15579383123048268  1.0000
  H   H36       1.0  0.6638067192839472  0.45033224950658013  0.1469122145599471  1.0000
  H   H37       1.0  0.9331555346296343  0.34520955694259203  0.9196619259946103  1.0000
  H   H38       1.0  0.05772077891926843  0.2139058273342016  0.9604607734252679  1.0000
  H   H39       1.0  0.21227385018424638  0.11493778116165027  0.8301895971785455  1.0000
  H   H40       1.0  0.09378164764383003  0.24752524496312836  0.7896150704670859  1.0000
  H   H41       1.0  0.06188827788577099  0.09740873420103209  0.0423981675528182  1.0000
  H   H42       1.0  0.04014302534530861  0.08703971474701429  0.1288907195220261  1.0000
  H   H43       1.0  0.4168704247402601  0.8966207202864281  0.13412255588078636  1.0000
  H   H44       1.0  0.42241140086414936  0.8971993173690859  0.04738309790525359  1.0000
  H   H45       1.0  0.4221512439880044  0.7871595162099609  0.9556335058710204  1.0000
  H   H46       1.0  0.5363730023448454  0.6591085102720625  0.9119997092907467  1.0000
  H   H47       1.0  0.4971847677302678  0.8100428438262739  0.7855832503383624  1.0000
  H   H48       1.0  0.3887273309530599  0.9377495930434775  0.8293890070716046  1.0000
  H   H49       1.0  0.3144046868659132  0.5845715051572781  0.7647503402362898  1.0000
  H   H50       1.0  0.1290494431014793  0.5282238394254789  0.7503265575135885  1.0000
  H   H51       1.0  0.30857729236471  0.4989838958005635  0.7216400034386155  1.0000
  H   H52       1.0  0.2639360885352318  0.447465036717375  0.8765309382891999  1.0000
  H   H53       1.0  0.1306430667252698  0.5197663286217633  0.8442054424756904  1.0000
  H   H54       1.0  0.3362036020370667  0.5496327354664244  0.8530915415476553  1.0000
  H   H55       1.0  0.43306222590522486  0.15478554823206278  0.41965876258411317  1.0000
  H   H56       1.0  0.5575993095488984  0.28609197202711556  0.4604677100464016  1.0000
  H   H57       1.0  0.7123225286868192  0.38507775474756295  0.33021391966910574  1.0000
  H   H58       1.0  0.5938738976488198  0.25247886368923383  0.2896325901325625  1.0000
  H   H59       1.0  0.561913402897034  0.4025630687505881  0.5424356240077941  1.0000
  H   H60       1.0  0.5402134191121347  0.4129088520530004  0.6289273899718564  1.0000
  H   H61       1.0  0.9168900464457578  0.6033908009921872  0.6341493571646523  1.0000
  H   H62       1.0  0.9224014052970805  0.6028280860184979  0.5474108819255932  1.0000
  H   H63       1.0  0.9221742552599678  0.7128809079251324  0.4556387229879846  1.0000
  H   H64       1.0  0.03636082355521351  0.840931839753139  0.4119838359680655  1.0000
  H   H65       1.0  0.9971972396986787  0.6899306296769507  0.28558697726199256  1.0000
  H   H66       1.0  0.8887593294687904  0.5622397591729181  0.3294129490719158  1.0000
  H   H67       1.0  0.8143157928414483  0.9154756909239411  0.2646854851969422  1.0000
  H   H68       1.0  0.6289525998788577  0.9718119546966331  0.250264270138608  1.0000
  H   H69       1.0  0.8084915493075329  0.0010783664363600998  0.2215807307399231  1.0000
  H   H70       1.0  0.7638249305703938  0.052542953172164196  0.3764788510225117  1.0000
  H   H71       1.0  0.6306053693260268  0.980195423763952  0.3441418687561395  1.0000
  H   H72       1.0  0.8362032790932974  0.950405750398332  0.35303891381290947  1.0000
  C   C1        1.0  0.5718760526452229  0.8812862501418692  0.670638500780825  1.0000
  C   C2        1.0  0.49128632084878643  0.8045672350643612  0.6474021438868505  1.0000
  C   C3        1.0  0.5028055699182304  0.7950729976234426  0.5992933515441763  1.0000
  C   C4        1.0  0.43526087370015903  0.7224258304496728  0.5768377420283598  1.0000
  C   C5        1.0  0.35779441904900017  0.6571137351253213  0.6023693286094698  1.0000
  C   C6        1.0  0.34636757307104205  0.6665993483307202  0.6504953062082706  1.0000
  C   C7        1.0  0.4116196983098206  0.7403386730768485  0.6729217820057867  1.0000
  C   C8        1.0  0.29286198171769234  0.5782909477078632  0.5781425763075063  1.0000
  C   C9        1.0  0.24633368098180605  0.5028907713776362  0.5108427150438146  1.0000
  C   C10       1.0  0.1730200195899272  0.443431050609199  0.5792648937110412  1.0000
  C   C11       1.0  0.25704819232101533  0.49760810404005434  0.4600118595034104  1.0000
  C   C12       1.0  0.36373858237799794  0.5522250215383054  0.437111411676149  1.0000
  C   C13       1.0  0.3744833497293456  0.5472754403801118  0.3893175430174836  1.0000
  C   C14       1.0  0.2733205677568478  0.4910133252150998  0.3635747343411778  1.0000
  C   C15       1.0  0.16470400161937704  0.43781106116064444  0.3862976492871724  1.0000
  C   C16       1.0  0.1595056701451654  0.43920876449600127  0.434330109951773  1.0000
  C   C17       1.0  0.28032911637311037  0.48980678594561766  0.3121245419081831  1.0000
  C   C18       1.0  0.1041584136711293  0.3692368227034065  0.6051269185744417  1.0000
  C   C19       1.0  0.0612609186561173  0.29090289737016667  0.5815339229756588  1.0000
  C   C20       1.0  0.9990071520760821  0.2201928561910407  0.6056306860998573  1.0000
  C   C21       1.0  0.9798574255951563  0.2261528402440192  0.6536470287811438  1.0000
  C   C22       1.0  0.020815470640307907  0.3045580107546684  0.6772943275238246  1.0000
  C   C23       1.0  0.08188708375241302  0.3758218051052964  0.6530058929505883  1.0000
  C   C24       1.0  0.913630652835842  0.14769468886442638  0.6777901534438653  1.0000
  C   C25       1.0  0.24249613125687117  0.02218418190742  0.7461919355144031  1.0000
  C   C26       1.0  0.2482327850225802  0.9951607962021284  0.6520443241498199  1.0000
  C   C27       1.0  0.6672768060455782  0.3312606535712633  0.7652170120882147  1.0000
  C   C28       1.0  0.6112814220500412  0.2557133639961505  0.7409027906178949  1.0000
  C   C29       1.0  0.0718083447354516  0.6186942031917155  0.17062432003698547  1.0000
  C   C30       1.0  0.9912574378313297  0.6954354972932177  0.14740010496345948  1.0000
  C   C31       1.0  0.0027081488035705006  0.7049238113501488  0.0992910871631025  1.0000
  C   C32       1.0  0.9351605337243711  0.7775686133656379  0.0768439417907416  1.0000
  C   C33       1.0  0.8577589466776417  0.8428822622952623  0.10238945973173227  1.0000
  C   C34       1.0  0.8464251069695126  0.8334081738837114  0.1505129106130951  1.0000
  C   C35       1.0  0.91166018485918  0.7596728142015363  0.1729347762710773  1.0000
  C   C36       1.0  0.7928196800163789  0.9217017834641082  0.07816490655648069  1.0000
  C   C37       1.0  0.7462865189283293  0.997087421246789  0.010864160737440898  1.0000
  C   C38       1.0  0.6730044294301224  0.05655786831735551  0.0792785024618823  1.0000
  C   C39       1.0  0.7570311060017758  0.0023819930375452996  0.9600369447278039  1.0000
  C   C40       1.0  0.8637804089011497  0.9477944430134642  0.9371420950938327  1.0000
  C   C41       1.0  0.8745294438939413  0.9527483924738361  0.8893489687560743  1.0000
  C   C42       1.0  0.7733502181700588  0.00897798797142  0.8636059847421435  1.0000
  C   C43       1.0  0.6647161144339576  0.06216850598679  0.8863240709111648  1.0000
  C   C44       1.0  0.6594810276956053  0.060764687173907796  0.9343560335411991  1.0000
  C   C45       1.0  0.7803563312020145  0.010178819383575897  0.8121616433197545  1.0000
  C   C46       1.0  0.6041381051043261  0.13076464460677778  0.1051323755326621  1.0000
  C   C47       1.0  0.561210858472478  0.20907238932215225  0.0815249942893956  1.0000
  C   C48       1.0  0.4989501228179805  0.2797797440490156  0.10561603548666909  1.0000
  C   C49       1.0  0.4798088934797776  0.27383160374204607  0.1536328500334534  1.0000
  C   C50       1.0  0.5208124592012525  0.19545613344039478  0.17729402576537717  1.0000
  C   C51       1.0  0.5819009835387305  0.12419402331040168  0.15301494280556938  1.0000
  C   C52       1.0  0.4135218835605343  0.3522878420913643  0.1777580575923992  1.0000
  C   C53       1.0  0.7424001190812463  0.47777331916981314  0.2461317269074428  1.0000
  C   C54       1.0  0.7481805808682299  0.5048131377745619  0.1519865404652592  1.0000
  C   C55       1.0  0.16728380449233526  0.168768916629304  0.265155290388229  1.0000
  C   C56       1.0  0.11128808194108333  0.24431997476465026  0.24084509310037552  1.0000
  C   C57       1.0  0.9281928129851807  0.3813019686104582  0.8293734251166214  1.0000
  C   C58       1.0  0.008739005568564613  0.304566646382554  0.8525975760059976  1.0000
  C   C59       1.0  0.9972682253120271  0.29507235989792235  0.9007070130864461  1.0000
  C   C60       1.0  0.06482882164350204  0.22242888527883045  0.9231539889342953  1.0000
  C   C61       1.0  0.1422478879296278  0.1571198815820978  0.8976132101406478  1.0000
  C   C62       1.0  0.15360533300749074  0.166599942499829  0.8494893881182575  1.0000
  C   C63       1.0  0.08835846821746435  0.24033596547356953  0.8270673619968746  1.0000
  C   C64       1.0  0.20718368072380855  0.0783030145569867  0.9218363310386194  1.0000
  C   C65       1.0  0.25370044804226666  0.0029100773405375006  0.9891344299642738  1.0000
  C   C66       1.0  0.3269884935411157  0.9434462659417662  0.9207187843342408  1.0000
  C   C67       1.0  0.2429570239050065  0.997612187807846  0.03996200805425329  1.0000
  C   C68       1.0  0.1362231061075931  0.0522004017347513  0.0628556821521968  1.0000
  C   C69       1.0  0.12545758452861122  0.047241807038659496  0.1106482378053073  1.0000
  C   C70       1.0  0.2266260773040187  0.9910035850955904  0.1363938456777731  1.0000
  C   C71       1.0  0.3352554506027658  0.9378110763137713  0.11367604135759989  1.0000
  C   C72       1.0  0.34048932789444564  0.939218212861341  0.06564475475131099  1.0000
  C   C73       1.0  0.21961633537003425  0.9898054078030114  0.1878402151698353  1.0000
  C   C74       1.0  0.3958571597026079  0.8692388261491075  0.8948652893907294  1.0000
  C   C75       1.0  0.4387702621459938  0.7909330717792643  0.9184724780781577  1.0000
  C   C76       1.0  0.501040334545053  0.7202283714596971  0.8943836414604645  1.0000
  C   C77       1.0  0.5201839986377408  0.72617452117165  0.8463651288324883  1.0000
  C   C78       1.0  0.47920175805553117  0.8045513190672934  0.8227018196923623  1.0000
  C   C79       1.0  0.4181096200640583  0.8758127655536042  0.8469825846864366  1.0000
  C   C80       1.0  0.5864487215671375  0.6477143010234626  0.822237194149096  1.0000
  C   C81       1.0  0.2576069948954895  0.5222328060698372  0.7538647143412759  1.0000
  C   C82       1.0  0.25181930375678263  0.4951651180523129  0.8480132648463368  1.0000
  C   C83       1.0  0.8327145311929983  0.8312332270263241  0.734852803714787  1.0000
  C   C84       1.0  0.8887032585288283  0.7556748696616181  0.759161174549483  1.0000
  C   C85       1.0  0.42812971163808566  0.11871390306684049  0.32936173080190656  1.0000
  C   C86       1.0  0.5087300986611539  0.1954388903652173  0.352597194010265  1.0000
  C   C87       1.0  0.4972024588365829  0.2049284827293505  0.4007089883397157  1.0000
  C   C88       1.0  0.5647471086463582  0.27757697700214834  0.4231656359599113  1.0000
  C   C89       1.0  0.6421958675712175  0.34289172614428054  0.3976341547187373  1.0000
  C   C90       1.0  0.6536251486102246  0.33340810366268403  0.3495064790395972  1.0000
  C   C91       1.0  0.5883871678153697  0.25967010633669213  0.32708019579861497  1.0000
  C   C92       1.0  0.7071247999773576  0.4217165041475111  0.42186016681267086  1.0000
  C   C93       1.0  0.7536637397210768  0.49711336295229797  0.48915948042345997  1.0000
  C   C94       1.0  0.826977323697669  0.5565744108149245  0.4207390319299903  1.0000
  C   C95       1.0  0.7429408843415999  0.5023940394328861  0.5399922998471283  1.0000
  C   C96       1.0  0.6362517816064113  0.44777844908396947  0.5628903414781589  1.0000
  C   C97       1.0  0.6255023460360648  0.4527286936979209  0.6106831078474639  1.0000
  C   C98       1.0  0.7266698580882647  0.5089881547574323  0.6364256346739268  1.0000
  C   C99       1.0  0.8352839116472169  0.5621884280760125  0.6137061479817446  1.0000
  C   C100      1.0  0.8404857949658221  0.5607940425872115  0.5656733894222228  1.0000
  C   C101      1.0  0.7196565479254673  0.5101913761493648  0.6878768010248777  1.0000
  C   C102      1.0  0.8958590137400435  0.6307659849600853  0.3948762417499622  1.0000
  C   C103      1.0  0.9387823931290242  0.70909460243643  0.41847062847149624  1.0000
  C   C104      1.0  0.0010397265460185081  0.7798013259331782  0.3943732214162664  1.0000
  C   C105      1.0  0.020170640210736196  0.7738386872564006  0.3463555838886521  1.0000
  C   C106      1.0  0.9791996141687705  0.6954355071150289  0.3227084546711935  1.0000
  C   C107      1.0  0.9181220305232999  0.624177684599758  0.3469985391874103  1.0000
  C   C108      1.0  0.08637391699336665  0.8523021465500307  0.3222104081265015  1.0000
  C   C109      1.0  0.7575203654128942  0.9778172986622877  0.25380567220824446  1.0000
  C   C110      1.0  0.7517672879435581  0.004847319544815299  0.3479513287518045  1.0000
  C   C111      1.0  0.3327442045235429  0.6687494532624282  0.2347851582727216  1.0000
  C   C112      1.0  0.3887503988828485  0.7443040421888297  0.2590950257107565  1.0000
  S   S1        1.0  0.19773093921327967  0.9372251990663967  0.704157257632829  1.0000
  S   S2        1.0  0.5516249413078144  0.21115009281675157  0.6915328339808225  1.0000
  S   S3        1.0  0.6792237178295722  0.2305340344665865  0.7958029668222082  1.0000
  S   S4        1.0  0.6976782583640785  0.562747188927169  0.20409867822333175  1.0000
  S   S5        1.0  0.051545564112508706  0.28887918655572525  0.19149535800880094  1.0000
  S   S6        1.0  0.17933168181211562  0.2694777883474231  0.29572929410804955  1.0000
  S   S7        1.0  0.30232334870245137  0.4372456651793756  0.7958890319234085  1.0000
  S   S8        1.0  0.948459811714848  0.7111096861892959  0.8085135244389007  1.0000
  S   S9        1.0  0.8206335723807429  0.7305177190323914  0.7042800808691041  1.0000
  S   S10       1.0  0.8022738793360561  0.06278026257746919  0.2958377673842634  1.0000
  S   S11       1.0  0.44840335934969033  0.7888712946109917  0.3084645881749211  1.0000
  S   S12       1.0  0.32078322550653143  0.7694707636402215  0.20419728080787533  1.0000
  N   N1        1.0  0.30511586036528376  0.5757633600278566  0.5318653780582635  1.0000
  N   N2        1.0  0.17910599401069763  0.43492869341198304  0.5329414734889042  1.0000
  N   N3        1.0  0.22750773016785789  0.5139890513765549  0.6034474495072715  1.0000
  N   N4        1.0  0.805055042308716  0.9242298066964947  0.0318884907480239  1.0000
  N   N5        1.0  0.6790563517436752  0.06505242389713568  0.0329546044746039  1.0000
  N   N6        1.0  0.727501309319486  0.9860124106192815  0.10346912210534497  1.0000
  N   N7        1.0  0.19496012078423064  0.07577366448230549  0.9681125612756389  1.0000
  N   N8        1.0  0.3209306773941806  0.9349470653592603  0.9670426020887604  1.0000
  N   N9        1.0  0.2724950569205902  0.013994377916354496  0.8965302890385798  1.0000
  N   N10       1.0  0.6948732943257382  0.42424541898851226  0.468137051120216  1.0000
  N   N11       1.0  0.820899599887447  0.5650734504295654  0.46706256447590266  1.0000
  N   N12       1.0  0.772473158204747  0.4860203910074431  0.39655521338156047  1.0000
  O   O1        1.0  0.6820723718626456  0.9201451752851781  0.6495114834759048  1.0000
  O   O2        1.0  0.5352855664208961  0.9054750198387325  0.7115693471481066  1.0000
  O   O3        1.0  0.40256753612920454  0.5189926919199265  0.2926330141929369  1.0000
  O   O4        1.0  0.1614202297363363  0.4602011862586152  0.2879423306979234  1.0000
  O   O5        1.0  0.8599431218004129  0.08374901731426118  0.6528699021779757  1.0000
  O   O6        1.0  0.910944092394388  0.14405809208874837  0.7222160386016796  1.0000
  O   O7        1.0  0.017002627362593614  0.9328205139516966  0.7000608764019487  1.0000
  O   O8        1.0  0.5538030748507623  0.1109608983043557  0.6946829367384594  1.0000
  O   O9        1.0  0.18193122874485113  0.5798172136024604  0.1494759394152254  1.0000
  O   O10       1.0  0.035258846065403304  0.5945013241135226  0.21155749601927448  1.0000
  O   O11       1.0  0.9025752381251095  0.9809718373697153  0.7926707950095774  1.0000
  O   O12       1.0  0.6614666287990119  0.0397853841172306  0.7879689102203074  1.0000
  O   O13       1.0  0.35984567283799157  0.41622743928071054  0.15283127499191806  1.0000
  O   O14       1.0  0.41079805729999924  0.3559363943346554  0.22218585306367086  1.0000
  O   O15       1.0  0.5169542690762868  0.5671471904606519  0.1999999247667148  1.0000
  O   O16       1.0  0.0537501533653142  0.38906711394084664  0.1946363049878244  1.0000
  O   O17       1.0  0.8180700065443602  0.4201796217649303  0.8505200755650435  1.0000
  O   O18       1.0  0.9647422961006458  0.40549418413310423  0.788440595168879  1.0000
  O   O19       1.0  0.09741275214803122  0.019021016347664996  0.2073312720844527  1.0000
  O   O20       1.0  0.33850735518214486  0.9601882262670923  0.2120298500011089  1.0000
  O   O21       1.0  0.6401049096691481  0.5837707220730621  0.847163357926  1.0000
  O   O22       1.0  0.5891832339080169  0.6440697303464659  0.7778078129223827  1.0000
  O   O23       1.0  0.4830482684761891  0.43284367297399473  0.7999933379810783  1.0000
  O   O24       1.0  0.9462282674064683  0.6109204311204619  0.8053687480464902  1.0000
  O   O25       1.0  0.31793328410057603  0.07985763211916459  0.35049117035026  1.0000
  O   O26       1.0  0.46472250879331517  0.09452579696817762  0.28843195463156224  1.0000
  O   O27       1.0  0.5974347373018319  0.4809908723891779  0.7073661311431108  1.0000
  O   O28       1.0  0.8385536949387672  0.5398075924322184  0.7120578136697729  1.0000
  O   O29       1.0  0.1400238392282844  0.916259761236546  0.3471277236687271  1.0000
  O   O30       1.0  0.08908527582804741  0.855929454138348  0.27778382183606704  1.0000
  O   O31       1.0  0.9829997255274494  0.06718826538862287  0.2999365387660048  1.0000
  O   O32       1.0  0.4461991859890801  0.8890604885310437  0.3053165546403562  1.0000
