data_image0
_chemical_formula_structural       Co4H16C24N16O8
_chemical_formula_sum              "Co4 H16 C24 N16 O8"
_cell_length_a       5.862434905167586
_cell_length_b       10.159222630219467
_cell_length_c       12.580200144039317
_cell_angle_alpha    89.9998594098481
_cell_angle_beta     89.99971771321287
_cell_angle_gamma    89.99922638985656

_space_group_name_H-M_alt    "P 1"
_space_group_IT_number       1

loop_
  _space_group_symop_operation_xyz
  'x, y, z'

loop_
  _atom_site_type_symbol
  _atom_site_label
  _atom_site_symmetry_multiplicity
  _atom_site_fract_x
  _atom_site_fract_y
  _atom_site_fract_z
  _atom_site_occupancy
  Co  Co1       1.0  0.2084205356953674  0.6800573348066266  0.4936772069010189  1.0000
  Co  Co2       1.0  0.29157026202040726  0.31993814177592833  0.9936774563019384  1.0000
  Co  Co3       1.0  0.7915683662210924  0.18004401189010366  0.006323032430557902  1.0000
  Co  Co4       1.0  0.7084227576018731  0.8199557504035582  0.5063264653774269  1.0000
  H   H1        1.0  0.7150734818980735  0.03683128451422139  0.21244161611504353  1.0000
  H   H2        1.0  0.7849174129296657  0.963180655643427  0.7124374122639097  1.0000
  H   H3        1.0  0.28489303736924393  0.536829838852654  0.2875533463149226  1.0000
  H   H4        1.0  0.21508775471356498  0.4631583815701745  0.7875542985271053  1.0000
  H   H5        1.0  0.475420175494861  0.9960748927877249  0.9032829098318944  1.0000
  H   H6        1.0  0.024578293759553595  0.003921839291372499  0.4032852814464647  1.0000
  H   H7        1.0  0.5245859615475439  0.49609792170702594  0.5967079400106884  1.0000
  H   H8        1.0  0.9754281946779669  0.5039094439346172  0.09671213167554528  1.0000
  H   H9        1.0  0.18587096314470125  0.7535497835534315  0.1513670277254704  1.0000
  H   H10       1.0  0.3141418111673104  0.24644081398980688  0.6513641873840043  1.0000
  H   H11       1.0  0.8141316464521609  0.2535559210407214  0.34863147430766633  1.0000
  H   H12       1.0  0.6859040259527018  0.7464556103115001  0.8486422664018676  1.0000
  H   H13       1.0  0.2027638472811546  0.8205861155802624  0.957187981809085  1.0000
  H   H14       1.0  0.29724776233705086  0.1794015957786073  0.4571861254625631  1.0000
  H   H15       1.0  0.797256450222207  0.320610041493289  0.5428087844297452  1.0000
  H   H16       1.0  0.7027855041493893  0.6794112663206134  0.0428172947046903  1.0000
  C   C1        1.0  0.4557484496869293  0.8514181399397671  0.3107535563243431  1.0000
  C   C2        1.0  0.04424918232278689  0.14857788543243794  0.8107508066103934  1.0000
  C   C3        1.0  0.5442280897538581  0.35141317019036933  0.1892479289813451  1.0000
  C   C4        1.0  0.9557630228898403  0.6485860432894698  0.6892494843864156  1.0000
  C   C5        1.0  0.6013509865290274  0.9857676234445876  0.1579504202621891  1.0000
  C   C6        1.0  0.8986387140667276  0.014235621252474597  0.6579502147543225  1.0000
  C   C7        1.0  0.3986191357416047  0.48577322281369106  0.3420468209711203  1.0000
  C   C8        1.0  0.10136285053961562  0.5142236930589944  0.8420463713325717  1.0000
  C   C9        1.0  0.46529637880887253  0.9630988623777694  0.9854779915446488  1.0000
  C   C10       1.0  0.0346979074161666  0.03689860745118519  0.4854739119470822  1.0000
  C   C11       1.0  0.5347002613381946  0.46311418097004525  0.5145192836830503  1.0000
  C   C12       1.0  0.9653146663716966  0.5368885096145563  0.0145250247972513  1.0000
  C   C13       1.0  0.30559185094622165  0.827758757208585  0.12310095441359441  1.0000
  C   C14       1.0  0.194416071364472  0.17222995650265457  0.6230993635910808  1.0000
  C   C15       1.0  0.6944005695444629  0.3277746426289525  0.3768966038235604  1.0000
  C   C16       1.0  0.8056211913054978  0.6722427099478523  0.8769032646113006  1.0000
  C   C17       1.0  0.4545596564075466  0.8880726975124914  0.1951583808202173  1.0000
  C   C18       1.0  0.045428825953450803  0.11192269038159  0.6951557016298225  1.0000
  C   C19       1.0  0.545407534026772  0.388080167577172  0.3048414411382367  1.0000
  C   C20       1.0  0.9545876108829887  0.6119246050380126  0.8048462527158122  1.0000
  C   C21       1.0  0.313551083558444  0.8650904811560877  0.0165668306584905  1.0000
  C   C22       1.0  0.18645954446410684  0.1349005208289782  0.5165629503602674  1.0000
  C   C23       1.0  0.6864575594687281  0.3651130019099398  0.4834314475456125  1.0000
  C   C24       1.0  0.8135529668120396  0.6349000937731618  0.9834389578880265  1.0000
  N   N1        1.0  0.3733170846800391  0.8323721944105955  0.6655095628509999  1.0000
  N   N2        1.0  0.1266750876110265  0.16761540780395018  0.1655065758920955  1.0000
  N   N3        1.0  0.6266910088021049  0.3323897421754296  0.8344863848612931  1.0000
  N   N4        1.0  0.8733004462958647  0.667616910172292  0.3344881241068408  1.0000
  N   N5        1.0  0.4004105793987947  0.8134386911322693  0.5707328357267799  1.0000
  N   N6        1.0  0.099585894027129  0.18655116407601466  0.0707267003548822  1.0000
  N   N7        1.0  0.5995945261642746  0.3134443629756234  0.9292758683896665  1.0000
  N   N8        1.0  0.9003926276981316  0.6865600363461652  0.4292767055375536  1.0000
  N   N9        1.0  0.6044087383327792  0.0242365181287738  0.05547288422359031  1.0000
  N   N10       1.0  0.8955904530041392  0.9757670339827483  0.5554747317118968  1.0000
  N   N11       1.0  0.3955921780766758  0.5242464975472458  0.44452289832213415  1.0000
  N   N12       1.0  0.10441102148782731  0.4757451891508993  0.9445225181284017  1.0000
  N   N13       1.0  0.3469093162886239  0.8530430401800829  0.7552021075131776  1.0000
  N   N14       1.0  0.1530854256888645  0.14694527725788475  0.2551959149931875  1.0000
  N   N15       1.0  0.6530880799971754  0.3530635952548237  0.7448112865320767  1.0000
  N   N16       1.0  0.8469093340967432  0.6469462790950331  0.24481392955438253  1.0000
  O   O1        1.0  0.30512748440730064  0.7712639506582377  0.3420228069242698  1.0000
  O   O2        1.0  0.1948698540551916  0.22873690253864953  0.8420187168615173  1.0000
  O   O3        1.0  0.6948372021148543  0.27124505344557553  0.1579764545390745  1.0000
  O   O4        1.0  0.805167850147363  0.7287621284111411  0.6579822081475444  1.0000
  O   O5        1.0  0.6120631929001661  0.9033692273644646  0.3684201137156365  1.0000
  O   O6        1.0  0.8879160032982651  0.09663535457508489  0.8684181804427668  1.0000
  O   O7        1.0  0.3879002440036174  0.40335684312245945  0.1315804724751573  1.0000
  O   O8        1.0  0.1120854235781721  0.5966347982144454  0.6315830096984314  1.0000
