data_image0
_chemical_formula_structural       Cd4H36C20O26
_chemical_formula_sum              "Cd4 H36 C20 O26"
_cell_length_a       8.567470116202452
_cell_length_b       9.519965879098892
_cell_length_c       11.025528940944504
_cell_angle_alpha    89.34504975448257
_cell_angle_beta     83.64176088959515
_cell_angle_gamma    65.88616821828255

_space_group_name_H-M_alt    "P 1"
_space_group_IT_number       1

loop_
  _space_group_symop_operation_xyz
  'x, y, z'

loop_
  _atom_site_type_symbol
  _atom_site_label
  _atom_site_symmetry_multiplicity
  _atom_site_fract_x
  _atom_site_fract_y
  _atom_site_fract_z
  _atom_site_occupancy
  Cd  Cd1       1.0  0.32054832763267166  0.9409179361051939  0.9950320197295215  1.0000
  Cd  Cd2       1.0  0.6794551209288499  0.0590815961625495  0.00496420334262382  1.0000
  Cd  Cd3       1.0  0.3097461507029351  0.7891834802989307  0.47458637167147094  1.0000
  Cd  Cd4       1.0  0.6902463147321071  0.21081948489412383  0.5254116292910211  1.0000
  H   H1        1.0  0.09804835542370678  0.40766706088250254  0.12708995128699033  1.0000
  H   H2        1.0  0.9019516264579932  0.5923349586974211  0.8729119426501342  1.0000
  H   H3        1.0  0.10998780165983382  0.34579137599101983  0.34039971134846786  1.0000
  H   H4        1.0  0.8900064168385883  0.6542129521640874  0.6596035293743513  1.0000
  H   H5        1.0  0.8966489986138837  0.649020319753582  0.07016261705145871  1.0000
  H   H6        1.0  0.10335255905722815  0.35097834555057256  0.9298419722306762  1.0000
  H   H7        1.0  0.9290625367536904  0.6193953229243406  0.41596680790998153  1.0000
  H   H8        1.0  0.07093446561091812  0.3806055253908339  0.5840353942770237  1.0000
  H   H9        1.0  0.06344358100437823  0.5960957454635292  0.27897662617155566  1.0000
  H   H10       1.0  0.936552343268545  0.40390743823517267  0.7210265003128385  1.0000
  H   H11       1.0  0.809998424440941  0.8027254349511067  0.24306689437827342  1.0000
  H   H12       1.0  0.18999794105236842  0.19727425550349403  0.7569354048144561  1.0000
  H   H13       1.0  0.8412943070376924  0.428638062123447  0.023273461224960112  1.0000
  H   H14       1.0  0.15870503797271593  0.5713627995959029  0.9767285297178959  1.0000
  H   H15       1.0  0.7260071663290901  0.43807799847759543  0.16797604198036  1.0000
  H   H16       1.0  0.27399323839605916  0.5619205939913456  0.8320268387944766  1.0000
  H   H17       1.0  0.2695278351761843  0.08645446344304729  0.5531491786066881  1.0000
  H   H18       1.0  0.7304674797908531  0.9135474631953924  0.44685132368936564  1.0000
  H   H19       1.0  0.08891434279459529  0.06957498107082219  0.5906653034388896  1.0000
  H   H20       1.0  0.9110781410173839  0.9304279179891068  0.40933088339423324  1.0000
  H   H21       1.0  0.5968391108763597  0.7555787561062745  0.568618291028848  1.0000
  H   H22       1.0  0.40315672935381036  0.2444220524402496  0.4313831097155473  1.0000
  H   H23       1.0  0.6401013094586432  0.5841111156752274  0.5944145708598257  1.0000
  H   H24       1.0  0.3599031712522135  0.4158862465418025  0.4055852632383719  1.0000
  H   H25       1.0  0.14931309271725005  0.8321399312942076  0.24425606236994923  1.0000
  H   H26       1.0  0.8506857637838935  0.167861916250807  0.7557414018658122  1.0000
  H   H27       1.0  0.1267154519603721  0.9885757523225391  0.3018371717595159  1.0000
  H   H28       1.0  0.8732804342121481  0.011424890891156302  0.6981596936614382  1.0000
  H   H29       1.0  0.427162416227759  0.7970152752583742  0.7550674731256919  1.0000
  H   H30       1.0  0.572839010111721  0.20297850747514454  0.24493003641769923  1.0000
  H   H31       1.0  0.231721026130664  0.8364530736757558  0.7702987068655317  1.0000
  H   H32       1.0  0.7682805118169753  0.1635429850102668  0.2296978072237934  1.0000
  H   H33       1.0  0.3062672761768467  0.6754475499168534  0.06940857122268082  1.0000
  H   H34       1.0  0.6937373253306375  0.3245520551861033  0.9305893603567627  1.0000
  H   H35       1.0  0.1100122805559919  0.7816281159004748  0.041227068548671794  1.0000
  H   H36       1.0  0.8899935855056069  0.21837383799019958  0.9587715760840042  1.0000
  C   C1        1.0  0.0005597956975904991  0.36893125886834344  0.17162738374677391  1.0000
  C   C2        1.0  0.999444122996259  0.631067353706861  0.8283751801618281  1.0000
  C   C3        1.0  0.6303924913880297  0.7267199555039524  0.06941440266308518  1.0000
  C   C4        1.0  0.3696114916250932  0.2732784256053051  0.930581811792706  1.0000
  C   C5        1.0  0.9842161283532747  0.4119856105109534  0.3071908274309862  1.0000
  C   C6        1.0  0.015783225845595474  0.5880152181418338  0.6928102564471743  1.0000
  C   C7        1.0  0.7923335475615474  0.6316369369308388  0.1272100532647117  1.0000
  C   C8        1.0  0.207669172243989  0.36836176814196614  0.8727953374600335  1.0000
  C   C9        1.0  0.9468563875725807  0.5835478117142968  0.31961860352360105  1.0000
  C   C10       1.0  0.0531378401143101  0.41645648337424024  0.6803837301345297  1.0000
  C   C11       1.0  0.8624092527994377  0.35892839491467743  0.3862398348737345  1.0000
  C   C12       1.0  0.13759222082892109  0.6410678952372918  0.6137630286684016  1.0000
  C   C13       1.0  0.7937360083312794  0.6944476739007541  0.2548204134553842  1.0000
  C   C14       1.0  0.20625927907035194  0.3055543519373812  0.7451828100347341  1.0000
  C   C15       1.0  0.6260682161979363  0.7387983314123615  0.3375149645849405  1.0000
  C   C16       1.0  0.3739296003119322  0.26120839200119417  0.6624896850116428  1.0000
  C   C17       1.0  0.08586791132115927  0.1982477532425975  0.1370707346794049  1.0000
  C   C18       1.0  0.9141395213413829  0.8017508794388775  0.8629315123629767  1.0000
  C   C19       1.0  0.832156170018358  0.46059414549868194  0.1196277754305513  1.0000
  C   C20       1.0  0.16784592210435526  0.5394033686469868  0.8803768052352298  1.0000
  O   O1        1.0  0.593315087349673  0.8398897489868488  0.4233820016781635  1.0000
  O   O2        1.0  0.40668265430591066  0.1601145662079588  0.5766200151137398  1.0000
  O   O3        1.0  0.1875325730056687  0.045014073230206  0.526182860983269  1.0000
  O   O4        1.0  0.8124645685325047  0.9549889518377768  0.47381562455560566  1.0000
  O   O5        1.0  0.5245924483846379  0.674723133410964  0.32240716810790104  1.0000
  O   O6        1.0  0.475406250566003  0.32527660351437493  0.6775958269053605  1.0000
  O   O7        1.0  0.5637042805774823  0.6891448296709156  0.6259489634059108  1.0000
  O   O8        1.0  0.43629900124506793  0.3108526250437151  0.37405369750842254  1.0000
  O   O9        1.0  0.5714322544738335  0.8756079616737793  0.0823628282144426  1.0000
  O   O10       1.0  0.42856649960761917  0.1243915768521759  0.9176347244106964  1.0000
  O   O11       1.0  0.1144781323586485  0.8919259603977707  0.32372008863004004  1.0000
  O   O12       1.0  0.8855177538138718  0.108074682815932  0.676276776790914  1.0000
  O   O13       1.0  0.5583038576216592  0.6629525248033303  0.010162309783908113  1.0000
  O   O14       1.0  0.4417060003829006  0.3370458236832405  0.9898315624321229  1.0000
  O   O15       1.0  0.3169797498923115  0.8678505845330662  0.801230149596684  1.0000
  O   O16       1.0  0.6830212444152506  0.1321466583780051  0.19876728017367642  1.0000
  O   O17       1.0  0.7925357455283187  0.4218160755480724  0.4906622968930919  1.0000
  O   O18       1.0  0.2074585872079594  0.5781752256876018  0.5093323065133789  1.0000
  O   O19       1.0  0.20384879497941444  0.7699990936446851  0.09407367247533932  1.0000
  O   O20       1.0  0.7961576055337858  0.2300017090875031  0.9059249635409898  1.0000
  O   O21       1.0  0.8442326780027398  0.24016374244865793  0.34795371204393893  1.0000
  O   O22       1.0  0.15576839900104034  0.7598332028633407  0.6520355541442343  1.0000
  O   O23       1.0  0.0530030691716874  0.152655081722088  0.0359395006634742  1.0000
  O   O24       1.0  0.947001504770384  0.8473446225805646  0.9640611521100338  1.0000
  O   O25       1.0  0.20242114851529885  0.10795610219756915  0.19594588603517596  1.0000
  O   O26       1.0  0.7975811668237327  0.892045963853093  0.8040567037224875  1.0000
