data_image0
_chemical_formula_structural       V4Cd4H16C4N4O14
_chemical_formula_sum              "V4 Cd4 H16 C4 N4 O14"
_cell_length_a       5.155086436246052
_cell_length_b       6.3458773873033
_cell_length_c       14.711627449000705
_cell_angle_alpha    89.9999639025748
_cell_angle_beta     90.00000227425016
_cell_angle_gamma    90.00111967691103

_space_group_name_H-M_alt    "P 1"
_space_group_IT_number       1

loop_
  _space_group_symop_operation_xyz
  'x, y, z'

loop_
  _atom_site_type_symbol
  _atom_site_label
  _atom_site_symmetry_multiplicity
  _atom_site_fract_x
  _atom_site_fract_y
  _atom_site_fract_z
  _atom_site_occupancy
  V   V1        1.0  0.5379136668697412  0.4999991205323299  0.8787178058904743  1.0000
  V   V2        1.0  0.4620894519697459  0.4999990594131135  0.12128223047557901  1.0000
  V   V3        1.0  0.9620886579906767  2.638237134500002e-06  0.3787174495988098  1.0000
  V   V4        1.0  0.037908251556316906  4.5848533574e-06  0.6212820459692453  1.0000
  Cd  Cd1       1.0  0.10995380566118482  0.500005286503921  0.72782287467426  1.0000
  Cd  Cd2       1.0  0.8900473734223765  0.49999919673150134  0.27217648195646404  1.0000
  Cd  Cd3       1.0  0.39004818821314313  0.9999938899731263  0.22782305890716972  1.0000
  Cd  Cd4       1.0  0.6099529907756462  2.7141311776000003e-06  0.7721762977246487  1.0000
  H   H1        1.0  0.2606168893409376  0.36013472317335277  0.5144440543657396  1.0000
  H   H2        1.0  0.7393945039151362  0.3601558779246687  0.4855553411278066  1.0000
  H   H3        1.0  0.2393827330901104  0.13986592198875772  0.0144436583616212  1.0000
  H   H4        1.0  0.7606020222631359  0.13983942496150092  0.9855557983457929  1.0000
  H   H5        1.0  0.7393842897047805  0.6398666084091361  0.485555981999866  1.0000
  H   H6        1.0  0.2606008556355945  0.6398454536111514  0.5144453749722402  1.0000
  H   H7        1.0  0.7606165060480379  0.8601291062739307  0.9855556982704103  1.0000
  H   H8        1.0  0.23939915670689518  0.8601556033151214  0.014445597489597598  1.0000
  H   H9        1.0  0.5595237529347656  0.3706887377795597  0.6408039688783518  1.0000
  H   H10       1.0  0.440476255012264  0.37069114558042315  0.35919814262288713  1.0000
  H   H11       1.0  0.9404785254093111  0.1293133606583226  0.1408042563066445  1.0000
  H   H12       1.0  0.05952343482444889  0.12930900737669054  0.8591986020022732  1.0000
  H   H13       1.0  0.440475486317048  0.6293157454409553  0.35919470801791675  1.0000
  H   H14       1.0  0.5595268638841588  0.6293117618431979  0.6408025734769611  1.0000
  H   H15       1.0  0.05952653326179559  0.8706848193030016  0.8591951003249605  1.0000
  H   H16       1.0  0.9404738645011718  0.8706875966953621  0.14080279383289  1.0000
  C   C1        1.0  0.37869418800570287  0.49999968174125103  0.529761850999961  1.0000
  C   C2        1.0  0.6213031114335125  0.5000063772891252  0.470238185364984  1.0000
  C   C3        1.0  0.12130582731246883  0.9999997774915387  0.0297620342083107  1.0000
  C   C4        1.0  0.8786957415306275  0.9999925109001923  0.9702378632208382  1.0000
  N   N1        1.0  0.44484051803473074  0.49999383391296  0.6271555626631413  1.0000
  N   N2        1.0  0.5551606609351012  0.500001194365126  0.3728437939688902  1.0000
  N   N3        1.0  0.0551610662462281  5.074519926000001e-06  0.1271558845558758  1.0000
  N   N4        1.0  0.9448401128373334  0.9999994087154962  0.872843472074841  1.0000
  O   O1        1.0  0.39246828158758973  0.2821494796221701  0.8311173917816036  1.0000
  O   O2        1.0  0.6075295962973967  0.28215165929182723  0.1688827051191879  1.0000
  O   O3        1.0  0.1075333426094573  0.2178522892675119  0.3311176533397031  1.0000
  O   O4        1.0  0.8924668680602323  0.21785197483999505  0.6688804222247029  1.0000
  O   O5        1.0  0.6075348372139259  0.7178455486713065  0.16888196485043494  1.0000
  O   O6        1.0  0.3924696428787228  0.7178465206228213  0.8311173312468584  1.0000
  O   O7        1.0  0.8924658966613778  0.7821537697787379  0.6688817032907937  1.0000
  O   O8        1.0  0.1075304314167624  0.7821572358437905  0.33111825467090483  1.0000
  O   O9        1.0  0.853786156452159  0.5000016468702596  0.8517241919930711  1.0000
  O   O10       1.0  0.1462150225366869  0.49999495723356097  0.1482758443731953  1.0000
  O   O11       1.0  0.646214613190928  0.9999989863633587  0.3517230158277158  1.0000
  O   O12       1.0  0.3537826862292662  5.4968412755e-06  0.6482763408030012  1.0000
  O   O13       1.0  0.5000016082802645  0.49999715722218246  1.0488342639999999e-07  1.0000
  O   O14       1.0  0.9999988004234196  1.276725065199999e-06  0.49999974873598063  1.0000
