data_image0
_chemical_formula_structural       Ag6H4C4N18O6
_chemical_formula_sum              "Ag6 H4 C4 N18 O6"
_cell_length_a       6.789380142154788
_cell_length_b       6.7893333877910225
_cell_length_c       10.950886288359964
_cell_angle_alpha    83.0217577729367
_cell_angle_beta     83.02139480232293
_cell_angle_gamma    71.1382366095711

_space_group_name_H-M_alt    "P 1"
_space_group_IT_number       1

loop_
  _space_group_symop_operation_xyz
  'x, y, z'

loop_
  _atom_site_type_symbol
  _atom_site_label
  _atom_site_symmetry_multiplicity
  _atom_site_fract_x
  _atom_site_fract_y
  _atom_site_fract_z
  _atom_site_occupancy
  Ag  Ag1       1.0  0.1259156498865793  0.8740858797878487  0.2499993274230761  1.0000
  Ag  Ag2       1.0  0.8740793310032233  0.1259171256485061  0.750000623553447  1.0000
  Ag  Ag3       1.0  0.46172927695901234  0.0032982379578711998  0.6898917417468622  1.0000
  Ag  Ag4       1.0  0.9967044977960102  0.5382687577754197  0.8101077474358573  1.0000
  Ag  Ag5       1.0  0.5382755798708845  0.9967015400866258  0.3101086396687052  1.0000
  Ag  Ag6       1.0  0.003296897457111921  0.46173260522194687  0.18989459660380695  1.0000
  H   H1        1.0  0.3950343537895975  0.7569738818571778  0.9683916454449245  1.0000
  H   H2        1.0  0.24301337227894496  0.6049738399948552  0.5316082129719959  1.0000
  H   H3        1.0  0.6049699568013625  0.24302278270513256  0.031609914869221684  1.0000
  H   H4        1.0  0.7569904220477427  0.3950197410138685  0.46838904280134125  1.0000
  C   C1        1.0  0.3102754924886712  0.9221690255868535  0.9717145846579668  1.0000
  C   C2        1.0  0.07785670621343146  0.6897117468821463  0.5282854657814369  1.0000
  C   C3        1.0  0.6897190820047286  0.07784021311049118  0.02828494325731868  1.0000
  C   C4        1.0  0.9221426788969256  0.3102865438463454  0.47171359454677736  1.0000
  N   N1        1.0  0.19905401929074176  0.012117204907546898  0.07138584986408598  1.0000
  N   N2        1.0  0.9878774155091894  0.8009512277044734  0.42861006142993563  1.0000
  N   N3        1.0  0.800946854702332  0.9878810695481377  0.9286131035413446  1.0000
  N   N4        1.0  0.012123448492331988  0.19904703677500635  0.5713907197886172  1.0000
  N   N5        1.0  0.12098465572244523  0.21722936524177078  0.036438608042843185  1.0000
  N   N6        1.0  0.7827697051931894  0.8790175682448053  0.46356239002634675  1.0000
  N   N7        1.0  0.8790172283377871  0.7827704503364501  0.9635610733117445  1.0000
  N   N8        1.0  0.2172316950557089  0.12098379974066381  0.5364390401067567  1.0000
  N   N9        1.0  0.18257155617359194  0.2502295609334837  0.9192043864354459  1.0000
  N   N10       1.0  0.7497694690248765  0.8174320545387842  0.5807952139422169  1.0000
  N   N11       1.0  0.8174313379538065  0.7497717957672735  0.08079602286830578  1.0000
  N   N12       1.0  0.25023389892230347  0.18256773977851987  0.41920527439614824  1.0000
  N   N13       1.0  0.3024136944531932  0.0667991905755585  0.8763044794764736  1.0000
  N   N14       1.0  0.9331928281973351  0.6975865968111208  0.6236997680958963  1.0000
  N   N15       1.0  0.6975891322508263  0.9331974952476614  0.123696273853902  1.0000
  N   N16       1.0  0.06681148738940124  0.302410072739292  0.37630087831168874  1.0000
  N   N17       1.0  0.48346220899949793  0.5165382608055893  0.7499993672187486  1.0000
  N   N18       1.0  0.5165392012409599  0.48346311715607726  0.25000023510122554  1.0000
  O   O1        1.0  0.32326425890568816  0.6767362985708089  0.7499997141286413  1.0000
  O   O2        1.0  0.6767336997495477  0.3232666743199317  0.25000002300230756  1.0000
  O   O3        1.0  0.5207875631790772  0.3939165622986776  0.6647617762451431  1.0000
  O   O4        1.0  0.6060828217768305  0.4792153754980149  0.835238331412377  1.0000
  O   O5        1.0  0.4792103904803895  0.6060864056039605  0.33523887479236686  1.0000
  O   O6        1.0  0.39391513687841256  0.5207875973927258  0.1647614057185649  1.0000
