data_image0
_chemical_formula_structural       Cu8H120C128N24O40
_chemical_formula_sum              "Cu8 H120 C128 N24 O40"
_cell_length_a       9.979850077454534
_cell_length_b       20.564545705019782
_cell_length_c       21.319793634310635
_cell_angle_alpha    86.5137736485087
_cell_angle_beta     76.46927571013423
_cell_angle_gamma    75.94817045016582

_space_group_name_H-M_alt    "P 1"
_space_group_IT_number       1

loop_
  _space_group_symop_operation_xyz
  'x, y, z'

loop_
  _atom_site_type_symbol
  _atom_site_label
  _atom_site_symmetry_multiplicity
  _atom_site_fract_x
  _atom_site_fract_y
  _atom_site_fract_z
  _atom_site_occupancy
  Cu  Cu1       1.0  0.566502259183558  0.2326875306559231  0.914896438139678  1.0000
  Cu  Cu2       1.0  0.5145329169725344  0.42177646684552167  0.7662516839331772  1.0000
  Cu  Cu3       1.0  0.7140139452395642  0.2673341510892228  0.5850802305082539  1.0000
  Cu  Cu4       1.0  0.7026070088624221  0.07826675486696641  0.7337390183379143  1.0000
  Cu  Cu5       1.0  0.4334951694209577  0.7673128720359513  0.08510289326193296  1.0000
  Cu  Cu6       1.0  0.4854551714179182  0.5782259395069997  0.2337508272054763  1.0000
  Cu  Cu7       1.0  0.28597552486685607  0.7326627416462373  0.4149216053173889  1.0000
  Cu  Cu8       1.0  0.29739310661012297  0.9217301393652164  0.2662593876184546  1.0000
  H   H1        1.0  0.16309609455488072  0.09648916766777657  0.027543707819241123  1.0000
  H   H2        1.0  0.877613567355624  0.14645667466147216  0.8890866444499325  1.0000
  H   H3        1.0  0.056098478647385326  0.08469740990064879  0.9490988655560814  1.0000
  H   H4        1.0  0.7225682869995751  0.11594482051940959  0.12267240072693408  1.0000
  H   H5        1.0  0.5569812132975613  0.17921899550479736  0.05414530508864608  1.0000
  H   H6        1.0  0.27095306284383003  0.692304501788115  0.03062401099910525  1.0000
  H   H7        1.0  0.3235564702390973  0.5893212822930423  0.9631941631561248  1.0000
  H   H8        1.0  0.5782527509147141  0.5313007804474807  0.917980284712293  1.0000
  H   H9        1.0  0.6991658820980219  0.680595401877312  0.012954241214330977  1.0000
  H   H10       1.0  0.8096025519591733  0.5323981594799534  0.9023600027931807  1.0000
  H   H11       1.0  0.23596421810722032  0.39197554883001823  0.8452588829834227  1.0000
  H   H12       1.0  0.00032872545882841925  0.4487317232609342  0.9117888460557851  1.0000
  H   H13       1.0  0.1454579509664526  0.6322107389495101  0.888702518600198  1.0000
  H   H14       1.0  0.3773705395687515  0.5665602922938006  0.8211550776888573  1.0000
  H   H15       1.0  0.1950860589565408  0.39259993247452485  0.6592153491284236  1.0000
  H   H16       1.0  0.18946490780686545  0.3254985524759774  0.7156591225442028  1.0000
  H   H17       1.0  0.1638986539825353  0.3168851740677566  0.6369130888320242  1.0000
  H   H18       1.0  0.3645221467847788  0.21148939678843703  0.6125687149045193  1.0000
  H   H19       1.0  0.3699056769200763  0.2166857601022301  0.6952088339381248  1.0000
  H   H20       1.0  0.5277277791049713  0.20880022052366337  0.6349177521198257  1.0000
  H   H21       1.0  0.5337666207937205  0.9766365298587089  0.19291667540477433  1.0000
  H   H22       1.0  0.5886552685263736  0.0374961230307278  0.08793473055593647  1.0000
  H   H23       1.0  0.3944655618160624  0.0799884539661733  0.028253084376324036  1.0000
  H   H24       1.0  0.11750189111548794  0.9949201157388429  0.18038276623504154  1.0000
  H   H25       1.0  0.9123956816887357  0.34433901959618396  0.8864987036788322  1.0000
  H   H26       1.0  0.017734334936257083  0.36723487188767484  0.8133506933087206  1.0000
  H   H27       1.0  0.9844770564768978  0.285465448138808  0.8226213162570347  1.0000
  H   H28       1.0  0.9098311668806145  0.30596656784604187  0.7179285014571023  1.0000
  H   H29       1.0  0.920014325547072  0.39169198642969155  0.7114789926086332  1.0000
  H   H30       1.0  0.7592093896927851  0.3687227976603324  0.7095883397055688  1.0000
  H   H31       1.0  0.28719807700647954  0.403510990055139  0.4724541214934916  1.0000
  H   H32       1.0  0.9134023901725711  0.3535258260075053  0.6108865578809742  1.0000
  H   H33       1.0  0.09003939066538193  0.4153003343097906  0.5508875748012869  1.0000
  H   H34       1.0  0.9613119751595673  0.38407035360921066  0.37730770643177197  1.0000
  H   H35       1.0  0.7904239277147127  0.320864589549103  0.44583398761395915  1.0000
  H   H36       1.0  0.9940234713915789  0.8076967132028015  0.46940454254573905  1.0000
  H   H37       1.0  0.8762286846100833  0.9106806435701384  0.5367910947001493  1.0000
  H   H38       1.0  0.027610158815910564  0.9687085202716333  0.5820224281847999  1.0000
  H   H39       1.0  0.39284207970003837  0.8193820430326751  0.48710099714256233  1.0000
  H   H40       1.0  0.2443643665980629  0.9676200241530211  0.5976612743691734  1.0000
  H   H41       1.0  0.4730556985181023  0.1080892026447344  0.6547587273109202  1.0000
  H   H42       1.0  0.36087091574445646  0.05132574521833531  0.5881362626808979  1.0000
  H   H43       1.0  0.6663617496916384  0.867852062037869  0.6113581196049298  1.0000
  H   H44       1.0  0.7650514423407345  0.9335065190260605  0.6788936006975563  1.0000
  H   H45       1.0  0.24698166324285606  0.10746633487251958  0.8407849058749761  1.0000
  H   H46       1.0  0.23062277560897101  0.17456557290783078  0.7843434312110135  1.0000
  H   H47       1.0  0.1177751447471066  0.1831798947446401  0.8630973607350613  1.0000
  H   H48       1.0  0.18861804842328644  0.2885529239416512  0.8874607688305435  1.0000
  H   H49       1.0  0.2817699492226779  0.28337222620065455  0.8048161203981581  1.0000
  H   H50       1.0  0.37148185969753894  0.29125452816646896  0.8650910667595327  1.0000
  H   H51       1.0  0.7033112730941014  0.5233186652968413  0.30711380304349234  1.0000
  H   H52       1.0  0.7140658547235218  0.46246337975785673  0.4120921375561935  1.0000
  H   H53       1.0  0.502683789034407  0.4199665140558648  0.4717364759136873  1.0000
  H   H54       1.0  0.2927950018538112  0.5050827553770458  0.3195967268449494  1.0000
  H   H55       1.0  0.14320469140250205  0.15566798852859878  0.6134512436154936  1.0000
  H   H56       1.0  0.19829275140451583  0.132767149705181  0.6866068030972273  1.0000
  H   H57       1.0  0.09250445616567046  0.21453519930786766  0.6773347778075306  1.0000
  H   H58       1.0  0.9337895514174407  0.19400434134202268  0.7820314475670713  1.0000
  H   H59       1.0  0.02330037386426645  0.1082803508493768  0.7884722257651191  1.0000
  H   H60       1.0  0.837630127808403  0.1312553441693396  0.7903616478983795  1.0000
  H   H61       1.0  0.8369061927306016  0.9035107338357167  0.9724551394872096  1.0000
  H   H62       1.0  0.1223873331819123  0.8535432266977945  0.11091255883479087  1.0000
  H   H63       1.0  0.9439026206879716  0.9153029923938049  0.05090091797513464  1.0000
  H   H64       1.0  0.27743348019883723  0.8840560829538119  0.8773274940400954  1.0000
  H   H65       1.0  0.44302080372050007  0.8207814066903014  0.9458545914749766  1.0000
  H   H66       1.0  0.7290453140174552  0.30769489800459127  0.9693759060387563  1.0000
  H   H67       1.0  0.6764448789159089  0.41067861872329536  0.036805622171677065  1.0000
  H   H68       1.0  0.4217483484206425  0.4686996218469729  0.08201949881892293  1.0000
  H   H69       1.0  0.3008342995546228  0.3194050005164968  0.9870454292844784  1.0000
  H   H70       1.0  0.19039832813059113  0.46760174129279625  0.09764025154530034  1.0000
  H   H71       1.0  0.7640357238520679  0.608024351455576  0.15474230937640965  1.0000
  H   H72       1.0  0.999670048998098  0.5512686784021454  0.08821223147506177  1.0000
  H   H73       1.0  0.8545406246926531  0.3677891617783757  0.1112979786841565  1.0000
  H   H74       1.0  0.6226294023905368  0.43343960799180076  0.17884611467097505  1.0000
  H   H75       1.0  0.8049148415809882  0.6073999688847421  0.3407838541562996  1.0000
  H   H76       1.0  0.8105373794786104  0.6745013490275155  0.2843397247622478  1.0000
  H   H77       1.0  0.8361010790526321  0.6831152286689883  0.3630859996237137  1.0000
  H   H78       1.0  0.6354780654419301  0.7885100028055517  0.38743142819814846  1.0000
  H   H79       1.0  0.6300945047325613  0.7833146422915788  0.3047908365606845  1.0000
  H   H80       1.0  0.47227151543901874  0.7911991791696806  0.36508227795043524  1.0000
  H   H81       1.0  0.4662335608589242  0.023363872535099996  0.8070829950940351  1.0000
  H   H82       1.0  0.4113484360811202  0.9625027758171569  0.9120642333760928  1.0000
  H   H83       1.0  0.6055379439936102  0.9200099439465317  0.9717452993092124  1.0000
  H   H84       1.0  0.8824997487547035  0.0050792851723997995  0.819614918781838  1.0000
  H   H85       1.0  0.08760544822067834  0.6556603798984426  0.11350155245623486  1.0000
  H   H86       1.0  0.9822644905424979  0.632764527562088  0.18664980577221987  1.0000
  H   H87       1.0  0.015524323252172562  0.7145334500776955  0.17737894167462545  1.0000
  H   H88       1.0  0.09016854570678845  0.6940338343041857  0.2820716380523862  1.0000
  H   H89       1.0  0.07998425011203385  0.6083079142982014  0.288521504675721  1.0000
  H   H90       1.0  0.24078943578597745  0.6312766017894303  0.2904121593753715  1.0000
  H   H91       1.0  0.7128011460679176  0.5964894112649971  0.527547538080434  1.0000
  H   H92       1.0  0.08659732241483196  0.6464745761427296  0.3891135816285143  1.0000
  H   H93       1.0  0.9099633247897995  0.5846995662642556  0.4491129056020002  1.0000
  H   H94       1.0  0.03868915474985338  0.6159290458854229  0.6226925497032952  1.0000
  H   H95       1.0  0.20957809942964903  0.679134809259658  0.5541674326072723  1.0000
  H   H96       1.0  0.005973906191101485  0.1923046917023896  0.5305953673057716  1.0000
  H   H97       1.0  0.12376959020754422  0.089320760649187  0.46320997923751867  1.0000
  H   H98       1.0  0.9723888245651293  0.0312913789402884  0.4179807532501486  1.0000
  H   H99       1.0  0.6071555373808267  0.180617856621538  0.512901489216901  1.0000
  H   H100      1.0  0.7556369416614004  0.03237987569028179  0.4023406130661373  1.0000
  H   H101      1.0  0.5269445137086065  0.8919101969492544  0.34524141579174744  1.0000
  H   H102      1.0  0.6391299949193722  0.9486731527546014  0.41186446426143425  1.0000
  H   H103      1.0  0.3336407465179576  0.1321473370144659  0.38864283160562263  1.0000
  H   H104      1.0  0.23495035543173512  0.06649338164733358  0.32110676667332433  1.0000
  H   H105      1.0  0.7530201345296207  0.8925335658008748  0.1592154614959115  1.0000
  H   H106      1.0  0.7693781044807932  0.8254343278649189  0.21565682312746773  1.0000
  H   H107      1.0  0.8822250674795953  0.8168195048493485  0.13690278236759937  1.0000
  H   H108      1.0  0.8113828521142422  0.7114469774176159  0.11253843445418009  1.0000
  H   H109      1.0  0.718230951314851  0.7166276751586197  0.19518308288657252  1.0000
  H   H110      1.0  0.6285192600855821  0.7087458747144951  0.13490766571793247  1.0000
  H   H111      1.0  0.29668801132360306  0.4766817377828401  0.6928847033691597  1.0000
  H   H112      1.0  0.28593249156369854  0.5375370228346695  0.587907306877817  1.0000
  H   H113      1.0  0.497314485783221  0.5800348901634536  0.5282645980239806  1.0000
  H   H114      1.0  0.7072022075051123  0.4949171457931313  0.6804030753639199  1.0000
  H   H115      1.0  0.8567952404304865  0.844332915143333  0.3865484250867299  1.0000
  H   H116      1.0  0.801707430248129  0.8672332526886277  0.3133928674015822  1.0000
  H   H117      1.0  0.9074954756673249  0.785465704364064  0.32266489089469286  1.0000
  H   H118      1.0  0.06620877442201595  0.805996060663986  0.21796904792068975  1.0000
  H   H119      1.0  0.9766984210404316  0.8917200514002132  0.21152780071197003  1.0000
  H   H120      1.0  0.16236893736370928  0.8687445573886448  0.20963732932153792  1.0000
  C   C1        1.0  0.43024624121969884  0.32727438041753487  0.5679838936249126  1.0000
  C   C2        1.0  0.38175039481729534  0.3086354620887519  0.6401156192157914  1.0000
  C   C3        1.0  0.4696167789822921  0.3348666695538967  0.6789606399517043  1.0000
  C   C4        1.0  0.8476315268318048  0.1389208747901165  0.9409866060322473  1.0000
  C   C5        1.0  0.9469790270025983  0.10430606854730232  0.974872403732171  1.0000
  C   C6        1.0  0.9023852092303957  0.0962045961275919  0.04147887531437541  1.0000
  C   C7        1.0  0.9971612569179625  0.0589386752598458  0.08360345504894447  1.0000
  C   C8        1.0  0.2407488241756539  0.0409012768245631  0.09985138289564331  1.0000
  C   C9        1.0  0.7596735442056615  0.12256444171315196  0.0709199609064798  1.0000
  C   C10       1.0  0.6686870952206334  0.15714892134327843  0.03330421982033027  1.0000
  C   C11       1.0  0.379226361798615  0.6651935573193981  0.010251927495367947  1.0000
  C   C12       1.0  0.4098574705220842  0.6080322879744101  0.9728873838112905  1.0000
  C   C13       1.0  0.5502817430212231  0.5755608326489677  0.9483779988075797  1.0000
  C   C14       1.0  0.6583887430006354  0.6013786365850465  0.9622168979539013  1.0000
  C   C15       1.0  0.6195654688732759  0.6588507233816684  0.0009999127692026984  1.0000
  C   C16       1.0  0.6941984358093334  0.3242858574043764  0.8318673692901444  1.0000
  C   C17       1.0  0.21139314809022383  0.44520565188502553  0.8559084407943588  1.0000
  C   C18       1.0  0.0798407469595117  0.4772667419114782  0.8929385705429598  1.0000
  C   C19       1.0  0.054371601878720796  0.5458024818649178  0.9046519671550187  1.0000
  C   C20       1.0  0.9180548090747609  0.5858856934858138  0.9443822363220706  1.0000
  C   C21       1.0  0.16274691726482607  0.5789250115153948  0.8794348633197729  1.0000
  C   C22       1.0  0.2901756595578601  0.5428970580757452  0.8423992211934035  1.0000
  C   C23       1.0  0.2231378158812945  0.3379411627896259  0.6645653825559847  1.0000
  C   C24       1.0  0.4134394072343781  0.23156320816708834  0.6457833917570641  1.0000
  C   C25       1.0  0.45360932051452363  0.9957855317947304  0.165220336004282  1.0000
  C   C26       1.0  0.48257263570695125  0.029648832442553886  0.10699740690579068  1.0000
  C   C27       1.0  0.3760458913109445  0.05250189007109191  0.07364251121263272  1.0000
  C   C28       1.0  0.21967753417289518  0.0054357773279676  0.15846014822737695  1.0000
  C   C29       1.0  0.7413246172398896  0.4393196563682692  0.8222986225167548  1.0000
  C   C30       1.0  0.8078363240635151  0.3641217559014578  0.8055672249102629  1.0000
  C   C31       1.0  0.938131215534696  0.3386203411778297  0.8339464160158203  1.0000
  C   C32       1.0  0.8514865640009572  0.35747503121597646  0.7314771211036162  1.0000
  C   C33       1.0  0.3257120220590506  0.1727404226025726  0.9319898365663734  1.0000
  C   C34       1.0  0.33061366224444527  0.19142315927855688  0.8598715727563331  1.0000
  C   C35       1.0  0.48352127589783567  0.16522056924134887  0.8209950654110757  1.0000
  C   C36       1.0  0.9278092416771248  0.36106374621977716  0.5589826039782438  1.0000
  C   C37       1.0  0.026325831125056716  0.3957036730221687  0.5250974857492139  1.0000
  C   C38       1.0  0.04023881867878734  0.4038022249024352  0.4584910025443065  1.0000
  C   C39       1.0  0.13985643034604311  0.4410434459133229  0.4163478104376282  1.0000
  C   C40       1.0  0.3815494189930888  0.4590855924720643  0.40012472035440544  1.0000
  C   C41       1.0  0.9533757207064896  0.3774370562021261  0.4290495225858849  1.0000
  C   C42       1.0  0.8592911718478999  0.3429004787756895  0.4666651127764256  1.0000
  C   C43       1.0  0.054834085031465814  0.8347893006324723  0.4897772058610955  1.0000
  C   C44       1.0  0.9909344445872461  0.891959186326055  0.5271287007238074  1.0000
  C   C45       1.0  0.07431555343108413  0.9244296651575823  0.5516576053772226  1.0000
  C   C46       1.0  0.22208119219997238  0.8986002491789408  0.5378477860601765  1.0000
  C   C47       1.0  0.27954324964311866  0.8411343283196543  0.4990578972138098  1.0000
  C   C48       1.0  0.850328014697858  0.1757704992376006  0.6681561982092392  1.0000
  C   C49       1.0  0.5124141532711515  0.0548630345186112  0.6440970727182247  1.0000
  C   C50       1.0  0.4500767664338667  0.022807119010060693  0.607006889637475  1.0000
  C   C51       1.0  0.5048711979452208  0.9542607946704178  0.5953413409855275  1.0000
  C   C52       1.0  0.44838409446940386  0.9141261651313642  0.5556674427814131  1.0000
  C   C53       1.0  0.6210919390169064  0.9211439148301751  0.620609525386435  1.0000
  C   C54       1.0  0.675423316227778  0.9571742212118438  0.6576491958655027  1.0000
  C   C55       1.0  0.22572188280807373  0.16212483753164258  0.8354333339277602  1.0000
  C   C56       1.0  0.2908112969263711  0.2684962153318011  0.8542380493962014  1.0000
  C   C57       1.0  0.6146192522094793  0.5041668086266425  0.33479282004255856  1.0000
  C   C58       1.0  0.6192037517161706  0.470324115340773  0.3930196176719108  1.0000
  C   C59       1.0  0.5022237709292128  0.4474458053408909  0.4263416380473758  1.0000
  C   C60       1.0  0.38357161899892117  0.49456737530577055  0.34152896894743634  1.0000
  C   C61       1.0  0.002979891970362124  0.0607046723327258  0.6775977462077379  1.0000
  C   C62       1.0  0.9775415801200108  0.13588704670056018  0.6943815279492684  1.0000
  C   C63       1.0  0.11066345672145411  0.16138693663611287  0.6660012722046105  1.0000
  C   C64       1.0  0.9405340242547382  0.14249892183652688  0.7684718304648755  1.0000
  C   C65       1.0  0.5697430760164153  0.672727526317054  0.43201557918146705  1.0000
  C   C66       1.0  0.6182440819412631  0.6913644399660085  0.35988279284211444  1.0000
  C   C67       1.0  0.5303734456150622  0.665134233108482  0.3210415205984419  1.0000
  C   C68       1.0  0.15236890464048267  0.8610790263255763  0.05901306626315526  1.0000
  C   C69       1.0  0.05302227113057982  0.895694834682338  0.025127960045530546  1.0000
  C   C70       1.0  0.09761705760732284  0.9037953047893835  0.9585210230458331  1.0000
  C   C71       1.0  0.002841897028403791  0.9410622283576016  0.9163960837398123  1.0000
  C   C72       1.0  0.7592546510599545  0.959098123887962  0.900146528186035  1.0000
  C   C73       1.0  0.24032680567074016  0.8774374644156707  0.9290798172349711  1.0000
  C   C74       1.0  0.3313148912233715  0.8428524836516472  0.9666952041394339  1.0000
  C   C75       1.0  0.6207733712365522  0.3348068454173543  0.989747160960363  1.0000
  C   C76       1.0  0.5901438786329151  0.39196761304192046  0.027112401516511463  1.0000
  C   C77       1.0  0.4497188872488918  0.42443956940191185  0.05162225373430833  1.0000
  C   C78       1.0  0.34161210651506474  0.3986222669875302  0.03778288378072154  1.0000
  C   C79       1.0  0.3804349625990185  0.3411491777340173  0.9989997595261999  1.0000
  C   C80       1.0  0.3058003590953646  0.6757145448452135  0.1681326571869449  1.0000
  C   C81       1.0  0.788609098299723  0.5547942484454325  0.14409250861960748  1.0000
  C   C82       1.0  0.9201584965626565  0.5227336599951754  0.10706203797720809  1.0000
  C   C83       1.0  0.9456274122715628  0.4541984219063693  0.09534758851480529  1.0000
  C   C84       1.0  0.0819446741407574  0.41411521052906153  0.05561685033707423  1.0000
  C   C85       1.0  0.8372530451422265  0.42107488935671716  0.12056527798630884  1.0000
  C   C86       1.0  0.7098254193297254  0.4571033436321981  0.15760161339156312  1.0000
  C   C87       1.0  0.7768609994711682  0.6620592400464743  0.3354335928673465  1.0000
  C   C88       1.0  0.5865594386921414  0.7684361918691919  0.35421605627011854  1.0000
  C   C89       1.0  0.5463920490882469  0.0042143698081176005  0.8347783982697694  1.0000
  C   C90       1.0  0.5174301512178308  0.9703500665046928  0.8930014439938391  1.0000
  C   C91       1.0  0.6239587514270253  0.947497009263955  0.9263555146980453  1.0000
  C   C92       1.0  0.7803254924452427  0.9945636237274941  0.8415371808112229  1.0000
  C   C93       1.0  0.2586753451671696  0.5606802445038425  0.17770151878932697  1.0000
  C   C94       1.0  0.19216297048048153  0.6358776437918862  0.19443280515999822  1.0000
  C   C95       1.0  0.06186807900929396  0.6613790585155214  0.16605361405444094  1.0000
  C   C96       1.0  0.1485136176516873  0.6425253711778325  0.2685225493952005  1.0000
  C   C97       1.0  0.6742893576700127  0.827258475613931  0.06801042136527981  1.0000
  C   C98       1.0  0.6693872382930908  0.8085767420807171  0.14012763052839022  1.0000
  C   C99       1.0  0.5164835860857195  0.834778831615395  0.1790024896923371  1.0000
  C   C100      1.0  0.0721941110670557  0.6389376583328569  0.44101751505700554  1.0000
  C   C101      1.0  0.9736766345104825  0.6042967288299935  0.47490299285748705  1.0000
  C   C102      1.0  0.9597620409632057  0.5961976752838111  0.5415103028479323  1.0000
  C   C103      1.0  0.8601447301374349  0.5589549507814836  0.5836529183012971  1.0000
  C   C104      1.0  0.6184484888029542  0.5409138070770537  0.5998756656941284  1.0000
  C   C105      1.0  0.04662629631157253  0.6225633459929724  0.5709503739777304  1.0000
  C   C106      1.0  0.14071223191811552  0.657099923563628  0.5333344278089172  1.0000
  C   C107      1.0  0.9451672641235404  0.16521060038385826  0.5102225794667065  1.0000
  C   C108      1.0  0.009067592878586935  0.10804121645556111  0.47287014478605743  1.0000
  C   C109      1.0  0.9256820636497807  0.0755702344966309  0.44834488098224073  1.0000
  C   C110      1.0  0.7779169449679627  0.1013986485055511  0.4621536528387083  1.0000
  C   C111      1.0  0.720454938546638  0.15886356715152058  0.5009429632351684  1.0000
  C   C112      1.0  0.14967639847304767  0.8242268946028944  0.3318448732200637  1.0000
  C   C113      1.0  0.4875883633862087  0.9451363651202414  0.3559028274385697  1.0000
  C   C114      1.0  0.5499238944103124  0.9771922802409919  0.39299383550827127  1.0000
  C   C115      1.0  0.4951273673924134  0.0457381020846199  0.40466173101019365  1.0000
  C   C116      1.0  0.5516151490527647  0.0858742367752896  0.44433316573875464  1.0000
  C   C117      1.0  0.3789105266186253  0.07885648702198719  0.3793909532202663  1.0000
  C   C118      1.0  0.3245796490470596  0.04282517808407249  0.34235128633437034  1.0000
  C   C119      1.0  0.7742787984838703  0.8378745623059273  0.16456634016422822  1.0000
  C   C120      1.0  0.7091891345459232  0.7315036857838847  0.14576162289919392  1.0000
  C   C121      1.0  0.3853821173932915  0.4958330929762055  0.6652059142314927  1.0000
  C   C122      1.0  0.3807943447514006  0.5296767885298763  0.6069798249655136  1.0000
  C   C123      1.0  0.4977733874078822  0.5525550980426032  0.5736587426113999  1.0000
  C   C124      1.0  0.6164267578623638  0.5054320244869288  0.6584709480904253  1.0000
  C   C125      1.0  0.9970240624567805  0.9392937252370362  0.3224012195208844  1.0000
  C   C126      1.0  0.022460967111420913  0.8641113501384651  0.3056188448113773  1.0000
  C   C127      1.0  0.8893362558659486  0.838613465514122  0.33399886730487804  1.0000
  C   C128      1.0  0.05946593815232183  0.8575009790355845  0.23152831084120612  1.0000
  N   N1        1.0  0.13388548359595379  0.066154338375469  0.06663431858586932  1.0000
  N   N2        1.0  0.3249015622961906  0.9835426089134884  0.18950334342672912  1.0000
  N   N3        1.0  0.7117579436970304  0.16545553045016698  0.9692845657453687  1.0000
  N   N4        1.0  0.4829229079378408  0.6892932256967369  0.024028779396388752  1.0000
  N   N5        1.0  0.7988570709170376  0.5693174166230577  0.9355546338634185  1.0000
  N   N6        1.0  0.31430520958422636  0.47704971770985344  0.830595614318753  1.0000
  N   N7        1.0  0.26676202139043437  0.43384778520682926  0.4333496912370479  1.0000
  N   N8        1.0  0.4979562562181029  0.516434955975896  0.3104965674348748  1.0000
  N   N9        1.0  0.8466873629838076  0.3345717354944354  0.5306843897301478  1.0000
  N   N10       1.0  0.19640401320545922  0.8106874736831672  0.47600735549839623  1.0000
  N   N11       1.0  0.30378785713511997  0.9306692500848753  0.5645064156644325  1.0000
  N   N12       1.0  0.6218647591627117  0.023024113921678697  0.6694333318739468  1.0000
  N   N13       1.0  0.8661168036895293  0.9338455631280242  0.9333645287205813  1.0000
  N   N14       1.0  0.6751003273936432  0.0164562907196242  0.8104943433867363  1.0000
  N   N15       1.0  0.28824315563831954  0.8345448718442938  0.030715217785847036  1.0000
  N   N16       1.0  0.5170766058517414  0.31070667551831116  0.9759707798666144  1.0000
  N   N17       1.0  0.20114380917272717  0.4306824841496989  0.06444562047506255  1.0000
  N   N18       1.0  0.6856958693033661  0.5229506839980899  0.16940522026622068  1.0000
  N   N19       1.0  0.7332374719513838  0.5661521154217012  0.5666509190797059  1.0000
  N   N20       1.0  0.5020406828733996  0.4835654458858869  0.6895042840311661  1.0000
  N   N21       1.0  0.1533136547556566  0.665430671813155  0.4693154996471166  1.0000
  N   N22       1.0  0.8035965304367918  0.18930941961956899  0.5239926835548021  1.0000
  N   N23       1.0  0.6962121153982324  0.0693296474008989  0.4354952492992511  1.0000
  N   N24       1.0  0.37813658999228766  0.9769757870946522  0.33056645345385505  1.0000
  O   O1        1.0  0.5602621080696932  0.3036393618016291  0.5386526116367493  1.0000
  O   O2        1.0  0.6040512450261414  0.32381105788851267  0.6598943495354421  1.0000
  O   O3        1.0  0.949189682830223  0.02567348690394769  0.13020930999215358  1.0000
  O   O4        1.0  0.7285131095882202  0.2716085123424463  0.8647359234628457  1.0000
  O   O5        1.0  0.5698201457676504  0.3444052805240715  0.8217028660249  1.0000
  O   O6        1.0  0.40318179155204353  0.3686845580470148  0.7295920923368726  1.0000
  O   O7        1.0  0.7981732771041548  0.4679372657591331  0.8554948609227184  1.0000
  O   O8        1.0  0.3399217245303772  0.3633238187224919  0.5406284435303094  1.0000
  O   O9        1.0  0.919177807546525  0.6305222563327534  0.9806944283828474  1.0000
  O   O10       1.0  0.6327146210725941  0.46979328770327533  0.8001999618999992  1.0000
  O   O11       1.0  0.4027785868847362  0.19635073395078706  0.9613172063665232  1.0000
  O   O12       1.0  0.587843548892039  0.17627629412643128  0.840050516894273  1.0000
  O   O13       1.0  0.10521841370378847  0.47425977845074374  0.36971021921425523  1.0000
  O   O14       1.0  0.8648175766127012  0.22843139657244643  0.6352627080311138  1.0000
  O   O15       1.0  0.735883209108472  0.15568452564560428  0.6783758798991217  1.0000
  O   O16       1.0  0.5014985272113252  0.13139706505499055  0.770377801230957  1.0000
  O   O17       1.0  0.12162577336205509  0.032102716434835095  0.6443688884126645  1.0000
  O   O18       1.0  0.24416251112011608  0.13666268424141492  0.9593279469761314  1.0000
  O   O19       1.0  0.5304501374899784  0.86947027555658  0.5193643379390522  1.0000
  O   O20       1.0  0.9027832324872659  0.030226891123888298  0.6997187465059654  1.0000
  O   O21       1.0  0.43972613358141627  0.6963620452701491  0.46134406578322285  1.0000
  O   O22       1.0  0.3959375213536661  0.676190846256432  0.34010979649664114  1.0000
  O   O23       1.0  0.050812604455259834  0.9743264145995453  0.8697895373142971  1.0000
  O   O24       1.0  0.2714871026384886  0.7283908872515424  0.13526421963981516  1.0000
  O   O25       1.0  0.4301783788696272  0.655595622417131  0.17829820970936086  1.0000
  O   O26       1.0  0.5968097993454934  0.6313163441730651  0.2704107632887586  1.0000
  O   O27       1.0  0.20182596641801345  0.5320631361475209  0.14450574759744234  1.0000
  O   O28       1.0  0.6600698870101024  0.6366790914432982  0.45936926267258843  1.0000
  O   O29       1.0  0.08082167566899304  0.3694786476821151  0.019304658276297525  1.0000
  O   O30       1.0  0.3672830369037995  0.5302066131239725  0.19980042235194875  1.0000
  O   O31       1.0  0.5972248984771724  0.8036476633754006  0.038682228372771084  1.0000
  O   O32       1.0  0.412158238754138  0.8237246099333079  0.15994832681900564  1.0000
  O   O33       1.0  0.8947815792773282  0.525739119621548  0.6302903946956777  1.0000
  O   O34       1.0  0.13519437681770796  0.7715664974083865  0.3647398479038985  1.0000
  O   O35       1.0  0.26412093379502016  0.8443133688864957  0.3216262407873459  1.0000
  O   O36       1.0  0.4985044994068136  0.8686023360004707  0.22961952780764264  1.0000
  O   O37       1.0  0.8783774826279681  0.9678961827559859  0.3556294934762861  1.0000
  O   O38       1.0  0.7558390674067751  0.8633367149102825  0.040672891202014276  1.0000
  O   O39       1.0  0.46955002371490195  0.1305301262507186  0.4806363836135149  1.0000
  O   O40       1.0  0.09721771907209135  0.9697720080220689  0.30027987832885833  1.0000
