data_image0
_chemical_formula_structural       Ba2Co2H26C16N2O20
_chemical_formula_sum              "Ba2 Co2 H26 C16 N2 O20"
_cell_length_a       9.515660196557942
_cell_length_b       9.656889975621652
_cell_length_c       9.723836653325447
_cell_angle_alpha    64.67861235953832
_cell_angle_beta     61.102266739644065
_cell_angle_gamma    65.15965435429025

_space_group_name_H-M_alt    "P 1"
_space_group_IT_number       1

loop_
  _space_group_symop_operation_xyz
  'x, y, z'

loop_
  _atom_site_type_symbol
  _atom_site_label
  _atom_site_symmetry_multiplicity
  _atom_site_fract_x
  _atom_site_fract_y
  _atom_site_fract_z
  _atom_site_occupancy
  Ba  Ba1       1.0  0.7481508394601661  0.656401407458354  0.506919791561614  1.0000
  Ba  Ba2       1.0  0.2518478524329453  0.3435976714645435  0.49308078688465407  1.0000
  Co  Co1       1.0  0.6918313494132774  0.41099035473399687  0.2248743417444387  1.0000
  Co  Co2       1.0  0.3081669928261234  0.5890099190519893  0.7751248706954351  1.0000
  H   H1        1.0  0.10489300456568881  0.3084495199987032  0.9737215756914632  1.0000
  H   H2        1.0  0.8951077550956156  0.6915507513876449  0.026279570573813034  1.0000
  H   H3        1.0  0.09670440318971167  0.12633382750831862  0.9813258502469534  1.0000
  H   H4        1.0  0.9032975412605494  0.8736664609613883  0.01867266714624097  1.0000
  H   H5        1.0  0.8273182922749456  0.059413966434490796  0.18096902400725398  1.0000
  H   H6        1.0  0.17268159124198215  0.9405851243479972  0.8190299529340164  1.0000
  H   H7        1.0  0.9550729003495064  0.9588365850709623  0.29933275397286235  1.0000
  H   H8        1.0  0.0449290441007619  0.041163703398744596  0.700665763420339  1.0000
  H   H9        1.0  0.025289823803220195  0.10164681209813861  0.3815480141014404  1.0000
  H   H10       1.0  0.9747079987803676  0.8983510809971306  0.6184514223879056  1.0000
  H   H11       1.0  0.143356198014942  0.21834592248131907  0.20071764747655854  1.0000
  H   H12       1.0  0.8566421510593116  0.7816543460808986  0.7992825923303992  1.0000
  H   H13       1.0  0.7923149247396565  0.20768115654672673  0.7708466308747217  1.0000
  H   H14       1.0  0.20768428680926831  0.7923203030668802  0.2291537235220814  1.0000
  H   H15       1.0  0.7319198597794951  0.1345585543675156  0.673440553413236  1.0000
  H   H16       1.0  0.2680793517694299  0.8654429052460914  0.326559800983567  1.0000
  H   H17       1.0  0.6770752927796977  0.0588456006057996  0.8895301162857406  1.0000
  H   H18       1.0  0.32292546004675404  0.9411546760043096  0.11047000261245896  1.0000
  H   H19       1.0  0.6475280432354892  0.5747730595868817  0.8921384207325429  1.0000
  H   H20       1.0  0.35247390121477923  0.4252272288828252  0.10786009666065141  1.0000
  H   H21       1.0  0.5771153964465867  0.758232417358002  0.8657936274869014  1.0000
  H   H22       1.0  0.4228856923638631  0.24176667483655487  0.13420580268353172  1.0000
  H   H23       1.0  0.6229884386404977  0.8602319882307016  0.18972481906291674  1.0000
  H   H24       1.0  0.37701077974327996  0.13976946615913732  0.8102765627009699  1.0000
  H   H25       1.0  0.5286526996800304  0.9590575846120544  0.3190016686654214  1.0000
  H   H26       1.0  0.47134377213269824  0.0409450513692136  0.6809994953679136  1.0000
  C   C1        1.0  0.019140888060363192  0.23748114734480907  0.015589267591266784  1.0000
  C   C2        1.0  0.9808598510963834  0.7625191397128362  0.9844087965727721  1.0000
  C   C3        1.0  0.9034013474504689  0.3321982725381644  0.9203566292851019  1.0000
  C   C4        1.0  0.09660059699979942  0.6678020159315423  0.07964188810809955  1.0000
  C   C5        1.0  0.8622979245642952  0.0703369526219717  0.26784242358237975  1.0000
  C   C6        1.0  0.13770195895263262  0.9296621381605165  0.7321565533588905  1.0000
  C   C7        1.0  0.7020940858564088  0.0880827446318833  0.41739174441370597  1.0000
  C   C8        1.0  0.29790699611918814  0.9119163527864343  0.5826066583896433  1.0000
  C   C9        1.0  0.014768620536521768  0.211912295084872  0.2814787595365614  1.0000
  C   C10       1.0  0.9852297285377319  0.7880879734773458  0.7185214802703965  1.0000
  C   C11       1.0  0.9303311234590198  0.35135833967632374  0.35446280342809866  1.0000
  C   C12       1.0  0.06966790441809675  0.6486395548310071  0.6455370862904032  1.0000
  C   C13       1.0  0.6943460069456576  0.1652758394045577  0.785255518157015  1.0000
  C   C14       1.0  0.3056535474221248  0.8347244305697289  0.2147451748790985  1.0000
  C   C15       1.0  0.5328954059468174  0.2947604594002727  0.8051429723406969  1.0000
  C   C16       1.0  0.4671050108956293  0.7052410016253958  0.19485783528526915  1.0000
  N   N1        1.0  0.9269494937857913  0.21024094061164791  0.1928251527210774  1.0000
  N   N2        1.0  0.07305004691228578  0.7897593398101679  0.8071734855808823  1.0000
  O   O1        1.0  0.8081797779830849  0.46112612818121324  0.31596165304475926  1.0000
  O   O2        1.0  0.19182166048107524  0.5388717691502478  0.6840391431320609  1.0000
  O   O3        1.0  0.9523920382315793  0.33035623435818445  0.7763449865172873  1.0000
  O   O4        1.0  0.047610761858500356  0.6696452503866795  0.22365261809868284  1.0000
  O   O5        1.0  0.6075601802984494  0.23045477034061426  0.41511876293453276  1.0000
  O   O6        1.0  0.39243969638363313  0.7695443256656346  0.5848791866396608  1.0000
  O   O7        1.0  0.666584565987108  0.9664871303139793  0.5320755397510195  1.0000
  O   O8        1.0  0.33341498838067457  0.033513139660300305  0.4679251532851009  1.0000
  O   O9        1.0  0.9836202403259477  0.35562545003171664  0.44776896063043375  1.0000
  O   O10       1.0  0.016381204973065194  0.6443724420759763  0.552232862913456  1.0000
  O   O11       1.0  0.7588681959703863  0.41557803881019584  0.995699665386297  1.0000
  O   O12       1.0  0.24113340566102442  0.5844234392988311  0.004298513367594164  1.0000
  O   O13       1.0  0.5400652109693239  0.4392903005609626  0.7221867849668083  1.0000
  O   O14       1.0  0.4599295495637746  0.5607099428700053  0.27781620462099  1.0000
  O   O15       1.0  0.3953635311949667  0.26060812580827536  0.8994002005694451  1.0000
  O   O16       1.0  0.6046352017072677  0.7393909217720207  0.1006065420792836  1.0000
  O   O17       1.0  0.597803911930086  0.6752230945587171  0.8215288939732657  1.0000
  O   O18       1.0  0.40219803252018244  0.32477719391098964  0.17846962341992878  1.0000
  O   O19       1.0  0.6413211905238329  0.907440158979469  0.25017835007106004  1.0000
  O   O20       1.0  0.358676992568526  0.0925648695521062  0.7498209884078191  1.0000
