data_image0
_chemical_formula_structural       Tb4H32C28S4O34
_chemical_formula_sum              "Tb4 H32 C28 S4 O34"
_cell_length_a       12.183751806234056
_cell_length_b       12.183699283100136
_cell_length_c       12.183686560637707
_cell_angle_alpha    97.50763587809578
_cell_angle_beta     115.7643394065148
_cell_angle_gamma    115.76448123951812

_space_group_name_H-M_alt    "P 1"
_space_group_IT_number       1

loop_
  _space_group_symop_operation_xyz
  'x, y, z'

loop_
  _atom_site_type_symbol
  _atom_site_label
  _atom_site_symmetry_multiplicity
  _atom_site_fract_x
  _atom_site_fract_y
  _atom_site_fract_z
  _atom_site_occupancy
  Tb  Tb1       1.0  0.8753546552875665  0.45122125005586616  0.26841669374253035  1.0000
  Tb  Tb2       1.0  0.18280798624219605  0.7315865662647097  0.6069372509119972  1.0000
  Tb  Tb3       1.0  0.12464558707195302  0.3930615635502619  0.5758683677024338  1.0000
  Tb  Tb4       1.0  0.8171944425021425  0.4241342621156007  0.5487830252580892  1.0000
  H   H1        1.0  0.18469439107011723  0.5592352623924697  0.42205973500335864  1.0000
  H   H2        1.0  0.13717687504219375  0.577944739166071  0.7626358673547529  1.0000
  H   H3        1.0  0.8153068397697042  0.23737010262522754  0.3745392347609383  1.0000
  H   H4        1.0  0.862834532812656  0.6254665504398388  0.44077477897025846  1.0000
  H   H5        1.0  0.01600302392117228  0.5603155754609404  0.11776591988513742  1.0000
  H   H6        1.0  0.4425501270004661  0.8822310976905855  0.8982451827057931  1.0000
  H   H7        1.0  0.9839827390372735  0.10175671861070137  0.5443055988867656  1.0000
  H   H8        1.0  0.557452860295925  0.4556913172852575  0.4396896541660738  1.0000
  H   H9        1.0  0.027134387273420737  0.4377256430459936  0.12107411894343305  1.0000
  H   H10       1.0  0.3166503171262179  0.8789232057872595  0.9060655511703645  1.0000
  H   H11       1.0  0.9728576843148102  0.09393444612444994  0.4105875100981819  1.0000
  H   H12       1.0  0.6833490823437888  0.5894141097167067  0.5622774081513671  1.0000
  H   H13       1.0  0.6531064096447424  0.31944595718330493  0.9814701242024171  1.0000
  H   H14       1.0  0.3379722451460482  0.018531640434154867  0.6716324496023346  1.0000
  H   H15       1.0  0.34690513619332125  0.3283786206309999  0.6663579286619381  1.0000
  H   H16       1.0  0.6620197705049055  0.33365431530083367  0.6805522857317712  1.0000
  H   H17       1.0  0.7398564245136189  0.4574043577216429  0.9855004211374238  1.0000
  H   H18       1.0  0.47189575854637417  0.01450048848377608  0.7543633002755713  1.0000
  H   H19       1.0  0.26013420475561594  0.24564217770892327  0.7175419128396499  1.0000
  H   H20       1.0  0.528097494370414  0.2824535900312313  0.542594021534768  1.0000
  H   H21       1.0  0.1789916172019162  0.2758851833007867  0.9198935715723167  1.0000
  H   H22       1.0  0.35600514563431324  0.08010839581968547  0.2591043177205705  1.0000
  H   H23       1.0  0.8210038194637762  0.7408894705343768  0.09688762839760319  1.0000
  H   H24       1.0  0.6439987952442864  0.9031059144099557  0.7240887444124342  1.0000
  H   H25       1.0  0.19457537285463647  0.2234853364362976  0.11769187822483934  1.0000
  H   H26       1.0  0.10580281125926679  0.88231171020427  0.07689142634401967  1.0000
  H   H27       1.0  0.8054289375905486  0.9231061677786768  0.028905909780320562  1.0000
  H   H28       1.0  0.8942049608381881  0.9710959726350835  0.7765151487579233  1.0000
  H   H29       1.0  0.761022113066325  0.2166643501343373  0.7929219393837601  1.0000
  H   H30       1.0  0.4237437035387118  0.2070802318253583  0.968097164320028  1.0000
  H   H31       1.0  0.238973010076414  0.03188594837638444  0.45564440736270473  1.0000
  H   H32       1.0  0.5762405469153932  0.544356372829341  0.783318599818969  1.0000
  C   C1        1.0  0.9703136267671228  0.29231638894841433  0.7365337742888514  1.0000
  C   C2        1.0  0.5557896537871799  0.26347430246767084  0.23378315306560893  1.0000
  C   C3        1.0  0.029687281377036457  0.7662128984299555  0.32200365884330034  1.0000
  C   C4        1.0  0.4442100045800716  0.6779938165271062  0.707674065240255  1.0000
  C   C5        1.0  0.9705103890805875  0.25031574178212423  0.8464921949922299  1.0000
  C   C6        1.0  0.4038302463211921  0.15351083905964913  0.1240191322186277  1.0000
  C   C7        1.0  0.029488659384910403  0.8759683564555304  0.27979959611863614  1.0000
  C   C8        1.0  0.5961691497222575  0.7202021822528193  0.7496729071711172  1.0000
  C   C9        1.0  0.09106999086489517  0.249542899014557  0.9357023208035642  1.0000
  C   C10       1.0  0.31385078137898864  0.06430120789288198  0.1553720183629537  1.0000
  C   C11       1.0  0.9089291765614579  0.8446177123138555  0.1584646115617618  1.0000
  C   C12       1.0  0.6861545709579461  0.8415314488675634  0.7504462931120771  1.0000
  C   C13       1.0  0.09958244323622988  0.21939804159566728  0.04386606329441635  1.0000
  C   C14       1.0  0.17554268161876535  0.956137654192041  0.05572257779254414  1.0000
  C   C15       1.0  0.9004211387330943  0.9442761926246988  0.11981422710245959  1.0000
  C   C16       1.0  0.8244646126014602  0.880185027750926  0.7805965929819864  1.0000
  C   C17       1.0  0.9865313446050482  0.19083025254070654  0.06250810324400669  1.0000
  C   C18       1.0  0.1283279567378277  0.9374958973900506  0.924025276426086  1.0000
  C   C19       1.0  0.013478003002553906  0.07596987332678398  0.20429937474878557  1.0000
  C   C20       1.0  0.8716714594227714  0.7956978184773789  0.8091741312963098  1.0000
  C   C21       1.0  0.8627062087539487  0.1868947134096714  0.9723856988157779  1.0000
  C   C22       1.0  0.2145121034389348  0.02761497688202041  0.8903183968143152  1.0000
  C   C23       1.0  0.13730332852619404  0.1096693794131767  0.32419185892494795  1.0000
  C   C24       1.0  0.7854804585192598  0.6758129115245808  0.8131041738862095  1.0000
  C   C25       1.0  0.8549890458106618  0.2172778655549975  0.8635467403778065  1.0000
  C   C26       1.0  0.3537362388408596  0.13645537064112992  0.9914444036086819  1.0000
  C   C27       1.0  0.1450124653429157  0.00854457469600328  0.36228471201388146  1.0000
  C   C28       1.0  0.6462601052604954  0.6377137958839113  0.782716608287963  1.0000
  S   S1        1.0  0.719751590426846  0.1428065517810567  0.0013673591086772305  1.0000
  S   S2        1.0  0.14143837326732722  0.9986378825601179  0.7183826012261606  1.0000
  S   S3        1.0  0.2802509652211854  0.2816067274606766  0.42305584355158027  1.0000
  S   S4        1.0  0.8585560011609703  0.5769456970533609  0.8571962068954093  1.0000
  O   O1        1.0  0.8612337697967262  0.2938942758671955  0.6574478819789177  1.0000
  O   O2        1.0  0.6364497421706121  0.34255927466028874  0.20378703511354967  1.0000
  O   O3        1.0  0.13876770459234672  0.7962051792098775  0.43265849109990034  1.0000
  O   O4        1.0  0.3635547654517383  0.5673530672369225  0.7061028509673195  1.0000
  O   O5        1.0  0.08127125276113394  0.3262139716105992  0.7301723206048365  1.0000
  O   O6        1.0  0.5960438903456764  0.269843277168711  0.3511035047836445  1.0000
  O   O7        1.0  0.9187275642935264  0.6488907629438996  0.2449411333423655  1.0000
  O   O8        1.0  0.40395204845996363  0.7550665590035236  0.673784515678591  1.0000
  O   O9        1.0  0.9999984443652536  0.17707115775957027  0.17708472074666307  1.0000
  O   O10       1.0  0.9999987533047378  0.8229203889367867  0.8229216139900118  1.0000
  O   O11       1.0  0.6539114485565136  0.00434897911812734  0.986185585316832  1.0000
  O   O12       1.0  0.0181683789607163  0.013822091437369  0.6677317626072395  1.0000
  O   O13       1.0  0.34609390394443557  0.33227067308176567  0.3504419843835294  1.0000
  O   O14       1.0  0.9818277254513463  0.6495627066225395  0.9956534585599995  1.0000
  O   O15       1.0  0.6166196586649022  0.16441008219660347  0.901660914492048  1.0000
  O   O16       1.0  0.2627474591011065  0.09833917647427627  0.7149550213386818  1.0000
  O   O17       1.0  0.38337942723780577  0.28504087638914644  0.5477956635562293  1.0000
  O   O18       1.0  0.7372494789751304  0.452205650761826  0.8355838268388  1.0000
  O   O19       1.0  0.7922824764951033  0.2353089590586421  0.1381914237793326  1.0000
  O   O20       1.0  0.09710627307182332  0.8618096666549703  0.6540837579361282  1.0000
  O   O21       1.0  0.20771565365480887  0.34589640450285936  0.4430214121129694  1.0000
  O   O22       1.0  0.9028870591169493  0.5569852141050972  0.7646984716369687  1.0000
  O   O23       1.0  0.11662185093363346  0.5378224230663237  0.449778944337247  1.0000
  O   O24       1.0  0.08804629440794548  0.5502244305237552  0.666843336925737  1.0000
  O   O25       1.0  0.8833829887772495  0.33316087226632607  0.4212060020724167  1.0000
  O   O26       1.0  0.9119563797833053  0.5787988282766888  0.46218117462302644  1.0000
  O   O27       1.0  0.029911470547865953  0.5083993706516452  0.17240407308774053  1.0000
  O   O28       1.0  0.3359970659657422  0.8275988954717659  0.8575081535872827  1.0000
  O   O29       1.0  0.9700971058702379  0.14249743807630444  0.4784902972517243  1.0000
  O   O30       1.0  0.664006414904691  0.5215124522231633  0.49160994851354217  1.0000
  O   O31       1.0  0.7110203257026058  0.4141025195349924  0.03955521285882215  1.0000
  O   O32       1.0  0.37454682576734644  0.9604459751353999  0.6714693215990267  1.0000
  O   O33       1.0  0.28898272357351834  0.3285420235370111  0.7030910464080335  1.0000
  O   O34       1.0  0.6254512729044212  0.2969156675796256  0.5858959474756206  1.0000
