data_image0
_chemical_formula_structural       Cd4H26C42N2O20
_chemical_formula_sum              "Cd4 H26 C42 N2 O20"
_cell_length_a       8.984179897684946
_cell_length_b       9.7218912392595
_cell_length_c       15.074059384687349
_cell_angle_alpha    83.85279795683685
_cell_angle_beta     88.67332462873121
_cell_angle_gamma    75.16691066597762

_space_group_name_H-M_alt    "P 1"
_space_group_IT_number       1

loop_
  _space_group_symop_operation_xyz
  'x, y, z'

loop_
  _atom_site_type_symbol
  _atom_site_label
  _atom_site_symmetry_multiplicity
  _atom_site_fract_x
  _atom_site_fract_y
  _atom_site_fract_z
  _atom_site_occupancy
  Cd  Cd1       1.0  0.6990658381580914  0.9253595942636609  0.9532671096287544  1.0000
  Cd  Cd2       1.0  0.3009345197031904  0.07463885731883121  0.0467336887502583  1.0000
  Cd  Cd3       1.0  0.7421034806668343  0.1605080956131602  0.7321212547974696  1.0000
  Cd  Cd4       1.0  0.2579001794657642  0.8394904580522609  0.2678781569580977  1.0000
  H   H1        1.0  0.6164523551384989  0.4550778797192694  0.6744647602898508  1.0000
  H   H2        1.0  0.3835484192722944  0.5449078084999852  0.32553083330647326  1.0000
  H   H3        1.0  0.6379981926181131  0.41755189337698095  0.7773622749612485  1.0000
  H   H4        1.0  0.3620033540075909  0.5824499401414159  0.2226329915347236  1.0000
  H   H5        1.0  0.6803543812555403  0.08741673045544472  0.0981565754292575  1.0000
  H   H6        1.0  0.3196437456952167  0.9125817056595695  0.9018429330931853  1.0000
  H   H7        1.0  0.8547084591647405  0.08608887817959504  0.06244909529009848  1.0000
  H   H8        1.0  0.14529064819986096  0.913906301901385  0.937552585000347  1.0000
  H   H9        1.0  0.0590280342628516  0.9655078776800967  0.69135320848509  1.0000
  H   H10       1.0  0.9409774947000856  0.034491839902841506  0.3086441120777507  1.0000
  H   H11       1.0  0.9383141671306562  0.287612686932313  0.8579217641230557  1.0000
  H   H12       1.0  0.061685149634932636  0.7123781124835276  0.14208349549308957  1.0000
  H   H13       1.0  0.49962851717467766  0.4954443104217889  0.9299261879526952  1.0000
  H   H14       1.0  0.500364538440266  0.5045561865659138  0.07007261441956558  1.0000
  H   H15       1.0  0.28257374925176026  0.7041389389321682  0.9529627063986723  1.0000
  H   H16       1.0  0.7174188709738375  0.29585933230341516  0.04703889173561749  1.0000
  H   H17       1.0  0.9704741585987049  0.4949067255116546  0.8474505928328213  1.0000
  H   H18       1.0  0.02952249186699871  0.5050818326845815  0.152556172688783  1.0000
  H   H19       1.0  0.39755318089386543  0.1855446955540927  0.7485332979883594  1.0000
  H   H20       1.0  0.6024465586337584  0.8144558636124019  0.251468709671947  1.0000
  H   H21       1.0  0.1973656276231849  0.988585106624534  0.5557393820547601  1.0000
  H   H22       1.0  0.8026384993659264  0.011423127909836203  0.4442600991532615  1.0000
  H   H23       1.0  0.6485921185963903  0.730006081873569  0.5067070948235752  1.0000
  H   H24       1.0  0.3514119214058411  0.2700173310922481  0.4932868240252191  1.0000
  H   H25       1.0  0.7353645978726675  0.7682139578079586  0.6569240488893513  1.0000
  H   H26       1.0  0.26463802131589625  0.23180298299392635  0.3430696215839575  1.0000
  C   C1        1.0  0.4927877682885082  0.24232691383296873  0.8927381738984366  1.0000
  C   C2        1.0  0.5072119624202216  0.7576736611098627  0.10726316948021256  1.0000
  C   C3        1.0  0.5657141705876326  0.9035316421537519  0.7847947138953302  1.0000
  C   C4        1.0  0.4342869494676195  0.09646794983618182  0.21520401264432817  1.0000
  C   C5        1.0  0.5132329908954105  0.8963707931402997  0.6921024022875599  1.0000
  C   C6        1.0  0.4867724901646468  0.10363652154653384  0.3078918049548278  1.0000
  C   C7        1.0  0.35999263466204195  0.9608036224616825  0.6641338394131041  1.0000
  C   C8        1.0  0.6400116576335863  0.039200310289246004  0.33586589971233133  1.0000
  C   C9        1.0  0.2486050341665091  0.05544134924337382  0.7190848381747799  1.0000
  C   C10       1.0  0.7513964391500351  0.9445571100728575  0.2809166051325178  1.0000
  C   C11       1.0  0.0967586169522434  0.0438504630451746  0.7257270304871497  1.0000
  C   C12       1.0  0.9032417320901445  0.9561480043136615  0.2742731036101985  1.0000
  C   C13       1.0  0.028760199899721783  0.22659204752326903  0.817738961133351  1.0000
  C   C14       1.0  0.9712411774593972  0.7733955666976303  0.182266458052446  1.0000
  C   C15       1.0  0.17614042794545529  0.25074992852351136  0.8131811376915222  1.0000
  C   C16       1.0  0.8238609015107768  0.7492452828012901  0.1868211681738288  1.0000
  C   C17       1.0  0.20798150312244698  0.36931919399897595  0.8569325326257058  1.0000
  C   C18       1.0  0.7920184193494818  0.6306770318313967  0.14307106151532878  1.0000
  C   C19       1.0  0.35718764026888283  0.37026405851092664  0.8846165700861377  1.0000
  C   C20       1.0  0.642811681507183  0.629734243350761  0.1153895618995122  1.0000
  C   C21       1.0  0.3826162849273089  0.4943137011930574  0.9136317900245884  1.0000
  C   C22       1.0  0.6173810798294852  0.5056835945145153  0.0863697903372156  1.0000
  C   C23       1.0  0.2610472065613933  0.6119202336076484  0.925680709856401  1.0000
  C   C24       1.0  0.738948554437428  0.3880749232721072  0.07431903564919647  1.0000
  C   C25       1.0  0.11105340651762673  0.6085199433432679  0.905349518396747  1.0000
  C   C26       1.0  0.888941112803394  0.39147192625862465  0.0946517733019405  1.0000
  C   C27       1.0  0.9754905319525446  0.7282199203455522  0.9237499533106116  1.0000
  C   C28       1.0  0.024507822036980473  0.2717741035516427  0.07625446310085239  1.0000
  C   C29       1.0  0.08724193610260754  0.49016158123507125  0.8681894642375879  1.0000
  C   C30       1.0  0.9127529717552889  0.509829092587758  0.13181720135537486  1.0000
  C   C31       1.0  0.2851024687894678  0.16455068259751474  0.760963951020166  1.0000
  C   C32       1.0  0.7149004379680619  0.8354467148841209  0.2390381968564199  1.0000
  C   C33       1.0  0.31366646041329455  0.9373542675068338  0.580288839907638  1.0000
  C   C34       1.0  0.686332259616492  0.0626571290212468  0.419708546945877  1.0000
  C   C35       1.0  0.4158162944887279  0.8528857090193115  0.52430071415759  1.0000
  C   C36       1.0  0.5841854715589107  0.1471267487256469  0.4756998764030839  1.0000
  C   C37       1.0  0.36156113436880577  0.8367872251839971  0.4339606495591326  1.0000
  C   C38       1.0  0.6384395641264574  0.16321762772332704  0.5660424093937024  1.0000
  C   C39       1.0  0.5685779321717775  0.7924499754526123  0.551717093321365  1.0000
  C   C40       1.0  0.43142501001297967  0.2075733982267778  0.4482775091624589  1.0000
  C   C41       1.0  0.6167479548019442  0.8149696843255472  0.6349675294657402  1.0000
  C   C42       1.0  0.3832575224496891  0.18504514858347684  0.36502688586449483  1.0000
  N   N1        1.0  0.989577545593036  0.12959352907233077  0.7724830580357178  1.0000
  N   N2        1.0  0.010422977574762462  0.8704006207267274  0.22751799826070138  1.0000
  O   O1        1.0  0.47677556089817585  0.12673860958053504  0.9358177910225577  1.0000
  O   O2        1.0  0.5232250884921471  0.8732588197626469  0.0641810741524864  1.0000
  O   O3        1.0  0.6207332652749643  0.2572114743161508  0.8603440456104536  1.0000
  O   O4        1.0  0.3792637726772126  0.7427869067361004  0.1396568108286758  1.0000
  O   O5        1.0  0.682453694909313  0.9560258616308064  0.7945054225258302  1.0000
  O   O6        1.0  0.31754493798194255  0.0439746740255984  0.20549660448785537  1.0000
  O   O7        1.0  0.5002104611698852  0.8535986209326226  0.8504905557574816  1.0000
  O   O8        1.0  0.49979177434062194  0.146400978791057  0.14950881571045474  1.0000
  O   O9        1.0  0.9939591137685966  0.8511179785606302  0.9353471968480278  1.0000
  O   O10       1.0  0.006037336115021195  0.14887494452440111  0.0646566536295339  1.0000
  O   O11       1.0  0.8434722016225534  0.7017090999607234  0.9287965600690101  1.0000
  O   O12       1.0  0.1565233940697439  0.2982903587024667  0.0712029275191739  1.0000
  O   O13       1.0  0.45626907337109646  0.7662675678019684  0.3801713337110115  1.0000
  O   O14       1.0  0.543725573374516  0.23374260201208602  0.619828847323646  1.0000
  O   O15       1.0  0.22125907922563928  0.8975873634787991  0.4125098320931926  1.0000
  O   O16       1.0  0.7787459664450651  0.10241772545592204  0.5874871709112242  1.0000
  O   O17       1.0  0.6951133866568783  0.42504186680255895  0.7210731844122549  1.0000
  O   O18       1.0  0.3048886079854967  0.5749546584694301  0.2789197425155052  1.0000
  O   O19       1.0  0.7661018866622484  0.04077674284177141  0.060771829935369205  1.0000
  O   O20       1.0  0.2339000964032109  0.9592162977936667  0.939231923775324  1.0000
