data_image0
_chemical_formula_structural       Al4H10C40S4O36
_chemical_formula_sum              "Al4 H10 C40 S4 O36"
_cell_length_a       6.8490458294933365
_cell_length_b       18.7354504217297
_cell_length_c       21.828295003450478
_cell_angle_alpha    86.89939522478497
_cell_angle_beta     86.41536221358834
_cell_angle_gamma    86.2699065058994

_space_group_name_H-M_alt    "P 1"
_space_group_IT_number       1

loop_
  _space_group_symop_operation_xyz
  'x, y, z'

loop_
  _atom_site_type_symbol
  _atom_site_label
  _atom_site_symmetry_multiplicity
  _atom_site_fract_x
  _atom_site_fract_y
  _atom_site_fract_z
  _atom_site_occupancy
  Al  Al1       1.0  0.7833837560579866  0.2667932094904373  0.25947712715942817  1.0000
  Al  Al2       1.0  0.22565494600255684  0.7372374834755389  0.7398195808666725  1.0000
  Al  Al3       1.0  0.2842169474344729  0.26589861752958643  0.259871151983944  1.0000
  Al  Al4       1.0  0.7250045358208651  0.7361288210028719  0.7388924750928465  1.0000
  H   H1        1.0  0.018352378425021208  0.15411976093967886  0.8615353449348004  1.0000
  H   H2        1.0  0.8730625681502246  0.9017482285700493  0.14893091431158464  1.0000
  H   H3        1.0  0.6687454397231462  0.06170908259091589  0.8252894730210725  1.0000
  H   H4        1.0  0.1940712728423648  0.9260615302632044  0.18119784873361058  1.0000
  H   H5        1.0  0.277758619383313  0.9084475246589039  0.8496363750286944  1.0000
  H   H6        1.0  0.44034686549879615  0.08537609826532129  0.9986059106534878  1.0000
  H   H7        1.0  0.5552055934810696  0.17860966382173157  0.23731123362907164  1.0000
  H   H8        1.0  0.4676491869540769  0.8236511467480341  0.7080476863266721  1.0000
  H   H9        1.0  0.0227180117087684  0.35895160339791227  0.24379169542860513  1.0000
  H   H10       1.0  0.9959930682686532  0.644220909630242  0.7308903516321265  1.0000
  C   C1        1.0  0.5357270156966507  0.35366479102680154  0.17489039981247598  1.0000
  C   C2        1.0  0.4697861459114492  0.6550292091356694  0.826560094625172  1.0000
  C   C3        1.0  0.5014888137161932  0.3461744169023148  0.3417692010824779  1.0000
  C   C4        1.0  0.5069606281459613  0.6520943679860733  0.6597300232045169  1.0000
  C   C5        1.0  0.029622724487928995  0.17861873638384645  0.3432241632709604  1.0000
  C   C6        1.0  0.9797785746711227  0.8248705906167755  0.6547776172018869  1.0000
  C   C7        1.0  0.06593948501798512  0.18491560594196693  0.17838534679666643  1.0000
  C   C8        1.0  0.9392024043342814  0.8184962658667841  0.81989947792114  1.0000
  C   C9        1.0  0.8829843848024551  0.03602678506582889  0.9527406934311383  1.0000
  C   C10       1.0  0.10710881021979901  0.9709768179950017  0.04207441270914099  1.0000
  C   C11       1.0  0.0924782884380519  0.05783449556437149  0.968079601822566  1.0000
  C   C12       1.0  0.8977870547264005  0.9489923526957538  0.027935992082980487  1.0000
  C   C13       1.0  0.07483975352169382  0.13911836158641927  0.12720766084620286  1.0000
  C   C14       1.0  0.9261484046025077  0.8638741392341839  0.8712525503441382  1.0000
  C   C15       1.0  0.821457314019547  0.030880885056348003  0.02478255110477789  1.0000
  C   C16       1.0  0.16826818554133643  0.9758069447089636  0.971891408331771  1.0000
  C   C17       1.0  0.03218800986463321  0.052512005693351696  0.03924194412485349  1.0000
  C   C18       1.0  0.957265621902934  0.9545488618906859  0.9569224869312546  1.0000
  C   C19       1.0  0.0641124982978951  0.10075933979684489  0.08470498608024707  1.0000
  C   C20       1.0  0.9294667757078444  0.9044517196358012  0.9125898886322897  1.0000
  C   C21       1.0  0.9813345299226411  0.8783779302585727  0.6050324537398664  1.0000
  C   C22       1.0  0.026823966887839404  0.12514947066971868  0.3933095601552948  1.0000
  C   C23       1.0  0.9888819451797558  0.9258696039537994  0.5641617877923719  1.0000
  C   C24       1.0  0.0186631611250192  0.07801136508687989  0.43443036005500335  1.0000
  C   C25       1.0  0.9983322835339692  0.9779380878088092  0.5197000525434772  1.0000
  C   C26       1.0  0.0086204829840355  0.026089926910181298  0.4790105843515632  1.0000
  C   C27       1.0  0.531974221143372  0.4004442254623512  0.12045588657936429  1.0000
  C   C28       1.0  0.4728417918369414  0.6084543925831767  0.880928489072495  1.0000
  C   C29       1.0  0.5211273182034049  0.4402954252724953  0.07417869380171277  1.0000
  C   C30       1.0  0.48330004343480226  0.5684548692965449  0.9271303355044649  1.0000
  C   C31       1.0  0.5084483939524915  0.48411165544649737  0.02377159407746629  1.0000
  C   C32       1.0  0.49546416053067344  0.5246483321119157  0.9775481702414975  1.0000
  C   C33       1.0  0.4895249696805166  0.39344321784720643  0.3919747061921297  1.0000
  C   C34       1.0  0.5161633456017115  0.6049479121515802  0.6096539622212231  1.0000
  C   C35       1.0  0.49230115012259296  0.4343414882645575  0.4338749572271181  1.0000
  C   C36       1.0  0.5119010846761897  0.5644997578140262  0.567458941195447  1.0000
  C   C37       1.0  0.49781356762839835  0.47901230335412476  0.4796023044230251  1.0000
  C   C38       1.0  0.5057991069677216  0.5201491280117736  0.5215187476770067  1.0000
  C   C39       1.0  0.788756104479269  0.0741264164046882  0.8985396601558191  1.0000
  C   C40       1.0  0.22092916753340563  0.9396022526955221  0.09422092100061964  1.0000
  S   S1        1.0  0.2010643705275186  0.13687695102812816  0.9344631616562604  1.0000
  S   S2        1.0  0.8346390791077171  0.8623952046949483  0.06223162921224906  1.0000
  S   S3        1.0  0.37545718880644324  0.9269997580331333  0.9377807620582954  1.0000
  S   S4        1.0  0.6337847050648052  0.07909450148345337  0.06915864921000997  1.0000
  O   O1        1.0  0.34116150445404975  0.3258750351722455  0.3243926753939802  1.0000
  O   O2        1.0  0.6692224873253636  0.6726785117859461  0.675914341416856  1.0000
  O   O3        1.0  0.7039284953556048  0.33448240875792823  0.19432098955513055  1.0000
  O   O4        1.0  0.30223871943295694  0.6770200392830288  0.8082286415128689  1.0000
  O   O5        1.0  0.89321426382957  0.20089015140859348  0.20063402285641266  1.0000
  O   O6        1.0  0.11322296111855219  0.8060817224304981  0.796500361112528  1.0000
  O   O7        1.0  0.6743367324877454  0.3303817472984035  0.31966202177574826  1.0000
  O   O8        1.0  0.3347953104982651  0.6679318219767012  0.6829597473414493  1.0000
  O   O9        1.0  0.8626066769466049  0.20109035429318572  0.325268714454772  1.0000
  O   O10       1.0  0.14767333355091947  0.8022725984662741  0.6725887960841275  1.0000
  O   O11       1.0  0.36832836378727757  0.33706333258555077  0.19846118445619243  1.0000
  O   O12       1.0  0.6365402280677729  0.669299008374061  0.8012412298071818  1.0000
  O   O13       1.0  0.5420380724046155  0.2231665089483812  0.258446012748024  1.0000
  O   O14       1.0  0.46881862836649907  0.7809000612289978  0.7352720893662475  1.0000
  O   O15       1.0  0.19762233042692404  0.19641035255364162  0.3219353656193887  1.0000
  O   O16       1.0  0.8119486322600125  0.8066622451910134  0.6765131628407983  1.0000
  O   O17       1.0  0.2275419418510438  0.20340145775969629  0.19646405831330324  1.0000
  O   O18       1.0  0.7807341705901579  0.7975577237381298  0.8022374156046223  1.0000
  O   O19       1.0  0.027096565846264305  0.3090914845285653  0.25842208392950267  1.0000
  O   O20       1.0  0.9832976166280575  0.6944987567228721  0.7398662945917776  1.0000
  O   O21       1.0  0.1071662232020785  0.19701290246167247  0.9641841386605632  1.0000
  O   O22       1.0  0.4117616638314416  0.12260702999455478  0.9350857446813448  1.0000
  O   O23       1.0  0.16160617409203581  0.1389572077708578  0.8639141602395238  1.0000
  O   O24       1.0  0.678045356312431  0.8336442862955381  0.03378668491060919  1.0000
  O   O25       1.0  0.025280990585052603  0.8247244464727144  0.06255079541699617  1.0000
  O   O26       1.0  0.7617170096887094  0.881226082566968  0.13021630371160595  1.0000
  O   O27       1.0  0.7891926729227521  0.1395033738685426  0.8891475191949493  1.0000
  O   O28       1.0  0.7249651343468101  0.031009288892874996  0.8584595173507732  1.0000
  O   O29       1.0  0.389169959541853  0.9168369016266523  0.09193112733835558  1.0000
  O   O30       1.0  0.10708795202546638  0.9436663796726561  0.14889094236561104  1.0000
  O   O31       1.0  0.5476792789899819  0.9594913460369694  0.9528336823625165  1.0000
  O   O32       1.0  0.3453841612145396  0.8527311949704384  0.9497899838377176  1.0000
  O   O33       1.0  0.34704265177762045  0.9472962381885918  0.8659710957707032  1.0000
  O   O34       1.0  0.6343737749119286  0.048513745026788485  0.13077423658767626  1.0000
  O   O35       1.0  0.6639794190850665  0.15339143127644664  0.05482564317807708  1.0000
  O   O36       1.0  0.4426941846612209  0.0589406945880029  0.04068285431691978  1.0000
