data_image0
_chemical_formula_structural       Cu4H20C28N12O2
_chemical_formula_sum              "Cu4 H20 C28 N12 O2"
_cell_length_a       6.682815293835644
_cell_length_b       8.570427002692952
_cell_length_c       14.233331966822961
_cell_angle_alpha    90.00143762427572
_cell_angle_beta     105.21254229365123
_cell_angle_gamma    89.99960572464127

_space_group_name_H-M_alt    "P 1"
_space_group_IT_number       1

loop_
  _space_group_symop_operation_xyz
  'x, y, z'

loop_
  _atom_site_type_symbol
  _atom_site_label
  _atom_site_symmetry_multiplicity
  _atom_site_fract_x
  _atom_site_fract_y
  _atom_site_fract_z
  _atom_site_occupancy
  Cu  Cu1       1.0  0.18460958922349846  0.8275151682286506  0.2415248687544462  1.0000
  Cu  Cu2       1.0  0.1846076563135171  0.17248106954258444  0.7415239957210814  1.0000
  Cu  Cu3       1.0  0.826700858937862  0.3300415150328249  0.258460849038066  1.0000
  Cu  Cu4       1.0  0.8267107129074065  0.6699625099013531  0.7584591017141233  1.0000
  H   H1        1.0  0.8351085661449675  0.851124200046108  0.09555863371056009  1.0000
  H   H2        1.0  0.8351159447810803  0.14888241847636857  0.5955584637775573  1.0000
  H   H3        1.0  0.9542217632118126  0.8170742059717212  0.9455433863229457  1.0000
  H   H4        1.0  0.9542211769379776  0.18293683189548904  0.44554183278742693  1.0000
  H   H5        1.0  0.41434274854336917  0.5821404667355381  0.8050383698495763  1.0000
  H   H6        1.0  0.41432845288606046  0.41785482829527604  0.3050465755646599  1.0000
  H   H7        1.0  0.264969189332426  0.617371875818385  0.9459441434439737  1.0000
  H   H8        1.0  0.2649610784462126  0.3826136693142317  0.4459518140155935  1.0000
  H   H9        1.0  0.772205669165487  0.6964260990000138  0.37819773302029347  1.0000
  H   H10       1.0  0.7721886074879406  0.30358780474723085  0.878206975537729  1.0000
  H   H11       1.0  0.2797633046655221  0.9147728094741652  0.39713503962286717  1.0000
  H   H12       1.0  0.279756662758274  0.08521998491303148  0.8971301842236201  1.0000
  H   H13       1.0  0.1699755121622815  0.920435289628429  0.5525401959128685  1.0000
  H   H14       1.0  0.169962562206841  0.07954859024637528  0.05253564636463179  1.0000
  H   H15       1.0  0.3846036395557419  0.785263581594236  0.6980338961787849  1.0000
  H   H16       1.0  0.3845784776728465  0.21472630597438774  0.19803564177280458  1.0000
  H   H17       1.0  0.8020655830259714  0.6310815358715444  0.5477794552685679  1.0000
  H   H18       1.0  0.8020296307193108  0.36893029519750087  0.0477851388261499  1.0000
  H   H19       1.0  0.7281616025428053  0.7133520898023632  0.21904775692345171  1.0000
  H   H20       1.0  0.7281598690856586  0.2866601729983599  0.719054276304959  1.0000
  C   C1        1.0  0.7363980980136021  0.7906489409902376  0.03288531598943931  1.0000
  C   C2        1.0  0.7364023526269038  0.20935445877086067  0.5328857147603614  1.0000
  C   C3        1.0  0.8038986117737112  0.7722227732222535  0.9492248623655256  1.0000
  C   C4        1.0  0.8038996499300168  0.2277833803911377  0.44922628928785696  1.0000
  C   C5        1.0  0.5022724693991876  0.6429028381510874  0.8701537444834386  1.0000
  C   C6        1.0  0.5022643683019438  0.35709349965937776  0.3701610253856272  1.0000
  C   C7        1.0  0.4198737081819458  0.6608524498272812  0.9494129522226727  1.0000
  C   C8        1.0  0.419867103575598  0.339139415962151  0.4494187239394378  1.0000
  C   C9        1.0  0.539470984930425  0.7350186353417171  0.03313781114080428  1.0000
  C   C10       1.0  0.5394737590088141  0.26497998673514894  0.5331410004413542  1.0000
  C   C11       1.0  0.44783225919011477  0.7610916261602012  0.11590350044944127  1.0000
  C   C12       1.0  0.4478334016379719  0.23890621749919205  0.6159039959177761  1.0000
  C   C13       1.0  0.6186333412129699  0.7479885517513196  0.3710570864119163  1.0000
  C   C14       1.0  0.618617728107175  0.25202237362160673  0.8710628942527164  1.0000
  C   C15       1.0  0.5477244785886554  0.7676196628658188  0.45843274529566  1.0000
  C   C16       1.0  0.5477103626183252  0.23238822989806346  0.958437018292514  1.0000
  C   C17       1.0  0.36839255437521956  0.8519450527565837  0.4613681272109956  1.0000
  C   C18       1.0  0.3683782883178566  0.14805107816372504  0.9613668756972158  1.0000
  C   C19       1.0  0.3069488449683888  0.8560144561722324  0.5472425281092441  1.0000
  C   C20       1.0  0.306932830284282  0.14397664613625236  0.0472400199512322  1.0000
  C   C21       1.0  0.42748944814065487  0.7807091903025167  0.6293295407022157  1.0000
  C   C22       1.0  0.4274719757791061  0.21928697974609423  0.12933082969098558  1.0000
  C   C23       1.0  0.6599954416631064  0.6961404623466902  0.5452066576662273  1.0000
  C   C24       1.0  0.65997027600298  0.30386735022857175  0.04521047012418218  1.0000
  C   C25       1.0  0.053103049857099904  0.6410245840701021  0.25894754116728075  1.0000
  C   C26       1.0  0.053116610394631905  0.35897190159163717  0.7589526998353762  1.0000
  C   C27       1.0  0.07483975050655539  0.028262500150596295  0.2463721357361806  1.0000
  C   C28       1.0  0.07484644872495491  0.9717298527283235  0.7463760531324083  1.0000
  N   N1        1.0  0.6906379422156237  0.6989776930935817  0.868666022252448  1.0000
  N   N2        1.0  0.6906328418343721  0.3010257506884457  0.3686699769081584  1.0000
  N   N3        1.0  0.5793648587742979  0.7562952598941517  0.20722831645448986  1.0000
  N   N4        1.0  0.5793615001571908  0.24371147325552295  0.7072318844299088  1.0000
  N   N5        1.0  0.5002602930379041  0.7825174683275831  0.2851340948701093  1.0000
  N   N6        1.0  0.5002523236347188  0.21748822012327904  0.78513743700379  1.0000
  N   N7        1.0  0.603304317287261  0.7034080178557858  0.6290215416976748  1.0000
  N   N8        1.0  0.6032775735952001  0.2965930398411203  0.12902435973279575  1.0000
  N   N9        1.0  0.9610407781738247  0.5248950214133856  0.26305905707076244  1.0000
  N   N10       1.0  0.9610384555666586  0.47510964586475507  0.7630564481719373  1.0000
  N   N11       1.0  0.9961280229338385  0.1482192559458895  0.25537904512478343  1.0000
  N   N12       1.0  0.9961503929288257  0.851782575808599  0.7553857284881715  1.0000
  O   O1        1.0  0.2586947509853487  0.7879644806150664  0.10189735911984597  1.0000
  O   O2        1.0  0.2586959949546994  0.21202329063839184  0.6018995628354489  1.0000
