data_image0
_chemical_formula_structural       Zn16H40C112S8Br8O52F8
_chemical_formula_sum              "Zn16 H40 C112 S8 Br8 O52 F8"
_cell_length_a       18.53901646050839
_cell_length_b       19.728088761866648
_cell_length_c       32.805626270006286
_cell_angle_alpha    85.9598834759854
_cell_angle_beta     73.59419529574912
_cell_angle_gamma    61.98616980232505

_space_group_name_H-M_alt    "P 1"
_space_group_IT_number       1

loop_
  _space_group_symop_operation_xyz
  'x, y, z'

loop_
  _atom_site_type_symbol
  _atom_site_label
  _atom_site_symmetry_multiplicity
  _atom_site_fract_x
  _atom_site_fract_y
  _atom_site_fract_z
  _atom_site_occupancy
  Zn  Zn1       1.0  0.8742989042608117  0.5554945517263478  0.5186264676196544  1.0000
  Zn  Zn2       1.0  0.03818693147526632  0.4854807287182438  0.43837914884581863  1.0000
  Zn  Zn3       1.0  0.04191181648288022  0.3979524750343302  0.5237248480366006  1.0000
  Zn  Zn4       1.0  0.04703885351504064  0.5600736034523377  0.5184934631846332  1.0000
  Zn  Zn5       1.0  0.6250070804362621  0.19280393549212962  0.7322369056608482  1.0000
  Zn  Zn6       1.0  0.4633222264779348  0.34976782244389437  0.725392529921379  1.0000
  Zn  Zn7       1.0  0.45806290465220917  0.26550194536361715  0.8128834559028277  1.0000
  Zn  Zn8       1.0  0.4536995255973792  0.19158655364952185  0.729612627003192  1.0000
  Zn  Zn9       1.0  0.4631462246448237  0.7623412428910469  0.3120267375101946  1.0000
  Zn  Zn10      1.0  0.45239686862105094  0.6926150947783682  0.23112886186220996  1.0000
  Zn  Zn11      1.0  0.6264170940968442  0.6923099359547108  0.2293919779102609  1.0000
  Zn  Zn12      1.0  0.45846792580440604  0.8520511593556678  0.2262552068388004  1.0000
  Zn  Zn13      1.0  0.03629302915901876  0.9002473641405403  0.024618680423031905  1.0000
  Zn  Zn14      1.0  0.04972882803482999  0.05600042587388291  0.018464763382681305  1.0000
  Zn  Zn15      1.0  0.8743453058867204  0.05939152990809761  0.019712172264576073  1.0000
  Zn  Zn16      1.0  0.03800267442697679  0.9843434145984278  0.9371413890591712  1.0000
  H   H1        1.0  0.8133108739917034  0.24352417421531666  0.6521907386027905  1.0000
  H   H2        1.0  0.5418204420081096  0.4850522518039213  0.6210954403543242  1.0000
  H   H3        1.0  0.5470362379923445  0.5251749938816346  0.6665371964472725  1.0000
  H   H4        1.0  0.6451842256894339  0.5715465512354286  0.6184001649170484  1.0000
  H   H5        1.0  0.6397333496115106  0.5314833611926775  0.5730295783562411  1.0000
  H   H6        1.0  0.2914623063379054  0.6004857969054953  0.29588642972344553  1.0000
  H   H7        1.0  0.3523550499827833  0.6743798993306599  0.4323922392710102  1.0000
  H   H8        1.0  0.2616440368497449  0.7626269500338483  0.4296521672411018  1.0000
  H   H9        1.0  0.16507945486722508  0.7137977632903798  0.4768496472964756  1.0000
  H   H10       1.0  0.2556695292313974  0.6255844323641853  0.47953224548713547  1.0000
  H   H11       1.0  0.8128676710248826  0.6002953667817295  0.29578909426214756  1.0000
  H   H12       1.0  0.5461789656621505  0.7628086571551266  0.4293732061155424  1.0000
  H   H13       1.0  0.5409959783423163  0.6745630713693629  0.43201011204182993  1.0000
  H   H14       1.0  0.6389227182663221  0.6256747644890621  0.4792505596658573  1.0000
  H   H15       1.0  0.6442304520015013  0.713816510454784  0.47669855962892177  1.0000
  H   H16       1.0  0.3046108719574007  0.45876835797293586  0.6455815106561431  1.0000
  H   H17       1.0  0.33283822397871893  0.1778743702407866  0.630694267509682  1.0000
  H   H18       1.0  0.24216260256371666  0.21774569391915582  0.6761342595989107  1.0000
  H   H19       1.0  0.14591288893240772  0.2678126979020803  0.6279223401524163  1.0000
  H   H20       1.0  0.23666565344891674  0.22787721931950242  0.5825597087905408  1.0000
  H   H21       1.0  0.6870113220678818  0.1497977891848876  0.9544246230364665  1.0000
  H   H22       1.0  0.9580764089777318  0.0759996511506529  0.8178963473877516  1.0000
  H   H23       1.0  0.9529119163519225  0.9877738410153186  0.8205265077018069  1.0000
  H   H24       1.0  0.8547034553366119  0.036710626304703495  0.7733814973911706  1.0000
  H   H25       1.0  0.8599594860759296  0.12488268167058444  0.7707809466865995  1.0000
  H   H26       1.0  0.1953155646873554  0.05217725059205949  0.8434780870339935  1.0000
  H   H27       1.0  0.1669763003467892  0.2150003057406735  0.976564774790802  1.0000
  H   H28       1.0  0.25788326147591795  0.12689564851410037  0.9792070701629002  1.0000
  H   H29       1.0  0.35384011072974175  0.174299726866245  0.9300738735345249  1.0000
  H   H30       1.0  0.2630554134538983  0.2623972885246885  0.9275248740225309  1.0000
  H   H31       1.0  0.19531150797028826  0.7917337061671575  0.10424498729386039  1.0000
  H   H32       1.0  0.2578667152979151  0.0327115327189773  0.07376207173771832  1.0000
  H   H33       1.0  0.1668848060448909  0.07274715964501871  0.11912701702765818  1.0000
  H   H34       1.0  0.26286581219336813  0.022827161597703607  0.1673994786372788  1.0000
  H   H35       1.0  0.3537271393087308  0.9827856545931724  0.12209375058505864  1.0000
  H   H36       1.0  0.6866560445082115  0.0065721658097502005  0.09780850408110105  1.0000
  H   H37       1.0  0.9529935663883006  0.7248762093050873  0.08348822930135921  1.0000
  H   H38       1.0  0.9582418741610327  0.7649655896837616  0.12893569948072786  1.0000
  H   H39       1.0  0.8602605893854829  0.7186747780779967  0.17696278376558897  1.0000
  H   H40       1.0  0.8550479436066071  0.6783900529253443  0.13160894447658927  1.0000
  C   C1        1.0  0.8621263494324226  0.5681850940614057  0.4308875772307346  1.0000
  C   C2        1.0  0.12346579887091741  0.3157117536245906  0.43858535105771074  1.0000
  C   C3        1.0  0.8633621590236159  0.42988052061165405  0.5686230499296697  1.0000
  C   C4        1.0  0.13857563644156562  0.43213246101591096  0.5685571868500787  1.0000
  C   C5        1.0  0.8757801732169171  0.6839075904722876  0.5607728291949172  1.0000
  C   C6        1.0  0.1376618095783968  0.5692515133732954  0.4307535518740337  1.0000
  C   C7        1.0  0.6394200726783338  0.31781555225499153  0.6812135397904554  1.0000
  C   C8        1.0  0.3772081245869998  0.43447937529699493  0.8106845289501337  1.0000
  C   C9        1.0  0.6363527301501647  0.18175496656789386  0.819659924944162  1.0000
  C   C10       1.0  0.3613140046830949  0.18109808948982223  0.8183186798466126  1.0000
  C   C11       1.0  0.6239692792166168  0.06613721531909528  0.6885848251394505  1.0000
  C   C12       1.0  0.36318488461246556  0.31986742190566275  0.6805462999673682  1.0000
  C   C13       1.0  0.3628848112571248  0.6801675199475313  0.3187149901667325  1.0000
  C   C14       1.0  0.6227714633655665  0.565856695401628  0.18851704517069126  1.0000
  C   C15       1.0  0.6389695589589834  0.680173555127837  0.31821860842973126  1.0000
  C   C16       1.0  0.63669211938781  0.8196730877953938  0.18077170453151578  1.0000
  C   C17       1.0  0.37698039550215157  0.9326408590957201  0.3119596448519176  1.0000
  C   C18       1.0  0.3612482587703596  0.8185494873520441  0.1811979507384862  1.0000
  C   C19       1.0  0.13775420035817354  0.9301901414261664  0.06879842539015615  1.0000
  C   C20       1.0  0.8794016831789478  0.18372843948405657  0.061213968802974306  1.0000
  C   C21       1.0  0.8605441217653934  0.9325086958072645  0.0691461096862085  1.0000
  C   C22       1.0  0.8609456055865863  0.0695334157667133  0.9315842232695104  1.0000
  C   C23       1.0  0.12169543304270986  0.815684693999323  0.9392093210181259  1.0000
  C   C24       1.0  0.13807544180156836  0.0678062964574977  0.9304356864952581  1.0000
  C   C25       1.0  0.7367296209024303  0.8032374266358532  0.6010097970249078  1.0000
  C   C26       1.0  0.7629416266079261  0.9462615539446655  0.6489858528590986  1.0000
  C   C27       1.0  0.8246288172519202  0.7584572778657801  0.5860268748569482  1.0000
  C   C28       1.0  0.675008890650268  0.9912493101141422  0.663774900105267  1.0000
  C   C29       1.0  0.7855293544953097  0.8777676893191853  0.6260812534867313  1.0000
  C   C30       1.0  0.7141180375523174  0.8717284871650791  0.623933562805938  1.0000
  C   C31       1.0  0.20227636355139816  0.22638544124988155  0.3689291376987995  1.0000
  C   C32       1.0  0.29826497678659797  0.022119363499356795  0.38158086604637736  1.0000
  C   C33       1.0  0.17286232604455165  0.24166469949236818  0.4129704725068137  1.0000
  C   C34       1.0  0.3277038422691376  0.0066635163652080005  0.3375734149348801  1.0000
  C   C35       1.0  0.2525772819060066  0.10210335635544249  0.3930679035725362  1.0000
  C   C36       1.0  0.2480514662003515  0.14631757967077158  0.3574839297607967  1.0000
  C   C37       1.0  0.6958378000948358  0.3463838793848453  0.6526659345794599  1.0000
  C   C38       1.0  0.8077855930762395  0.4004560777262825  0.5972633042386235  1.0000
  C   C39       1.0  0.664652546442575  0.4187162368560848  0.6364903357820354  1.0000
  C   C40       1.0  0.8379182127374348  0.3272780003644087  0.6141671269325287  1.0000
  C   C41       1.0  0.71896768812163  0.44424674878716525  0.6098528508554609  1.0000
  C   C42       1.0  0.7848972986444381  0.3006678176551745  0.6406914609161092  1.0000
  C   C43       1.0  0.5847366945185825  0.492088917420105  0.6356269650937421  1.0000
  C   C44       1.0  0.6461318467758517  0.5211700500760799  0.6054779924208447  1.0000
  C   C45       1.0  0.3057945402252783  0.6522833290731852  0.34720082340937347  1.0000
  C   C46       1.0  0.19455899181887293  0.5968683700708084  0.40178580494918503  1.0000
  C   C47       1.0  0.28057515331487787  0.6643901998899723  0.3914301600840417  1.0000
  C   C48       1.0  0.22103024015697045  0.5852671940077557  0.35672649667846207  1.0000
  C   C49       1.0  0.22702281212013975  0.6375200318228167  0.41744847345799496  1.0000
  C   C50       1.0  0.2743116909898405  0.6116616037881002  0.33021967585889195  1.0000
  C   C51       1.0  0.2879001893277147  0.6997273531222563  0.42860141992868966  1.0000
  C   C52       1.0  0.22735739661905544  0.669182875705765  0.4581482208337063  1.0000
  C   C53       1.0  0.6952429662639047  0.65236959897738  0.3468808094476827  1.0000
  C   C54       1.0  0.8068195763209899  0.5965314067614071  0.40178892441780084  1.0000
  C   C55       1.0  0.6638522198544692  0.6645352135020276  0.391146256824797  1.0000
  C   C56       1.0  0.8372453495462009  0.5851212304988707  0.3567324986743189  1.0000
  C   C57       1.0  0.7180495846084155  0.6374715453331847  0.41728096953513477  1.0000
  C   C58       1.0  0.7843023872492267  0.6116638319552125  0.3301085688890452  1.0000
  C   C59       1.0  0.5838854452287873  0.6999118741922603  0.42827237449410666  1.0000
  C   C60       1.0  0.6452268585987111  0.6692761690219982  0.4579211327667637  1.0000
  C   C61       1.0  0.30550828878499914  0.3483097032083933  0.6526205682439113  1.0000
  C   C62       1.0  0.19479995417446364  0.4051219455077089  0.5972659358791292  1.0000
  C   C63       1.0  0.2728511453445818  0.3048309268216087  0.6402517467642498  1.0000
  C   C64       1.0  0.22842644599694484  0.44836702333456924  0.6104734181894358  1.0000
  C   C65       1.0  0.21964485805379041  0.3326064243567188  0.6135934279117237  1.0000
  C   C66       1.0  0.2815043402701958  0.42179641335662416  0.6369996248760046  1.0000
  C   C67       1.0  0.27104303745006314  0.22864760098657647  0.643912372402184  1.0000
  C   C68       1.0  0.21078716444765888  0.2599680760004048  0.6137364858854681  1.0000
  C   C69       1.0  0.29812707468389726  0.5836615006988665  0.8207557169503588  1.0000
  C   C70       1.0  0.2018457471471535  0.6665491991185987  0.9292521685122496  1.0000
  C   C71       1.0  0.3276326044465208  0.5099004079711236  0.8349825536994331  1.0000
  C   C72       1.0  0.1720158295227137  0.7402951363557263  0.9149874795008871  1.0000
  C   C73       1.0  0.24783832792335403  0.609389553381007  0.8949411712720376  1.0000
  C   C74       1.0  0.25227727827916596  0.6407670822732643  0.855074644800034  1.0000
  C   C75       1.0  0.8043698774885187  0.09777725674165788  0.9030940943263416  1.0000
  C   C76       1.0  0.6920723101004215  0.15371594265234734  0.8485751745373165  1.0000
  C   C77       1.0  0.835353803596213  0.08586436351886563  0.858841692755405  1.0000
  C   C78       1.0  0.6621356620513554  0.16497470043660203  0.893612923731446  1.0000
  C   C79       1.0  0.7809024264265574  0.11300448299588339  0.8328298164662798  1.0000
  C   C80       1.0  0.7153111009533718  0.1385248039015039  0.9200927338184641  1.0000
  C   C81       1.0  0.9151742905768785  0.0506567573059371  0.8216724247367893  1.0000
  C   C82       1.0  0.853663992699687  0.0813089801411948  0.7921279111442203  1.0000
  C   C83       1.0  0.19459464346935107  0.0966355816809212  0.9022181381364549  1.0000
  C   C84       1.0  0.30477543559671716  0.1518487955826018  0.8461618805024784  1.0000
  C   C85       1.0  0.22690620173101192  0.13729147212116294  0.9177911986512655  1.0000
  C   C86       1.0  0.27120689656281627  0.1103533034887008  0.8311259204534167  1.0000
  C   C87       1.0  0.2798599450205472  0.163642172463355  0.8905862110568635  1.0000
  C   C88       1.0  0.21833307521826129  0.08363097293723598  0.8576725169755761  1.0000
  C   C89       1.0  0.22877848155117422  0.16985231758517474  0.9577233546189134  1.0000
  C   C90       1.0  0.2888980101945791  0.1995929218028039  0.926977622099777  1.0000
  C   C91       1.0  0.6427185915985516  0.4464150764164643  0.14886686417751357  1.0000
  C   C92       1.0  0.8596601479560774  0.30297232312356936  0.10093109641436371  1.0000
  C   C93       1.0  0.6713144966723376  0.49102749356357106  0.16368702467801205  1.0000
  C   C94       1.0  0.8310823533087799  0.2583845868163834  0.08609234562032243  1.0000
  C   C95       1.0  0.7911303287067001  0.37151511197391324  0.12383059999009297  1.0000
  C   C96       1.0  0.7114001665295079  0.3778528671856733  0.12600101095393518  1.0000
  C   C97       1.0  0.19461408355782325  0.9020975739751691  0.09710591410094341  1.0000
  C   C98       1.0  0.30487140062569307  0.8455818215461688  0.152622922108435  1.0000
  C   C99       1.0  0.22697511457261743  0.9457414111554459  0.10958824530555941  1.0000
  C   C100      1.0  0.2713605787095616  0.8021974486485562  0.1394158464286761  1.0000
  C   C101      1.0  0.27994098011734536  0.9180952285715237  0.1363448208242914  1.0000
  C   C102      1.0  0.2183835778705897  0.8287286876676062  0.11283045314308283  1.0000
  C   C103      1.0  0.2287267670984292  0.021956335760684495  0.10597049937113212  1.0000
  C   C104      1.0  0.28881825369523273  0.9906980200589431  0.1362346297586541  1.0000
  C   C105      1.0  0.8041371783188538  0.9036927396780855  0.09738267536574337  1.0000
  C   C106      1.0  0.6922518526248708  0.8494259857557367  0.1525009114114226  1.0000
  C   C107      1.0  0.8353907962947105  0.8313100426287293  0.11349225199916899  1.0000
  C   C108      1.0  0.6620705408305979  0.9227300828601627  0.1357295433120171  1.0000
  C   C109      1.0  0.7810812930975355  0.805688728372644  0.14002395591177227  1.0000
  C   C110      1.0  0.715077389731057  0.9494061997822391  0.10928262570293869  1.0000
  C   C111      1.0  0.9153142596371496  0.7579691935636674  0.11439783710508772  1.0000
  C   C112      1.0  0.8539242766002246  0.7288608454904164  0.1445069297363518  1.0000
  S   S1        1.0  0.8797975847350726  0.8001465094734713  0.600105915623466  1.0000
  S   S2        1.0  0.6198481497830386  0.9495284038183913  0.6496922964469646  1.0000
  S   S3        1.0  0.20112551735861922  0.15809518432844533  0.4403525018795449  1.0000
  S   S4        1.0  0.2994590691447954  0.0902808837555114  0.3102089293448671  1.0000
  S   S5        1.0  0.29936738478598107  0.5104629034340321  0.8904678487032385  1.0000
  S   S6        1.0  0.20043337164404545  0.7396797044833222  0.8595039730630065  1.0000
  S   S7        1.0  0.7822365817225788  0.4490755485541129  0.1496336930040414  1.0000
  S   S8        1.0  0.720156206403523  0.30041032420852076  0.10017269032417889  1.0000
  Br  Br1       1.0  0.6529727006392677  0.7810780995814638  0.593488439168155  1.0000
  Br  Br2       1.0  0.8467891242072837  0.968280176613483  0.6564440076577398  1.0000
  Br  Br3       1.0  0.18708879992662014  0.29817018460610717  0.3272955434077858  1.0000
  Br  Br4       1.0  0.31333092574325144  0.9504485001189452  0.42342288656190163  1.0000
  Br  Br5       1.0  0.3130714582192056  0.6108147717557131  0.7640758065383296  1.0000
  Br  Br6       1.0  0.18680396694912826  0.6396233866252529  0.9859529764727668  1.0000
  Br  Br7       1.0  0.5294569354329185  0.46877869170452885  0.15615448465840837  1.0000
  Br  Br8       1.0  0.9731610908330313  0.28051853492445394  0.09340104260245141  1.0000
  O   O1        1.0  0.9994515043924607  0.5001527227908441  0.500865364644838  1.0000
  O   O2        1.0  0.8234651573186227  0.5839797859893991  0.47079399652901804  1.0000
  O   O3        1.0  0.10225154894803981  0.3763727820967233  0.4184432364458175  1.0000
  O   O4        1.0  0.9435099920308474  0.3865959964853333  0.5586079672886085  1.0000
  O   O5        1.0  0.9421604483334678  0.5309238814995183  0.4141763325297417  1.0000
  O   O6        1.0  0.8242700084304743  0.49741910225086633  0.5564800375578401  1.0000
  O   O7        1.0  0.10640775086410767  0.3120011745386506  0.4791316150548183  1.0000
  O   O8        1.0  0.11651032257292111  0.38397499184437583  0.5592595785304937  1.0000
  O   O9        1.0  0.9566802967666772  0.6574423906879403  0.5510902351370461  1.0000
  O   O10       1.0  0.11733654252163465  0.49942912801678546  0.5557358439172617  1.0000
  O   O11       1.0  0.8357184134150729  0.6529235913554033  0.550927002231049  1.0000
  O   O12       1.0  0.11326938668833711  0.5304506606044229  0.4140190727831907  1.0000
  O   O13       1.0  0.11816321002005033  0.5872337977244654  0.4705742687842758  1.0000
  O   O14       1.0  0.4999601021892275  0.24976330490196835  0.7502660872162537  1.0000
  O   O15       1.0  0.675105559170369  0.250752137074997  0.6942311430951664  1.0000
  O   O16       1.0  0.3991645187266143  0.43436453334540914  0.7702479033643073  1.0000
  O   O17       1.0  0.5561542733767482  0.21886413918173284  0.8362158948566787  1.0000
  O   O18       1.0  0.5595140214654181  0.36368414206719984  0.6901994106059774  1.0000
  O   O19       1.0  0.6753895816267459  0.16555424252612744  0.779838652677654  1.0000
  O   O20       1.0  0.393570623325658  0.37567206057558883  0.8328502923738625  1.0000
  O   O21       1.0  0.3834627910459573  0.2191563031466046  0.8376896749104716  1.0000
  O   O22       1.0  0.5429804362768919  0.09434162234027349  0.6968694150053382  1.0000
  O   O23       1.0  0.3828814763659524  0.16633882632819313  0.7782717842846196  1.0000
  O   O24       1.0  0.6640184414457976  0.0960307293104066  0.6995328604329956  1.0000
  O   O25       1.0  0.3883554486885926  0.36532933898082826  0.6899660370728355  1.0000
  O   O26       1.0  0.38260318790771203  0.25200839565582095  0.6925727787911171  1.0000
  O   O27       1.0  0.5013646339727912  0.7501430489832758  0.24954685501830207  1.0000
  O   O28       1.0  0.3880226617795016  0.7167463517319419  0.3370136843295413  1.0000
  O   O29       1.0  0.5419700167475128  0.5956303668673186  0.19909623132613774  1.0000
  O   O30       1.0  0.6747146886409467  0.6659323072255959  0.27818508095474925  1.0000
  O   O31       1.0  0.3818692256027275  0.6653034443109648  0.2787299587627885  1.0000
  O   O32       1.0  0.5590357670428362  0.7161034877044444  0.336704274582118  1.0000
  O   O33       1.0  0.6669765757364771  0.5940737796057078  0.19716912560971886  1.0000
  O   O34       1.0  0.6756749786293385  0.7514822024672795  0.19218009723916646  1.0000
  O   O35       1.0  0.3938521153682403  0.9366515460571277  0.2714657273904919  1.0000
  O   O36       1.0  0.5565663367268524  0.8633085984798966  0.1911752862282441  1.0000
  O   O37       1.0  0.39820224982185687  0.871769424535728  0.332029204918733  1.0000
  O   O38       1.0  0.38268385435623026  0.7510524507613994  0.19371683028607825  1.0000
  O   O39       1.0  0.3834160969682612  0.8664552501926794  0.1907440581533066  1.0000
  O   O40       1.0  0.9992283826473524  0.00025865293607550135  0.9996403927655495  1.0000
  O   O41       1.0  0.11130092392475872  0.8854216514306403  0.05992803722652702  1.0000
  O   O42       1.0  0.960343508736763  0.1529354320810086  0.05095720152164052  1.0000
  O   O43       1.0  0.82498780026787  0.00020224198703999973  0.05684526404599665  1.0000
  O   O44       1.0  0.12035231810821025  0.9972437008663991  0.05582485955047641  1.0000
  O   O45       1.0  0.9404100060802134  0.8862233843529311  0.059744864819222775  1.0000
  O   O46       1.0  0.834690793812193  0.15650902811939457  0.05215905622016237  1.0000
  O   O47       1.0  0.8252241165043446  0.08549844656960909  0.9715376418665045  1.0000
  O   O48       1.0  0.10314665415175732  0.8744850765317196  0.9169553056373941  1.0000
  O   O49       1.0  0.9407734400491279  0.0315522440563782  0.9132044782576471  1.0000
  O   O50       1.0  0.10115208079893277  0.815989721188423  0.9796605334026083  1.0000
  O   O51       1.0  0.12048100927957962  0.08236826049373039  0.9704091370869534  1.0000
  O   O52       1.0  0.11227623821089588  0.031349514870491604  0.9125886024719847  1.0000
  F   F1        1.0  0.9228444051275062  0.2785112038003987  0.6048136209962536  1.0000
  F   F2        1.0  0.19432996005748027  0.5468363391604358  0.3370054513837531  1.0000
  F   F3        1.0  0.922096534934866  0.5464949636169366  0.3371186545629783  1.0000
  F   F4        1.0  0.2097671730429978  0.5199445576912043  0.5970705109370728  1.0000
  F   F5        1.0  0.5772169051165433  0.2033965120074512  0.9133482268816877  1.0000
  F   F6        1.0  0.2898978281207221  0.09465890082270792  0.7886534214061739  1.0000
  F   F7        1.0  0.2901284934722738  0.7306305713797061  0.15274579630742122  1.0000
  F   F8        1.0  0.5771375218740642  0.9714785971514317  0.1451178523833861  1.0000
