data_image0
_chemical_formula_structural       CuH32C42S2N12O6F6
_chemical_formula_sum              "Cu1 H32 C42 S2 N12 O6 F6"
_cell_length_a       9.010156008570977
_cell_length_b       11.174244158319452
_cell_length_c       12.025865950188582
_cell_angle_alpha    114.89949393417815
_cell_angle_beta     104.33149490974357
_cell_angle_gamma    93.86703279086235

_space_group_name_H-M_alt    "P 1"
_space_group_IT_number       1

loop_
  _space_group_symop_operation_xyz
  'x, y, z'

loop_
  _atom_site_type_symbol
  _atom_site_label
  _atom_site_symmetry_multiplicity
  _atom_site_fract_x
  _atom_site_fract_y
  _atom_site_fract_z
  _atom_site_occupancy
  Cu  Cu1       1.0  0.5000000482636863  0.5000007745181492  0.500001378844921  1.0000
  H   H1        1.0  0.2536047666727653  0.0673443593262562  0.7884180818348627  1.0000
  H   H2        1.0  0.7463939635422107  0.9326561929125249  0.21158153408882904  1.0000
  H   H3        1.0  0.2229086343908405  0.47666585952285345  0.7014812735437632  1.0000
  H   H4        1.0  0.7770917096506195  0.5233316784754507  0.2985174548469802  1.0000
  H   H5        1.0  0.7057626637606944  0.6205248219508235  0.818119273753979  1.0000
  H   H6        1.0  0.2942358366929482  0.3794747169174997  0.18188156313804882  1.0000
  H   H7        1.0  0.4823213308650836  0.22448578123988483  0.8680912153065851  1.0000
  H   H8        1.0  0.5176792335601021  0.7755127516861433  0.13191044083674078  1.0000
  H   H9        1.0  0.7832618513068538  0.2525574359801439  0.6841368240769727  1.0000
  H   H10       1.0  0.21673780070203458  0.747442115823624  0.3158617375960803  1.0000
  H   H11       1.0  0.05307634934656138  0.24181547440402798  0.49093429767327734  1.0000
  H   H12       1.0  0.9469226087542282  0.7581860875166484  0.509064927026266  1.0000
  H   H13       1.0  0.8582430190014206  0.1556580912632697  0.4414115597074187  1.0000
  H   H14       1.0  0.1417557130890757  0.8443424646640455  0.558587226472092  1.0000
  H   H15       1.0  0.8234237171126039  0.7718847551912306  0.6944521965439068  1.0000
  H   H16       1.0  0.17657982095184369  0.228116806831558  0.3055495436982909  1.0000
  H   H17       1.0  0.31799080088261883  0.05562654708405291  0.6114852645100515  1.0000
  H   H18       1.0  0.6820090752610282  0.944374007024521  0.38851456542721496  1.0000
  H   H19       1.0  0.1945941429938216  0.0832712305067389  0.4883971596311199  1.0000
  H   H20       1.0  0.8054066530682177  0.9167283194782813  0.5116024457996887  1.0000
  H   H21       1.0  0.10626301678234282  0.8703160456822802  0.8136423137912988  1.0000
  H   H22       1.0  0.8937412133146763  0.12968350253505176  0.18635959316859646  1.0000
  H   H23       1.0  0.07175818496114059  0.10401591022766608  0.9197981426183477  1.0000
  H   H24       1.0  0.9282403211190696  0.8959836397062946  0.08020020504113042  1.0000
  H   H25       1.0  0.815540234489525  0.5940144636375493  0.016994046192387247  1.0000
  H   H26       1.0  0.1844594118927887  0.40598507710057424  0.9830070047132156  1.0000
  H   H27       1.0  0.30116774659606443  0.7271095773452245  0.8158849719835362  1.0000
  H   H28       1.0  0.6988335117372201  0.2728869454638883  0.1841160211333062  1.0000
  H   H29       1.0  0.7071641887034231  0.399659855628805  0.03996559436509974  1.0000
  H   H30       1.0  0.2928368333689022  0.6003407003495695  0.9600344495857344  1.0000
  H   H31       1.0  0.8340292540301063  0.19543808013862926  0.8655830773630983  1.0000
  H   H32       1.0  0.16596925205010388  0.8045614697953312  0.13441527029637973  1.0000
  C   C1        1.0  0.12608370640039368  0.14497668670352942  0.6654866769962172  1.0000
  C   C2        1.0  0.8739161697432608  0.8550238674050449  0.33451315294104955  1.0000
  C   C3        1.0  0.9918127529840746  0.19700530417629386  0.6356694035156922  1.0000
  C   C4        1.0  0.008185753096142924  0.8029942457576668  0.364328944143793  1.0000
  C   C5        1.0  0.5350001014429465  0.43410683550539636  0.7301733069829482  1.0000
  C   C6        1.0  0.4649995468148943  0.5658927089212753  0.26982691417847343  1.0000
  C   C7        1.0  0.4710418360876786  0.32510787189232104  0.7457749073525551  1.0000
  C   C8        1.0  0.5289575842843489  0.6748906628524481  0.25422570503301495  1.0000
  C   C9        1.0  0.8657537275338425  0.5679276765382822  0.6308024703987912  1.0000
  C   C10       1.0  0.13424706477714923  0.43207186606964143  0.3691987945203864  1.0000
  C   C11       1.0  0.15205004224450389  0.11109790639788031  0.7675629391550987  1.0000
  C   C12       1.0  0.8479496097643843  0.8889016454058802  0.23243562251796115  1.0000
  C   C13       1.0  0.9788989837034446  0.4865926018393125  0.6326819108399491  1.0000
  C   C14       1.0  0.02110181048306711  0.5134069444571594  0.3673185243350405  1.0000
  C   C15       1.0  0.1373184274598529  0.540311519829558  0.7002968869594286  1.0000
  C   C16       1.0  0.862680768777409  0.45968601261039777  0.2997024571619279  1.0000
  C   C17       1.0  0.6599287032220998  0.5343706587279939  0.8282587629675862  1.0000
  C   C18       1.0  0.3400709431602138  0.4656288820101366  0.17174228793801663  1.0000
  C   C19       1.0  0.5304520279789742  0.3091922645413022  0.856971298272413  1.0000
  C   C20       1.0  0.4695485401972518  0.6908062757618154  0.1430286983825441  1.0000
  C   C21       1.0  0.8883185537534783  0.2141679741642122  0.7085742755753657  1.0000
  C   C22       1.0  0.11167972444091841  0.785830566087846  0.2914244633082675  1.0000
  C   C23       1.0  0.9524947094322584  0.23172314022551183  0.5243989535875573  1.0000
  C   C24       1.0  0.047503796647951894  0.7682764097084487  0.475599394071921  1.0000
  C   C25       1.0  0.9094162129331379  0.7087812206990237  0.6969595486070548  1.0000
  C   C26       1.0  0.09058595319233827  0.29121933346061  0.3030415391015425  1.0000
  C   C27       1.0  0.24570898288160237  0.12467067468868723  0.5929690895439494  1.0000
  C   C28       1.0  0.754289747333374  0.8753298775500868  0.4070305263797423  1.0000
  C   C29       1.0  0.06666829192143105  0.7616882922291525  0.7629962180985218  1.0000
  C   C30       1.0  0.933333646318232  0.23831125224857178  0.2370052608342236  1.0000
  C   C31       1.0  0.6652031711423163  0.9601687811073633  0.8983393631871693  1.0000
  C   C32       1.0  0.3347973867832436  0.0398347983583776  0.10166012282182635  1.0000
  C   C33       1.0  0.048978681177047186  0.12993362573924117  0.8402969660969436  1.0000
  C   C34       1.0  0.9510184510886786  0.8700649126430233  0.15970155877312203  1.0000
  C   C35       1.0  0.7185853338146799  0.5186233731984445  0.9383368150864232  1.0000
  C   C36       1.0  0.28141431444315396  0.4813761712282343  0.06166340607499877  1.0000
  C   C37       1.0  0.17903111703002844  0.6793304316338293  0.7647344193357812  1.0000
  C   C38       1.0  0.8209705951993483  0.3206681068505404  0.2352666210769315  1.0000
  C   C39       1.0  0.6556203471928866  0.40769460817230635  0.951915035620246  1.0000
  C   C40       1.0  0.34437930106495424  0.5923049362543651  0.04808518554117563  1.0000
  C   C41       1.0  0.9165303108022299  0.18177405629537446  0.8107655315124449  1.0000
  C   C42       1.0  0.08346796926769433  0.8182244876452246  0.18923237762700745  1.0000
  S   S1        1.0  0.5358633745831864  0.8715588671167467  0.7280413826683159  1.0000
  S   S2        1.0  0.4641387831671507  0.1284467298940584  0.27195836465013207  1.0000
  N   N1        1.0  0.35259687469359574  0.25044625980642365  0.6327804694131702  1.0000
  N   N2        1.0  0.647401627635567  0.7495532827504476  0.36721953773467664  1.0000
  N   N3        1.0  0.8959039526874404  0.35751929306394453  0.5581366657487339  1.0000
  N   N4        1.0  0.1040956974459206  0.642480255051268  0.44186272566850715  1.0000
  N   N5        1.0  0.7237847735923991  0.4808387251501501  0.5572384785663618  1.0000
  N   N6        1.0  0.2762164726146922  0.5191628331330379  0.4427628336486935  1.0000
  N   N7        1.0  0.7435659914682232  0.35607191411720157  0.5158506347587988  1.0000
  N   N8        1.0  0.25643388467543105  0.6439286399913798  0.48414919517846783  1.0000
  N   N9        1.0  0.45139956378156393  0.4153430173320984  0.6090234221403323  1.0000
  N   N10       1.0  0.5486014564152413  0.584657534957728  0.3909774515546901  1.0000
  N   N11       1.0  0.34282000981286825  0.30631836238175225  0.5528123702134595  1.0000
  N   N12       1.0  0.6571810103839368  0.6936821899080812  0.4471885034815701  1.0000
  O   O1        1.0  0.5502484027764253  0.7316682540173716  0.6956755096719293  1.0000
  O   O2        1.0  0.4497494037691182  0.26833329496786723  0.3043259902465821  1.0000
  O   O3        1.0  0.38499626326217395  0.9039417373599221  0.7411906942855853  1.0000
  O   O4        1.0  0.6150035932531991  0.09606383746855582  0.2588127737266249  1.0000
  O   O5        1.0  0.6061282504235875  0.9324843716072164  0.6628597679850615  1.0000
  O   O6        1.0  0.39386910785241713  0.0675151727684025  0.3371391954050297  1.0000
  F   F1        1.0  0.6606055140601369  0.0937514756999818  0.952619512715174  1.0000
  F   F2        1.0  0.3393913744425419  0.9062510810973663  0.04738138196561435  1.0000
  F   F3        1.0  0.8178035790321374  0.9506280803998592  0.9070850978338004  1.0000
  F   F4        1.0  0.1821978848101082  0.04937952672786141  0.09291531251113135  1.0000
  F   F5        1.0  0.6225583889152162  0.9076076039840899  0.9717923954764204  1.0000
  F   F6        1.0  0.37744378283683483  0.09239296124118111  0.028206202999626777  1.0000
