data_image0
_chemical_formula_structural       Li4H48C28S4N4O12
_chemical_formula_sum              "Li4 H48 C28 S4 N4 O12"
_cell_length_a       8.98439564292178
_cell_length_b       9.865611045022211
_cell_length_c       10.78989580380493
_cell_angle_alpha    90.00021674211173
_cell_angle_beta     92.92005007372619
_cell_angle_gamma    90.00009900590544

_space_group_name_H-M_alt    "P 1"
_space_group_IT_number       1

loop_
  _space_group_symop_operation_xyz
  'x, y, z'

loop_
  _atom_site_type_symbol
  _atom_site_label
  _atom_site_symmetry_multiplicity
  _atom_site_fract_x
  _atom_site_fract_y
  _atom_site_fract_z
  _atom_site_occupancy
  Li  Li1       1.0  0.1584402934261036  0.08558160005112822  0.1738927389816141  1.0000
  Li  Li2       1.0  0.15843985923289952  0.41441882941129643  0.6738920647611693  1.0000
  Li  Li3       1.0  0.8415597206009054  0.9144191222557795  0.8261072073065563  1.0000
  Li  Li4       1.0  0.8415590495653477  0.585579865648789  0.32610690021062544  1.0000
  H   H1        1.0  0.9042773180178971  0.23928611306536146  0.8182930222507566  1.0000
  H   H2        1.0  0.9042759118990419  0.2607150744354385  0.31829235542857504  1.0000
  H   H3        1.0  0.09572488801380531  0.7607125820072442  0.181710739399449  1.0000
  H   H4        1.0  0.09572301534774402  0.7392856478647546  0.681704756806738  1.0000
  H   H5        1.0  0.012272974563224202  0.32408527414865074  0.9392687000509311  1.0000
  H   H6        1.0  0.012273645787672602  0.17591196836949052  0.4392650630276478  1.0000
  H   H7        1.0  0.987730364363621  0.6759124072991726  0.06073326380013811  1.0000
  H   H8        1.0  0.9877275195787408  0.8240857130648961  0.5607312327176999  1.0000
  H   H9        1.0  0.0635323413765576  0.15571551512054074  0.8925894607222774  1.0000
  H   H10       1.0  0.06352884609047751  0.344285669523849  0.39259268610379655  1.0000
  H   H11       1.0  0.9364721212233038  0.8442821663263658  0.1074116317014813  1.0000
  H   H12       1.0  0.9364678061417493  0.6557160664058657  0.6074089480980405  1.0000
  H   H13       1.0  0.49895202281572193  0.2243549078161635  0.21472215040473228  1.0000
  H   H14       1.0  0.49895015320747416  0.27564521307036227  0.714723707816475  1.0000
  H   H15       1.0  0.501049096438969  0.7756468281156048  0.785278777198009  1.0000
  H   H16       1.0  0.501048737146519  0.7243555092374622  0.285277109898999  1.0000
  H   H17       1.0  0.3929250381514606  0.18820832557416625  0.3471719592891205  1.0000
  H   H18       1.0  0.3929243686129595  0.31179318985171284  0.8471727735675926  1.0000
  H   H19       1.0  0.6070760903264373  0.8117934103556977  0.6528280419435859  1.0000
  H   H20       1.0  0.6070756454151223  0.6882085460771563  0.1528271727223753  1.0000
  H   H21       1.0  0.5397714060563673  0.4336975088542234  0.33038309718585174  1.0000
  H   H22       1.0  0.5397701992349867  0.0663051819684313  0.8303848929155251  1.0000
  H   H23       1.0  0.4602286079727876  0.5663052406966005  0.669616849105914  1.0000
  H   H24       1.0  0.4602286818958064  0.9336955403413044  0.1696168511699909  1.0000
  H   H25       1.0  0.35790783755615513  0.4290652330195712  0.3882588304172145  1.0000
  H   H26       1.0  0.35790774575158935  0.07093741084738528  0.8882616239004691  1.0000
  H   H27       1.0  0.6420910712453107  0.570936502906399  0.6117401345599731  1.0000
  H   H28       1.0  0.6420922590532926  0.9290643250833953  0.1117392487595339  1.0000
  H   H29       1.0  0.3181476167733734  0.581974778942822  0.21250721314132193  1.0000
  H   H30       1.0  0.3181471625349275  0.9180269694171204  0.7125093308346777  1.0000
  H   H31       1.0  0.6818512828048924  0.4180269569850594  0.7874926782059078  1.0000
  H   H32       1.0  0.6818528514942201  0.0819757801337104  0.28749061545708804  1.0000
  H   H33       1.0  0.44239008529002183  0.48824912111818736  0.12183744941976474  1.0000
  H   H34       1.0  0.4423898776201582  0.011749512880506102  0.6218391064702261  1.0000
  H   H35       1.0  0.55760882351251  0.5117536284297444  0.8781615155592278  1.0000
  H   H36       1.0  0.5576112416323938  0.9882501958073394  0.3781618211289271  1.0000
  H   H37       1.0  0.12384207371852093  0.416936636527879  0.1825383850984323  1.0000
  H   H38       1.0  0.12384203521372683  0.0830627605991836  0.6825384425126587  1.0000
  H   H39       1.0  0.8761568258597451  0.5830650993999956  0.8174615062487973  1.0000
  H   H40       1.0  0.8761591117094981  0.9169379617049034  0.3174597059781661  1.0000
  H   H41       1.0  0.2189682691714196  0.3833226934290154  0.04397990005785601  1.0000
  H   H42       1.0  0.21896829248661487  0.11667729397242974  0.5439810031458805  1.0000
  H   H43       1.0  0.7810306304089851  0.6166810697427821  0.9560199912929692  1.0000
  H   H44       1.0  0.7810339596632261  0.8833234283345491  0.45601812665771746  1.0000
  H   H45       1.0  0.614294397915863  0.2552882987711556  0.9943536256603167  1.0000
  H   H46       1.0  0.6142896053999821  0.2447091059000428  0.494353663578238  1.0000
  H   H47       1.0  0.3857112252508799  0.7447103962891577  0.005642889857774896  1.0000
  H   H48       1.0  0.3857048548222012  0.7552895891541739  0.5056441552525683  1.0000
  C   C1        1.0  0.7185942596517876  0.2656588189282659  0.0488580045168803  1.0000
  C   C2        1.0  0.7185956645438268  0.23434096171846625  0.5488577274201774  1.0000
  C   C3        1.0  0.28140240180256637  0.7343419033775832  0.9511427033131242  1.0000
  C   C4        1.0  0.2814043955970362  0.765657733334983  0.45113758701418766  1.0000
  C   C5        1.0  0.7583774127794953  0.38121492885724  0.11381765763385941  1.0000
  C   C6        1.0  0.7583707538506559  0.11878518312466468  0.6138184385465664  1.0000
  C   C7        1.0  0.24162816428089695  0.618792888810255  0.8861834897506214  1.0000
  C   C8        1.0  0.24162701281960616  0.8812054029644829  0.3861832505782203  1.0000
  C   C9        1.0  0.9707690724476876  0.22581429567198097  0.9051919732632571  1.0000
  C   C10       1.0  0.9707665619023802  0.27418431510898245  0.4051931520480565  1.0000
  C   C11       1.0  0.029234266479157604  0.7741833857758353  0.09480999058780532  1.0000
  C   C12       1.0  0.0292301179962351  0.7258143799491209  0.5948057030382615  1.0000
  C   C13       1.0  0.4059501566616319  0.25864071087588775  0.2695985558833414  1.0000
  C   C14       1.0  0.40594932904289033  0.24136151780832907  0.769600046554281  1.0000
  C   C15       1.0  0.5940509718162659  0.7413610250539692  0.730401445349365  1.0000
  C   C16       1.0  0.5940506757619914  0.7586402181224515  0.23040082610572912  1.0000
  C   C17       1.0  0.42322727881244054  0.40636910823410943  0.3075541531824797  1.0000
  C   C18       1.0  0.42322725342087614  0.09363229103077231  0.8075551744765974  1.0000
  C   C19       1.0  0.5767716207668984  0.5936336413157265  0.6924457381665547  1.0000
  C   C20       1.0  0.5767727513840059  0.9063694449000014  0.19244569818341262  1.0000
  C   C21       1.0  0.35815025255386257  0.4798797231821154  0.19190080249033772  1.0000
  C   C22       1.0  0.3581511770247161  0.020121095230116702  0.6919025441921036  1.0000
  C   C23       1.0  0.6418486470254693  0.5201230263677274  0.8080990888586896  1.0000
  C   C24       1.0  0.6418499422299746  0.9798806407016513  0.3080983834106377  1.0000
  C   C25       1.0  0.23110779562018988  0.3872963114918449  0.1457227741998679  1.0000
  C   C26       1.0  0.23110669608784928  0.11270411587103979  0.6457238082427565  1.0000
  C   C27       1.0  0.768892218408965  0.6127064380589788  0.8542771720918979  1.0000
  C   C28       1.0  0.7688944416121686  0.8872966064349511  0.354275266618103  1.0000
  S   S1        1.0  0.8552947903442744  0.1555521505229152  0.01819240208246241  1.0000
  S   S2        1.0  0.8552952397033665  0.344441636805712  0.5181998717836436  1.0000
  S   S3        1.0  0.14470635657466602  0.8444445172933257  0.9818057464011646  1.0000
  S   S4        1.0  0.14470694787551253  0.6555509765389544  0.4818057425958528  1.0000
  N   N1        1.0  0.7975947295773623  0.4778781232241587  0.17132551606455593  1.0000
  N   N2        1.0  0.7975922688084083  0.022118233909331805  0.6713317318844858  1.0000
  N   N3        1.0  0.2024042437790001  0.5221165173347374  0.828666964309754  1.0000
  N   N4        1.0  0.2024010585186318  0.9778814747696674  0.3286678847454638  1.0000
  O   O1        1.0  0.953360279005608  0.13568242798186256  0.1301392374427834  1.0000
  O   O2        1.0  0.9533552718973014  0.3643129904143124  0.6301390919945291  1.0000
  O   O3        1.0  0.046640803350932514  0.8643142398477441  0.8698653956311305  1.0000
  O   O4        1.0  0.0466391975416585  0.6356796229062384  0.36985780045544203  1.0000
  O   O5        1.0  0.7864334724336148  0.033141967276833405  0.9630558027864424  1.0000
  O   O6        1.0  0.7864324835492271  0.46685760622856537  0.4630577203489068  1.0000
  O   O7        1.0  0.21356765604213732  0.9668577414091005  0.0369441984426615  1.0000
  O   O8        1.0  0.21356419635046112  0.5331421024514996  0.5369411347392088  1.0000
  O   O9        1.0  0.26893711671418435  0.25228908752959717  0.1921010784011372  1.0000
  O   O10       1.0  0.2689363117399992  0.24771057761386564  0.6921016652406851  1.0000
  O   O11       1.0  0.7310628973138906  0.7477126483992721  0.8078988678888307  1.0000
  O   O12       1.0  0.7310648259600259  0.7522901446921255  0.3078974096201748  1.0000
