data_image0
_chemical_formula_structural       Cd4H16C24N40
_chemical_formula_sum              "Cd4 H16 C24 N40"
_cell_length_a       8.48079553900239
_cell_length_b       10.220132477151603
_cell_length_c       12.534814331616841
_cell_angle_alpha    100.08546997694127
_cell_angle_beta     90.00008400429599
_cell_angle_gamma    89.99996737777792

_space_group_name_H-M_alt    "P 1"
_space_group_IT_number       1

loop_
  _space_group_symop_operation_xyz
  'x, y, z'

loop_
  _atom_site_type_symbol
  _atom_site_label
  _atom_site_symmetry_multiplicity
  _atom_site_fract_x
  _atom_site_fract_y
  _atom_site_fract_z
  _atom_site_occupancy
  Cd  Cd1       1.0  0.9319851915785335  0.49800584971755046  0.795529382655545  1.0000
  Cd  Cd2       1.0  0.43198500028753983  0.001994027016117199  0.7044713165107198  1.0000
  Cd  Cd3       1.0  0.06801489473389213  0.5019951726430704  0.20447072547087697  1.0000
  Cd  Cd4       1.0  0.5680139068903998  0.9980060015366802  0.2955286461822554  1.0000
  H   H1        1.0  0.7778390084680852  0.5052697193086999  0.5514996967480814  1.0000
  H   H2        1.0  0.277836649002694  0.9947298793370505  0.948501158237683  1.0000
  H   H3        1.0  0.22216225697937383  0.4947293154358051  0.4485001205131456  1.0000
  H   H4        1.0  0.7221598999059253  0.005270149216066498  0.051498804454169524  1.0000
  H   H5        1.0  0.9290100148460142  0.4063181669158168  0.5633007602153202  1.0000
  H   H6        1.0  0.429007905235011  0.0936827044206296  0.9367000815431584  1.0000
  H   H7        1.0  0.07099125060212688  0.5936818572304075  0.43669999961989003  1.0000
  H   H8        1.0  0.5709910019439804  0.9063163259179345  0.06330053285804377  1.0000
  H   H9        1.0  0.7087152151827284  0.40620633310824394  0.001983657371205472  1.0000
  H   H10       1.0  0.20871205914935595  0.09378915109044066  0.4980162673114493  1.0000
  H   H11       1.0  0.29128722939994844  0.5937897202121646  0.9980157235919339  1.0000
  H   H12       1.0  0.7912844897606705  0.9062078916324766  0.5019840562228597  1.0000
  H   H13       1.0  0.80622275868091  0.22698908440823828  0.11284477200062784  1.0000
  H   H14       1.0  0.30622277689720784  0.2730123321914916  0.3871569154910974  1.0000
  H   H15       1.0  0.19377614849598504  0.773011942358799  0.8871545389841277  1.0000
  H   H16       1.0  0.6937749511462529  0.7269867025534892  0.6128429017684314  1.0000
  C   C1        1.0  0.6724849638174107  0.3478191021398656  0.9249740299983887  1.0000
  C   C2        1.0  0.1724843890645644  0.15217984568117515  0.5750270731877196  1.0000
  C   C3        1.0  0.32751512249642906  0.6521789343905624  0.07502643897048963  1.0000
  C   C4        1.0  0.8275145181152936  0.8478191802511288  0.42497433835458054  1.0000
  C   C5        1.0  0.6482913202945113  0.2776721572631616  0.756365830670177  1.0000
  C   C6        1.0  0.14829459990868088  0.22232780404522148  0.7436330034349583  1.0000
  C   C7        1.0  0.35170876601760176  0.7223258880797799  0.24363304401649805  1.0000
  C   C8        1.0  0.85170784467239  0.7776722289133672  0.256366162118603  1.0000
  C   C9        1.0  0.6554190719539079  0.25040739551711505  0.6393105251171181  1.0000
  C   C10       1.0  0.15541904893630232  0.24959255948192538  0.8606891129308497  1.0000
  C   C11       1.0  0.34458219349268393  0.749591643633643  0.3606884950029966  1.0000
  C   C12       1.0  0.8445798582414596  0.7504084628788517  0.13931099519501092  1.0000
  C   C13       1.0  0.6952842482636541  0.2525277868123155  0.46677254511591587  1.0000
  C   C14       1.0  0.19527762187232872  0.24747766549101868  0.03322403822767231  1.0000
  C   C15       1.0  0.3047146589160192  0.7474722329279686  0.5332290118592697  1.0000
  C   C16       1.0  0.8047177478968736  0.7525293373431338  0.9667737539293815  1.0000
  C   C17       1.0  0.7506032309379479  0.28511322853677956  0.36619266659943167  1.0000
  C   C18       1.0  0.2506003821495923  0.21488820732321287  0.13380817066201445  1.0000
  C   C19       1.0  0.24940157191072382  0.7148868132340027  0.6338049046730492  1.0000
  C   C20       1.0  0.7493973458952325  0.7851128062252072  0.8661935317454951  1.0000
  C   C21       1.0  0.7987259020091672  0.2630229528574333  0.19956070183212665  1.0000
  C   C22       1.0  0.2987245780426235  0.23697847455708398  0.3004393842211429  1.0000
  C   C23       1.0  0.20127300516909233  0.7369800527130436  0.8004404943006097  1.0000
  C   C24       1.0  0.7012743291349538  0.7630235416116731  0.6995608693376029  1.0000
  N   N1        1.0  0.7218045153163999  0.3734238879277853  0.8277181460360767  1.0000
  N   N2        1.0  0.2218053478972806  0.12657505553441684  0.6722814099431037  1.0000
  N   N3        1.0  0.27819675013142137  0.6265731592007666  0.1722813803593795  1.0000
  N   N4        1.0  0.7781947384155076  0.873423979210244  0.32771840731755475  1.0000
  N   N5        1.0  0.5751037949451218  0.24337737307003943  0.9155338634251965  1.0000
  N   N6        1.0  0.0751043480467004  0.2566206113555295  0.584466204238929  1.0000
  N   N7        1.0  0.42489629136766643  0.7566216616746215  0.08446595383546199  1.0000
  N   N8        1.0  0.9248957382671393  0.7433774251748914  0.41553426472994914  1.0000
  N   N9        1.0  0.5594436053267557  0.1989158482128061  0.807102271616863  1.0000
  N   N10       1.0  0.05944672098188161  0.30108413682307855  0.6928964776846841  1.0000
  N   N11       1.0  0.44055530185050884  0.8010831909382713  0.19289674850212893  1.0000
  N   N12       1.0  0.9405545444652007  0.6989168855373862  0.3071036304423061  1.0000
  N   N13       1.0  0.8189896994744572  0.4360406255939536  0.5945268705594489  1.0000
  N   N14       1.0  0.3189875426513566  0.06396027512428047  0.9054738661866469  1.0000
  N   N15       1.0  0.1810115659736766  0.5639593985522706  0.40547388927576133  1.0000
  N   N16       1.0  0.6810113645264054  0.9360407472364968  0.0945262419392137  1.0000
  N   N17       1.0  0.7235953578111777  0.3227141350550228  0.5686932060333236  1.0000
  N   N18       1.0  0.2235919999743601  0.17728579733119426  0.9313072942271677  1.0000
  N   N19       1.0  0.276408265903008  0.677284912907943  0.43130421980571054  1.0000
  N   N20       1.0  0.7764057280704649  0.8227152162172187  0.0686944081803347  1.0000
  N   N21       1.0  0.5873086915523942  0.14288463439984866  0.5823166220419298  1.0000
  N   N22       1.0  0.0873063598519153  0.35711335557921586  0.9176818629879623  1.0000
  N   N23       1.0  0.4126937530273125  0.8571134197552933  0.41768065836365065  1.0000
  N   N24       1.0  0.9126925473262092  0.6428856791656087  0.08231795427213481  1.0000
  N   N25       1.0  0.6111754389929162  0.14500941118617305  0.47466240633235685  1.0000
  N   N26       1.0  0.1111710799544596  0.35498809108364776  0.025336918974467396  1.0000
  N   N27       1.0  0.38882818472195885  0.8549906261785125  0.5253359620806679  1.0000
  N   N28       1.0  0.8888266480900527  0.6450099454470929  0.9746635499932882  1.0000
  N   N29       1.0  0.7264155680235193  0.199752578958126  0.2712004242272813  1.0000
  N   N30       1.0  0.22641404546673982  0.3002458775310046  0.22880075079056186  1.0000
  N   N31       1.0  0.27358687655773656  0.8002464601924825  0.7287985958933947  1.0000
  N   N32       1.0  0.7735848617120668  0.6997541466155396  0.7712000090435185  1.0000
  N   N33       1.0  0.8317123178529401  0.39478648315046166  0.3555043883502124  1.0000
  N   N34       1.0  0.33170838839309624  0.10521492664260275  0.14449732346894714  1.0000
  N   N35       1.0  0.16829248499814042  0.6052145392095267  0.644495719778462  1.0000
  N   N36       1.0  0.6682893396517287  0.8947860869058174  0.8555043789385626  1.0000
  N   N37       1.0  0.8618968741050352  0.3796063979738093  0.24723966554682875  1.0000
  N   N38       1.0  0.3618978852153276  0.1203960063780656  0.2527606262359613  1.0000
  N   N39       1.0  0.1381020330714904  0.6203966164091808  0.7527599363036901  1.0000
  N   N40       1.0  0.6381022010962312  0.8796050203888084  0.7472386847493555  1.0000
