data_image0
_chemical_formula_structural       Mn2H24C36N4Cl8O12
_chemical_formula_sum              "Mn2 H24 C36 N4 Cl8 O12"
_cell_length_a       8.527266215744092
_cell_length_b       8.520670309876536
_cell_length_c       14.573172175629313
_cell_angle_alpha    104.25636299169811
_cell_angle_beta     106.77961276074139
_cell_angle_gamma    94.81012625750895

_space_group_name_H-M_alt    "P 1"
_space_group_IT_number       1

loop_
  _space_group_symop_operation_xyz
  'x, y, z'

loop_
  _atom_site_type_symbol
  _atom_site_label
  _atom_site_symmetry_multiplicity
  _atom_site_fract_x
  _atom_site_fract_y
  _atom_site_fract_z
  _atom_site_occupancy
  Mn  Mn1       1.0  0.2709666400290232  0.020818885007230403  0.2500330353078013  1.0000
  Mn  Mn2       1.0  0.729034275293003  0.979179066020464  0.7499663780630286  1.0000
  H   H1        1.0  0.9024869086275018  0.9812592765849076  0.2428342791598439  1.0000
  H   H2        1.0  0.23824319319874826  0.658684038315634  0.2568440158680474  1.0000
  H   H3        1.0  0.0975115613675257  0.018738634164662905  0.7571674631441851  1.0000
  H   H4        1.0  0.7617530125304127  0.34131509827700046  0.7431547814412197  1.0000
  H   H5        1.0  0.6775448356663959  0.7726828478181248  0.24085309615316677  1.0000
  H   H6        1.0  0.031112482228955705  0.435429658570186  0.2580502451899563  1.0000
  H   H7        1.0  0.32245033832044356  0.22731751099088635  0.7591450208659297  1.0000
  H   H8        1.0  0.9688806322172568  0.564573135165283  0.7419478829172874  1.0000
  H   H9        1.0  0.8181084884108074  0.24880934627212536  0.1919378484940282  1.0000
  H   H10       1.0  0.5570958420354799  0.6259427283036345  0.30692794589718636  1.0000
  H   H11       1.0  0.1818893038480454  0.7511995865695622  0.80806676578829  1.0000
  H   H12       1.0  0.44289727438274434  0.374060060678687  0.6930708680442947  1.0000
  H   H13       1.0  0.6001377739185259  0.043007958144293895  0.19867699277018144  1.0000
  H   H14       1.0  0.3449882020799038  0.40176560772935943  0.30120645133271756  1.0000
  H   H15       1.0  0.3998612826440961  0.9569936463995603  0.80132401610323  1.0000
  H   H16       1.0  0.6550059460806426  0.598235959036586  0.6987930428989344  1.0000
  H   H17       1.0  0.3885182624391064  0.07180212781940302  0.4395186365899377  1.0000
  H   H18       1.0  0.13219031268311454  0.9489029382312566  0.06057409833204028  1.0000
  H   H19       1.0  0.6114771182449843  0.9281994353198542  0.5604831223463124  1.0000
  H   H20       1.0  0.8678194214529853  0.051088981144332  0.9394224797528706  1.0000
  H   H21       1.0  0.5497700564022452  0.0268313689361008  0.4119845745812682  1.0000
  H   H22       1.0  0.11518571923805607  0.13788039017744314  0.08805673311962889  1.0000
  H   H23       1.0  0.45022816919927783  0.9731726764138315  0.5880173384163998  1.0000
  H   H24       1.0  0.8848242215953022  0.8621127335283916  0.9119434868824356  1.0000
  C   C1        1.0  0.9247097859828984  0.8583419364273085  0.24586880813355091  1.0000
  C   C2        1.0  0.11238365946469743  0.6780522100647631  0.25367154714214024  1.0000
  C   C3        1.0  0.0752890717705128  0.1416584447736966  0.7541313021596635  1.0000
  C   C4        1.0  0.8876143653556028  0.3219506166954673  0.7463287814411004  1.0000
  C   C5        1.0  0.8007434594164164  0.7418558604077035  0.2459117910176332  1.0000
  C   C6        1.0  0.9955715262313518  0.5538396754592514  0.2531336905789844  1.0000
  C   C7        1.0  0.19924764698949105  0.2581419960515844  0.7540873364066414  1.0000
  C   C8        1.0  0.004421832608365204  0.4461569836758699  0.7468642668346206  1.0000
  C   C9        1.0  0.8350441293664093  0.5847393190051378  0.2493967760918494  1.0000
  C   C10       1.0  0.16495103870440184  0.415261054063329  0.7505992834245276  1.0000
  C   C11       1.0  0.7073149165738855  0.4570400645546258  0.24939855752284507  1.0000
  C   C12       1.0  0.2926792335586655  0.5429614974581726  0.7506016225430445  1.0000
  C   C13       1.0  0.7181148689345065  0.2896868786857  0.21937152157826736  1.0000
  C   C14       1.0  0.5703719676690328  0.4983664541227241  0.2796711615829537  1.0000
  C   C15       1.0  0.28188354561618206  0.7103184137728179  0.7806278608283892  1.0000
  C   C16       1.0  0.429628703259489  0.5016376315053249  0.7203284224815151  1.0000
  C   C17       1.0  0.5959112542617718  0.17379661816517003  0.2216726170266128  1.0000
  C   C18       1.0  0.45243228771271765  0.3741578248565958  0.2779322802523296  1.0000
  C   C19       1.0  0.40408657569333434  0.8262049757459238  0.7783281846449129  1.0000
  C   C20       1.0  0.547561273880227  0.625840048115073  0.722067947409947  1.0000
  C   C21       1.0  0.414097858097051  0.6262630321671877  0.03267994044362869  1.0000
  C   C22       1.0  0.09349664646090622  0.38133400747520346  0.46728454025290495  1.0000
  C   C23       1.0  0.585915909867751  0.37373871898243033  0.9673208115153713  1.0000
  C   C24       1.0  0.9064934282026799  0.6186650712004607  0.5327139068811988  1.0000
  C   C25       1.0  0.5601456923496285  0.663047785547086  0.010852415911749324  1.0000
  C   C26       1.0  0.152256530598919  0.5493086199190884  0.48929785662642183  1.0000
  C   C27       1.0  0.4398666600584846  0.3369527078611796  0.9891506594363833  1.0000
  C   C28       1.0  0.8477392457315887  0.4506953946590145  0.5107050136359632  1.0000
  C   C29       1.0  0.3543789264952295  0.4620820395180375  0.02109879743108686  1.0000
  C   C30       1.0  0.9408769343017553  0.33318336908340035  0.4787420082425982  1.0000
  C   C31       1.0  0.6456342509579543  0.5379160273436058  0.9789013162900561  1.0000
  C   C32       1.0  0.059124776257128496  0.6668194753156697  0.5212609994489981  1.0000
  C   C33       1.0  0.32378258318664893  0.7618798690829324  0.07028158042038515  1.0000
  C   C34       1.0  0.19154160474862894  0.2534771301447805  0.4296716988558558  1.0000
  C   C35       1.0  0.6762219505975722  0.2381255098114536  0.9297140371559963  1.0000
  C   C36       1.0  0.8084528035814883  0.7465182639956184  0.5703331113560779  1.0000
  N   N1        1.0  0.07859896200582743  0.8282457462698147  0.24990826702195085  1.0000
  N   N2        1.0  0.9214009196018652  0.1717534317274101  0.7500897802244708  1.0000
  N   N3        1.0  0.4640803696352478  0.21389315308038453  0.2499687436115821  1.0000
  N   N4        1.0  0.5359160427911647  0.7861071878424964  0.7500336956148317  1.0000
  Cl  Cl1       1.0  0.6348511756873023  0.8636457957613644  0.02312046051159912  1.0000
  Cl  Cl2       1.0  0.3403560401079844  0.6117422782026694  0.4768766760735162  1.0000
  Cl  Cl3       1.0  0.36516376541268863  0.1363633429768214  0.9768788245861515  1.0000
  Cl  Cl4       1.0  0.6596454775577104  0.38825932859411705  0.5231274905406096  1.0000
  Cl  Cl5       1.0  0.17156105813895553  0.4146240855527097  0.04438088456765853  1.0000
  Cl  Cl6       1.0  0.8700894636831794  0.12697257152112232  0.4552601596201172  1.0000
  Cl  Cl7       1.0  0.8284465728442427  0.5853776219393936  0.9556174597134586  1.0000
  Cl  Cl8       1.0  0.12990571621968883  0.873027773028447  0.5447400149016985  1.0000
  O   O1        1.0  0.3763078013936152  0.828158252987258  0.1646063772414053  1.0000
  O   O2        1.0  0.16346723659103904  0.21154305457329767  0.33532449715985996  1.0000
  O   O3        1.0  0.6236967976949828  0.1718397204324376  0.8353950294035428  1.0000
  O   O4        1.0  0.8365341199617049  0.7884499899500454  0.6646749582632907  1.0000
  O   O5        1.0  0.20727018847933465  0.7962765688379392  0.0064457907999866506  1.0000
  O   O6        1.0  0.28999387004954263  0.2010768670575303  0.49357437945322147  1.0000
  O   O7        1.0  0.7927401223643216  0.20371906809768356  0.9935466246831055  1.0000
  O   O8        1.0  0.7100004729761977  0.798925932557559  0.5064246416901385  1.0000
  O   O9        1.0  0.42983405811840203  0.9922419212065707  0.3909955077973564  1.0000
  O   O10       1.0  0.10134772403548448  0.03890166027657219  0.1091077234840228  1.0000
  O   O11       1.0  0.5701645988537862  0.007757241404746702  0.6090030180814239  1.0000
  O   O12       1.0  0.8986624136350727  0.9610926915252593  0.8908927092639942  1.0000
