data_image0
_chemical_formula_structural       Co2P2H12C12N2O6
_chemical_formula_sum              "Co2 P2 H12 C12 N2 O6"
_cell_length_a       5.061914872181047
_cell_length_b       8.429240402324664
_cell_length_c       8.682597808650184
_cell_angle_alpha    75.20693963112363
_cell_angle_beta     86.10060052750929
_cell_angle_gamma    86.46458325668455

_space_group_name_H-M_alt    "P 1"
_space_group_IT_number       1

loop_
  _space_group_symop_operation_xyz
  'x, y, z'

loop_
  _atom_site_type_symbol
  _atom_site_label
  _atom_site_symmetry_multiplicity
  _atom_site_fract_x
  _atom_site_fract_y
  _atom_site_fract_z
  _atom_site_occupancy
  Co  Co1       1.0  0.7156277532491514  0.8693354114897289  0.6569540416322894  1.0000
  Co  Co2       1.0  0.2843735786971208  0.13066055480274494  0.34304699516926723  1.0000
  P   P1        1.0  0.22692153227815476  0.03896930004622591  0.7235316716910702  1.0000
  P   P2        1.0  0.7730755592576557  0.9610290535271488  0.27646778321149423  1.0000
  H   H1        1.0  0.2169274792448235  0.1010124497312646  0.9802439556965016  1.0000
  H   H2        1.0  0.7830676530201046  0.8989858737722186  0.019754422220757004  1.0000
  H   H3        1.0  0.496778163693449  0.17703650744056892  0.8529467152444212  1.0000
  H   H4        1.0  0.503221293422179  0.8229581691852489  0.14705815293114455  1.0000
  H   H5        1.0  0.4292712227663457  0.432155110278572  0.618543172437093  1.0000
  H   H6        1.0  0.5707344000332597  0.567837193186712  0.3814666632428185  1.0000
  H   H7        1.0  0.1952523453905215  0.7078190707735672  0.5447446495990677  1.0000
  H   H8        1.0  0.804762194257293  0.2921833641181948  0.4552451558531843  1.0000
  H   H9        1.0  0.6030580022688595  0.562374501400754  0.8975949655410889  1.0000
  H   H10       1.0  0.3969469099050116  0.4376252639480072  0.10239927170327695  1.0000
  H   H11       1.0  0.8149704208862899  0.2813502351728587  0.988448444272898  1.0000
  H   H12       1.0  0.18502452494626448  0.7186493000788232  0.011551951145207795  1.0000
  C   C1        1.0  0.2805318823583747  0.1668776905041227  0.8584483736446629  1.0000
  C   C2        1.0  0.7194671684483253  0.8331206931391435  0.1415521582432079  1.0000
  C   C3        1.0  0.14275173660326604  0.33254485520158283  0.8100740386461638  1.0000
  C   C4        1.0  0.8572522434087588  0.6674609688881362  0.18993028610243107  1.0000
  C   C5        1.0  0.24630535576776677  0.45633123116952856  0.6836244246028969  1.0000
  C   C6        1.0  0.7536957047527011  0.5436659069973188  0.3163844012496355  1.0000
  C   C7        1.0  0.11707849505957313  0.6097510587714012  0.641964953126042  1.0000
  C   C8        1.0  0.8829298443537111  0.3902524338607734  0.3580328733513554  1.0000
  C   C9        1.0  0.7866418303553928  0.5272029909277689  0.8394867503763026  1.0000
  C   C10       1.0  0.21336644161632282  0.4728017692759395  0.16050501343175946  1.0000
  C   C11       1.0  0.9047608636914574  0.37076210938413817  0.8876558455432288  1.0000
  C   C12       1.0  0.09523950264878071  0.6292411991703659  0.11234690747317445  1.0000
  N   N1        1.0  0.8902307602280358  0.6461368034301457  0.7200826880469153  1.0000
  N   N2        1.0  0.10976611143121319  0.353864045412486  0.27991041306710684  1.0000
  O   O1        1.0  0.38031328371325657  0.8718369852255139  0.7844816619832856  1.0000
  O   O2        1.0  0.6196833335188855  0.12816504346626093  0.21551807387168512  1.0000
  O   O3        1.0  0.9257688566579745  0.0217197375409626  0.7245213187528848  1.0000
  O   O4        1.0  0.07423078689002699  0.9782737273366635  0.2754815319218339  1.0000
  O   O5        1.0  0.34790101915329785  0.1321025505852376  0.5599595682936285  1.0000
  O   O6        1.0  0.6520794320561834  0.8679016052204532  0.44004366685078383  1.0000
