data_image0
_chemical_formula_structural       Ag4H60C52S12O12
_chemical_formula_sum              "Ag4 H60 C52 S12 O12"
_cell_length_a       8.315342075643143
_cell_length_b       8.828438213217746
_cell_length_c       21.211276977017416
_cell_angle_alpha    90.00009441087714
_cell_angle_beta     90.00007108453849
_cell_angle_gamma    110.87617700565427

_space_group_name_H-M_alt    "P 1"
_space_group_IT_number       1

loop_
  _space_group_symop_operation_xyz
  'x, y, z'

loop_
  _atom_site_type_symbol
  _atom_site_label
  _atom_site_symmetry_multiplicity
  _atom_site_fract_x
  _atom_site_fract_y
  _atom_site_fract_z
  _atom_site_occupancy
  Ag  Ag1       1.0  0.8111519939216052  0.4545422673625978  0.4841569642725786  1.0000
  Ag  Ag2       1.0  0.1888493041560793  0.0454605828507226  0.984157687565627  1.0000
  Ag  Ag3       1.0  0.18884909932820193  0.5454588384417531  0.515842820229494  1.0000
  Ag  Ag4       1.0  0.8111514968605751  0.9545429445825776  0.015843982726543998  1.0000
  H   H1        1.0  0.0073913853030234235  0.14270247242738074  0.5007732956074661  1.0000
  H   H2        1.0  0.9926106413496356  0.35730002494745605  0.0007716505579224998  1.0000
  H   H3        1.0  0.9926082120076457  0.8573010520636115  0.4992283746844065  1.0000
  H   H4        1.0  0.007393315043529573  0.642702299021728  0.999227191050586  1.0000
  H   H5        1.0  0.8966512083054211  0.03858053944620819  0.5697914791368816  1.0000
  H   H6        1.0  0.10335301112822753  0.46142720446008667  0.0697894751021479  1.0000
  H   H7        1.0  0.10334884473787306  0.9614241973263302  0.4302097197081806  1.0000
  H   H8        1.0  0.8966539719039872  0.5385799715803471  0.9302084236140896  1.0000
  H   H9        1.0  0.5903191909996864  0.011050472889543498  0.6018474571012858  1.0000
  H   H10       1.0  0.4096833772803521  0.48895260646524724  0.10184703454674347  1.0000
  H   H11       1.0  0.40968206574834193  0.9889542668239525  0.3981532702967385  1.0000
  H   H12       1.0  0.5903201233814457  0.5110485052237337  0.8981527499559048  1.0000
  H   H13       1.0  0.4848073350659945  0.14062130415115348  0.5709709756931218  1.0000
  H   H14       1.0  0.51519506775675  0.3593815974193717  0.07097051534950079  1.0000
  H   H15       1.0  0.515192717976035  0.859383432620035  0.4290297517046042  1.0000
  H   H16       1.0  0.4848051140252708  0.6406170838191584  0.9290292691515131  1.0000
  H   H17       1.0  0.6716702297838852  0.22625002786934797  0.6192981736763699  1.0000
  H   H18       1.0  0.3283312283012024  0.2737531490209832  0.1192970927245298  1.0000
  H   H19       1.0  0.3283310269628784  0.773754711842791  0.38070208227431823  1.0000
  H   H20       1.0  0.6716718166241762  0.7262467503823726  0.8807017488829273  1.0000
  H   H21       1.0  0.27896849850362326  0.22326248624408854  0.5728977594753031  1.0000
  H   H22       1.0  0.721035574082883  0.27674164164468346  0.07289687063603617  1.0000
  H   H23       1.0  0.7210306430756718  0.7767398259667001  0.4271048537107162  1.0000
  H   H24       1.0  0.2789700417552225  0.7232618975551542  0.9271038567626274  1.0000
  H   H25       1.0  0.31648657307471945  0.3602479602020026  0.6377930126167398  1.0000
  H   H26       1.0  0.6835166435583987  0.13975653840549276  0.13779201167895386  1.0000
  H   H27       1.0  0.6835113647960611  0.6397543490637573  0.3622086576743158  1.0000
  H   H28       1.0  0.31648942801233915  0.8602482130758984  0.8622082442729065  1.0000
  H   H29       1.0  0.16886910817660086  0.15505911034150438  0.6473255716493893  1.0000
  H   H30       1.0  0.8311350710080704  0.3449478677214514  0.14732525431687543  1.0000
  H   H31       1.0  0.8311309448692228  0.8449456264337484  0.3526765700903453  1.0000
  H   H32       1.0  0.16886904888709617  0.6550580901609421  0.8526759445295936  1.0000
  H   H33       1.0  0.9832773742582644  0.7183525890541347  0.5917413781994936  1.0000
  H   H34       1.0  0.01672134997073734  0.7816435695662064  0.09174015184632367  1.0000
  H   H35       1.0  0.016718121438508093  0.2816400248811276  0.40825699195630694  1.0000
  H   H36       1.0  0.9832801990079149  0.21835874851563367  0.90825774686693  1.0000
  H   H37       1.0  0.28837174243003016  0.8177321682780273  0.6225800286280502  1.0000
  H   H38       1.0  0.7116261068425871  0.6822677988721748  0.12257859900324765  1.0000
  H   H39       1.0  0.7116278201173573  0.18226166676573285  0.37741787008181393  1.0000
  H   H40       1.0  0.2883710830447229  0.31773571972197345  0.8774188282620299  1.0000
  H   H41       1.0  0.38485950460955115  0.9780291241936465  0.72176508304004  1.0000
  H   H42       1.0  0.6151385839279444  0.5219738356814572  0.2217644396856713  1.0000
  H   H43       1.0  0.6151409694030932  0.0219671354132274  0.2782318727762103  1.0000
  H   H44       1.0  0.3848602653992543  0.4780308981379162  0.7782329875804164  1.0000
  H   H45       1.0  0.16861523550814184  0.025230075573375598  0.792370071223189  1.0000
  H   H46       1.0  0.8313856540681852  0.47477651652982894  0.29236842870312063  1.0000
  H   H47       1.0  0.8313917127721596  0.9747674110320476  0.20762829893704543  1.0000
  H   H48       1.0  0.16860912840714096  0.5252269961796897  0.7076289985615671  1.0000
  H   H49       1.0  0.8704635082580481  0.982280660884754  0.8190540169295203  1.0000
  H   H50       1.0  0.12953207497878336  0.5177180070984801  0.3190536070784161  1.0000
  H   H51       1.0  0.1295446437320322  0.017716828667055  0.18094576757302147  1.0000
  H   H52       1.0  0.8704583136532875  0.4822770166883359  0.6809438201822997  1.0000
  H   H53       1.0  0.5614390451609594  0.8747316027129414  0.7924213738765147  1.0000
  H   H54       1.0  0.4385569798358021  0.625262068674047  0.2924207158941741  1.0000
  H   H55       1.0  0.4385645842534558  0.12526345345695938  0.20758218220277055  1.0000
  H   H56       1.0  0.5614359449583474  0.37472690547559034  0.7075795400490887  1.0000
  H   H57       1.0  0.4642491692845638  0.7301102909122577  0.6896679397919099  1.0000
  H   H58       1.0  0.5357470530631689  0.7698815794903595  0.18966789947162246  1.0000
  H   H59       1.0  0.5357513047419787  0.269885968709545  0.31033420194501815  1.0000
  H   H60       1.0  0.4642501020798094  0.23011224967691393  0.8103328279216696  1.0000
  C   C1        1.0  0.9288263242344998  0.14952708750850968  0.5414646118491433  1.0000
  C   C2        1.0  0.07117878361710693  0.35047686233242087  0.04146345905211749  1.0000
  C   C3        1.0  0.07117402104447736  0.8504752276378013  0.45853564410048614  1.0000
  C   C4        1.0  0.9288268322172043  0.6495266768633384  0.9585358540045446  1.0000
  C   C5        1.0  0.6087881469951667  0.13298518615238913  0.5843129626542519  1.0000
  C   C6        1.0  0.39121598676275937  0.367019007465231  0.08431244754288508  1.0000
  C   C7        1.0  0.3912131097515967  0.8670195535597499  0.4156872932964361  1.0000
  C   C8        1.0  0.6087875138990384  0.6329821042237497  0.91568733695977  1.0000
  C   C9        1.0  0.22098715484141715  0.2564316564832083  0.6145223134603625  1.0000
  C   C10       1.0  0.7790175965316736  0.2435739233591434  0.1145214299376889  1.0000
  C   C11       1.0  0.7790124424705169  0.743571868009134  0.38547982827884647  1.0000
  C   C12       1.0  0.22098772706696937  0.7564320374628508  0.8854788260143991  1.0000
  C   C13       1.0  0.7172048704300097  0.756814680761302  0.6597570340013091  1.0000
  C   C14       1.0  0.2827875805151194  0.7431770085881623  0.15975638149223667  1.0000
  C   C15       1.0  0.282790625276867  0.2431779331848246  0.3402451077331676  1.0000
  C   C16       1.0  0.7172092823871237  0.2568192421999171  0.8402434030071433  1.0000
  C   C17       1.0  0.8969509775007011  0.8136243138570691  0.6741725421361905  1.0000
  C   C18       1.0  0.10304246216124112  0.6863698830624827  0.17417223512243396  1.0000
  C   C19       1.0  0.10304812932036361  0.18636830891191639  0.32582818525715135  1.0000
  C   C20       1.0  0.8969527413011207  0.3136251525003644  0.8258275493761287  1.0000
  C   C21       1.0  0.02358334832569405  0.7874985268569218  0.6351553403945756  1.0000
  C   C22       1.0  0.976414112603031  0.7125003004210839  0.1351550025515635  1.0000
  C   C23       1.0  0.9764257151321729  0.21250138726070839  0.3648444441090105  1.0000
  C   C24       1.0  0.023580962115552526  0.28750079067035017  0.8648443105017091  1.0000
  C   C25       1.0  0.19462095586888495  0.842777765754164  0.652756886986367  1.0000
  C   C26       1.0  0.8053796260196154  0.6572260149429566  0.15275548556231658  1.0000
  C   C27       1.0  0.8053757435389315  0.15721485112884173  0.347243368959063  1.0000
  C   C28       1.0  0.19462403813029286  0.34277873064430514  0.8472414702576145  1.0000
  C   C29       1.0  0.2486694234326095  0.9309099439903932  0.709357954414692  1.0000
  C   C30       1.0  0.7513314617677267  0.5690941626160465  0.20935835218320156  1.0000
  C   C31       1.0  0.7513360288984359  0.06908996129079982  0.29063852995667355  1.0000
  C   C32       1.0  0.2486661838509505  0.43091056825829804  0.7906381321879292  1.0000
  C   C33       1.0  0.12915352217621753  0.957706918576278  0.7484965495270683  1.0000
  C   C34       1.0  0.8708459133130191  0.5422961981590433  0.24849604386797347  1.0000
  C   C35       1.0  0.8708424292569745  0.0422869076446091  0.2515027635239234  1.0000
  C   C36       1.0  0.12915563566689062  0.457706119924154  0.7515023262926162  1.0000
  C   C37       1.0  0.9513928561726388  0.8983019947677274  0.7328550484586884  1.0000
  C   C38       1.0  0.04860014997902342  0.6016937493824343  0.2328551284742986  1.0000
  C   C39       1.0  0.0486109367273571  0.10169669529773978  0.2671447360432069  1.0000
  C   C40       1.0  0.9513953457190139  0.3982988645541923  0.7671437131288312  1.0000
  C   C41       1.0  0.8276462476308167  0.9196383750144006  0.7745290844418377  1.0000
  C   C42       1.0  0.17235361959833992  0.5803624699923587  0.2745292097209243  1.0000
  C   C43       1.0  0.1723604084213761  0.08036153322539259  0.22547305729784028  1.0000
  C   C44       1.0  0.827642039601699  0.4196337778574843  0.7254719891201729  1.0000
  C   C45       1.0  0.6552949425273484  0.8593610720098039  0.7596161999691587  1.0000
  C   C46       1.0  0.3447033140888678  0.6406324163723055  0.25961550710279363  1.0000
  C   C47       1.0  0.3447053680022378  0.14063155370421038  0.24038547031915403  1.0000
  C   C48       1.0  0.6552974521670407  0.35936142161648366  0.7403833345020344  1.0000
  C   C49       1.0  0.6001740265395907  0.7775764279921658  0.7019713500583646  1.0000
  C   C50       1.0  0.39982167726276446  0.7224203565005426  0.20197168285027087  1.0000
  C   C51       1.0  0.3998264474882092  0.22241983163098664  0.29803126312589967  1.0000
  C   C52       1.0  0.6001739819360097  0.2775758913479364  0.7980290445434832  1.0000
  S   S1        1.0  0.732891793940503  0.16477751742301186  0.512622364610614  1.0000
  S   S2        1.0  0.2671107519454949  0.33522626046504195  0.012622239079256296  1.0000
  S   S3        1.0  0.2671085513384739  0.835224797723306  0.48737789133902226  1.0000
  S   S4        1.0  0.7328936601853543  0.6647772757911239  0.9873780168717801  1.0000
  S   S5        1.0  0.04979558371419301  0.32309492928624906  0.5892956194492172  1.0000
  S   S6        1.0  0.9502106919196223  0.17691172053098814  0.08929571596110007  1.0000
  S   S7        1.0  0.9502056730351  0.6769098104286044  0.41070557939613644  1.0000
  S   S8        1.0  0.04979537965238023  0.8230930309517602  0.9107050114380894  1.0000
  S   S9        1.0  0.635991437474715  0.6600627772223719  0.5861362368075118  1.0000
  S   S10       1.0  0.3640078759533196  0.8399381953194051  0.08613710430088867  1.0000
  S   S11       1.0  0.3640084520728948  0.33993832564374316  0.41386496203626405  1.0000
  S   S12       1.0  0.6359896061810348  0.16006290166072287  0.9138636230949684  1.0000
  O   O1        1.0  0.6833779344032179  0.5137482767159226  0.5834536627704949  1.0000
  O   O2        1.0  0.3166159306014651  0.9862478224268897  0.08345649345343278  1.0000
  O   O3        1.0  0.3166174325535637  0.4862503927519981  0.41654565028201757  1.0000
  O   O4        1.0  0.6833794363654276  0.013750847051888098  0.9165465911777556  1.0000
  O   O5        1.0  0.7206805017487312  0.7787510370638696  0.5369035242648577  1.0000
  O   O6        1.0  0.27932381840943077  0.7212508760465183  0.03690238358942109  1.0000
  O   O7        1.0  0.27932075500434916  0.221253702655055  0.4630990889225045  1.0000
  O   O8        1.0  0.720673500229232  0.278746587027193  0.9630983438051498  1.0000
  O   O9        1.0  0.4490570437653787  0.622126226335915  0.5895942447639795  1.0000
  O   O10       1.0  0.5509395885444022  0.8778771818573644  0.08959570019449357  1.0000
  O   O11       1.0  0.5509408941016147  0.3778760829257734  0.4104060111850742  1.0000
  O   O12       1.0  0.44905639764449023  0.12212633380261198  0.9104045557544962  1.0000
