data_image0
_chemical_formula_structural       Zn8H32C80O26
_chemical_formula_sum              "Zn8 H32 C80 O26"
_cell_length_a       25.701301142426022
_cell_length_b       25.701339214984163
_cell_length_c       26.96564002518289
_cell_angle_alpha    118.46282147707184
_cell_angle_beta     118.46315834267361
_cell_angle_gamma    89.99092271876573

_space_group_name_H-M_alt    "P 1"
_space_group_IT_number       1

loop_
  _space_group_symop_operation_xyz
  'x, y, z'

loop_
  _atom_site_type_symbol
  _atom_site_label
  _atom_site_symmetry_multiplicity
  _atom_site_fract_x
  _atom_site_fract_y
  _atom_site_fract_z
  _atom_site_occupancy
  Zn  Zn1       1.0  0.15903230175454297  0.7211634542321194  0.4423472036267598  1.0000
  Zn  Zn2       1.0  0.8409683591908886  0.2788373324804923  0.5576526896523434  1.0000
  Zn  Zn3       1.0  0.7211633317648776  0.159032411941439  0.44234764211158517  1.0000
  Zn  Zn4       1.0  0.2788367161557446  0.8409675909614266  0.5576523933000247  1.0000
  Zn  Zn5       1.0  0.2833105869645107  0.7211684068478732  0.44232745773751253  1.0000
  Zn  Zn6       1.0  0.716689460956104  0.2788315960549922  0.5576725776740973  1.0000
  Zn  Zn7       1.0  0.7211678648590548  0.28331022417783897  0.4423270557422114  1.0000
  Zn  Zn8       1.0  0.2788321830615672  0.7166897787250335  0.5576729796693983  1.0000
  H   H1        1.0  0.7987061025542843  0.3822371545580481  0.7645028757219949  1.0000
  H   H2        1.0  0.20129394533564238  0.6177624775032271  0.23549678880097252  1.0000
  H   H3        1.0  0.3822383552794688  0.7987054713532301  0.7645035416139195  1.0000
  H   H4        1.0  0.6177616926411531  0.20129453154963528  0.23549649379769017  1.0000
  H   H5        1.0  0.9657933770696374  0.38225474610590016  0.7644979643809292  1.0000
  H   H6        1.0  0.03420667085097756  0.6177452567969723  0.2355020710306803  1.0000
  H   H7        1.0  0.3822550856853084  0.9657922772472533  0.7644972165484419  1.0000
  H   H8        1.0  0.6177449622353066  0.034207725655612344  0.23550281886316785  1.0000
  H   H9        1.0  0.11448074743174176  0.5317153159146955  0.577563695266136  1.0000
  H   H10       1.0  0.8855196070319733  0.46828544973462993  0.4224366399678631  1.0000
  H   H11       1.0  0.04583823777447551  0.11446951628649764  0.5776087207418571  1.0000
  H   H12       1.0  0.9541616740971648  0.8855306775836098  0.42239104261290106  1.0000
  H   H13       1.0  0.4631030231222652  0.045849845746445746  0.5775898564173972  1.0000
  H   H14       1.0  0.5368970247983496  0.9541501571564267  0.42241017899421246  1.0000
  H   H15       1.0  0.5317745686457869  0.4631400509202095  0.5776142480771966  1.0000
  H   H16       1.0  0.46822592183621486  0.5368601529202905  0.42238598832501856  1.0000
  H   H17       1.0  0.8855303570819545  0.9541617025125931  0.4223910411520323  1.0000
  H   H18       1.0  0.1144696908386678  0.04583830039027962  0.5776089942595776  1.0000
  H   H19       1.0  0.9541477706900281  0.536919335583363  0.42243227580386383  1.0000
  H   H20       1.0  0.045851834761279485  0.4630815789066318  0.5775686712830749  1.0000
  H   H21       1.0  0.5368609823660152  0.4682258391465198  0.42238640507515174  1.0000
  H   H22       1.0  0.4631390655546069  0.5317741637563529  0.5776136303364581  1.0000
  H   H23       1.0  0.46826249688670163  0.8855217242571385  0.42241490296589035  1.0000
  H   H24       1.0  0.5317375510646086  0.11447864948731727  0.5775855033343619  1.0000
  H   H25       1.0  0.8610268018322101  0.4449644744516234  0.8899431786820744  1.0000
  H   H26       1.0  0.13897311003943005  0.5550357194184772  0.11005658467267665  1.0000
  H   H27       1.0  0.4449646762490858  0.8610270739327391  0.8899441869283963  1.0000
  H   H28       1.0  0.5550353716715364  0.1389729289701336  0.1100558484832135  1.0000
  H   H29       1.0  0.028920683862999428  0.4449798458171159  0.8899420961784161  1.0000
  H   H30       1.0  0.9710792280086408  0.5550203480529843  0.11005766717634201  1.0000
  H   H31       1.0  0.444978895468104  0.028919952308690742  0.8899410157659277  1.0000
  H   H32       1.0  0.5550211524525109  0.9710800505941819  0.11005901964568209  1.0000
  C   C1        1.0  0.9223677132812538  0.42236559605282037  0.4999971842097821  1.0000
  C   C2        1.0  0.9223436040003391  0.07765617157369316  0.4999998969919802  1.0000
  C   C3        1.0  0.5153469957755945  0.015343649553336922  0.030661140013528137  1.0000
  C   C4        1.0  0.984656428773569  0.48465296804126  0.969338938031868  1.0000
  C   C5        1.0  0.015343619147046137  0.5153470348616127  0.03066109737974187  1.0000
  C   C6        1.0  0.48465305214502064  0.9846563533495357  0.9693388953980817  1.0000
  C   C7        1.0  0.34118066378134415  0.8411997514209801  0.6823818170864087  1.0000
  C   C8        1.0  0.658819384139278  0.15880025148188542  0.3176182183252011  1.0000
  C   C9        1.0  0.8411961540072069  0.3411780525051498  0.6823806770162265  1.0000
  C   C10       1.0  0.1588038938827196  0.6588215795561254  0.3176189875067336  1.0000
  C   C11       1.0  0.15076297539845734  0.84923945517086  0.5000013161850774  1.0000
  C   C12       1.0  0.8492369364424945  0.15076036785765715  0.49999807628103105  1.0000
  C   C13       1.0  0.650736845830984  0.15074382672294445  0.5000122753269238  1.0000
  C   C14       1.0  0.34926320208963796  0.8492561761799209  0.4999877600846858  1.0000
  C   C15       1.0  0.3492490107560684  0.6507504600389851  0.49999816794902335  1.0000
  C   C16       1.0  0.6507511732135286  0.3492493518966455  0.5000021395194381  1.0000
  C   C17       1.0  0.8492563693768601  0.34926323915563967  0.499987601777363  1.0000
  C   C18       1.0  0.07763206257210697  0.5776351596261121  0.5000026779767666  1.0000
  C   C19       1.0  0.1507439850561667  0.6507371556521022  0.5000123625679934  1.0000
  C   C20       1.0  0.0262308577899049  0.4794659598935808  0.5438340140676843  1.0000
  C   C21       1.0  0.4223488714375421  0.5776507740836578  0.499999405699768  1.0000
  C   C22       1.0  0.9737684755327577  0.5205349656893005  0.4561660180169157  1.0000
  C   C23       1.0  0.06435580600003732  0.026212005100504088  0.5438316930368431  1.0000
  C   C24       1.0  0.9356442419205845  0.9737879978023614  0.4561683423747665  1.0000
  C   C25       1.0  0.5176162643679872  0.06436092554753249  0.5438401163284183  1.0000
  C   C26       1.0  0.48238391960160937  0.935638886388098  0.45616019114004996  1.0000
  C   C27       1.0  0.4794805644136204  0.5176316038676989  0.5438406407459058  1.0000
  C   C28       1.0  0.5205194835376901  0.48236876987675714  0.4561597655543538  1.0000
  C   C29       1.0  0.97378807311739  0.9356442709245555  0.4561682942556614  1.0000
  C   C30       1.0  0.026211532211149788  0.06435516019908506  0.5438311692767074  1.0000
  C   C31       1.0  0.935636211343613  0.4823969426895969  0.4561715706223594  1.0000
  C   C32       1.0  0.5776510404647867  0.4223497906280401  0.5000007285436328  1.0000
  C   C33       1.0  0.064363428491461  0.517604374798161  0.5438283903959871  1.0000
  C   C34       1.0  0.48236860784239605  0.5205189045401895  0.45615881319687196  1.0000
  C   C35       1.0  0.5176314400782261  0.47948109836268316  0.5438412222147377  1.0000
  C   C36       1.0  0.5205206417191448  0.9737704728134701  0.4561528318190183  1.0000
  C   C37       1.0  0.4794795422197566  0.02622896828057724  0.5438471047608006  1.0000
  C   C38       1.0  0.5776342821027001  0.07763323774339166  0.5000032580702226  1.0000
  C   C39       1.0  0.42236562976894726  0.9223669561267157  0.4999965052845284  1.0000
  C   C40       1.0  0.9612871264046206  0.461283454239748  0.4999983380032022  1.0000
  C   C41       1.0  0.038712649479421705  0.5387176722807752  0.5000018950719891  1.0000
  C   C42       1.0  0.03872811783120508  0.961271498636748  0.4999997881957939  1.0000
  C   C43       1.0  0.9612714875280304  0.03872830332849021  0.5000000462252174  1.0000
  C   C44       1.0  0.5387173192855954  0.03871300342129297  0.5000020431916071  1.0000
  C   C45       1.0  0.4612827286350195  0.9612869994815796  0.4999979922200027  1.0000
  C   C46       1.0  0.461275733854869  0.5387234366135941  0.4999996226722416  1.0000
  C   C47       1.0  0.5387243140657462  0.4612765662892784  0.500000412739368  1.0000
  C   C48       1.0  0.07765644392027585  0.9223438313291723  0.5000001384196296  1.0000
  C   C49       1.0  0.8837863213003914  0.43115130219698716  0.8623019065280886  1.0000
  C   C50       1.0  0.11621372662023077  0.5688487007058853  0.13769812888352118  1.0000
  C   C51       1.0  0.4311514979760815  0.8837854962899598  0.8623022860058713  1.0000
  C   C52       1.0  0.568848107383154  0.11621430567527105  0.1376975484151401  1.0000
  C   C53       1.0  0.9785181981709383  0.4311385028766421  0.8623005418448032  1.0000
  C   C54       1.0  0.02148171373139008  0.5688620618350484  0.13769959239859733  1.0000
  C   C55       1.0  0.4311383042945209  0.9785174239959955  0.8623004024875556  1.0000
  C   C56       1.0  0.5688617436261012  0.021482578906869814  0.13769963292405413  1.0000
  C   C57       1.0  0.11115044351824817  0.6111458533356426  0.4999909866196646  1.0000
  C   C58       1.0  0.8888487537247444  0.38885489237289067  0.5000084025194342  1.0000
  C   C59       1.0  0.8888186341291301  0.11118115152448364  0.49999972158694567  1.0000
  C   C60       1.0  0.11118127771181453  0.8888186715040335  0.49999967087916997  1.0000
  C   C61       1.0  0.38885429325989646  0.8888491129483782  0.5000084553409252  1.0000
  C   C62       1.0  0.6111457546607184  0.11115088995448726  0.4999915800706845  1.0000
  C   C63       1.0  0.6111757382687343  0.38882556345331665  0.5000007307236062  1.0000
  C   C64       1.0  0.3888238671211895  0.6111746093535046  0.49999947458604777  1.0000
  C   C65       1.0  0.8786009501792194  0.3785766184896742  0.7572003950392059  1.0000
  C   C66       1.0  0.12139909771070735  0.621423013571608  0.24279926948375427  1.0000
  C   C67       1.0  0.3785782776129026  0.8785994047842182  0.7572007700207809  1.0000
  C   C68       1.0  0.6214217703077196  0.12140059811865458  0.24279926539082916  1.0000
  C   C69       1.0  0.8491045451116362  0.3963075054775019  0.7926392720118046  1.0000
  C   C70       1.0  0.15089550277829028  0.6036921265837734  0.20736039251115548  1.0000
  C   C71       1.0  0.3963088555300233  0.8491050960187253  0.7926396056093028  1.0000
  C   C72       1.0  0.6036911923905919  0.15089490688414028  0.20736042980230715  1.0000
  C   C73       1.0  0.9435328054609257  0.39630506491923256  0.7926375986430402  1.0000
  C   C74       1.0  0.0564675489414128  0.6036949590469192  0.20736199481367384  1.0000
  C   C75       1.0  0.3963053731297776  0.943532244622638  0.7926371221187624  1.0000
  C   C76       1.0  0.6036942322294578  0.056467557342593004  0.20736271230224904  1.0000
  C   C77       1.0  0.9491823568099489  0.4491734527214746  0.8983639538160518  1.0000
  C   C78       1.0  0.050817691110672934  0.5508265501813909  0.10163608159555793  1.0000
  C   C79       1.0  0.4491733649402079  0.9491821421385325  0.8983636591369973  1.0000
  C   C80       1.0  0.5508266829804143  0.05081786076434014  0.10163637627461247  1.0000
  O   O1        1.0  0.25000653718109317  0.7499930812112083  0.4999997176285333  1.0000
  O   O2        1.0  0.673365370439427  0.12903454732216332  0.34673118003366443  1.0000
  O   O3        1.0  0.782316817399426  0.32662073266950375  0.6532705317614641  1.0000
  O   O4        1.0  0.21768336653947518  0.6733787084245366  0.34672940481835474  1.0000
  O   O5        1.0  0.32662337674169356  0.7823144279100945  0.6532703802049442  1.0000
  O   O6        1.0  0.6733766711789214  0.2176855749927711  0.3467296552066658  1.0000
  O   O7        1.0  0.8709669794752343  0.3266322164720137  0.6532680716512546  1.0000
  O   O8        1.0  0.12903306844538778  0.673367786430859  0.3467319637603553  1.0000
  O   O9        1.0  0.32663409890152206  0.870965816451893  0.6532687532191377  1.0000
  O   O10       1.0  0.7499938172519336  0.2500073135965338  0.5000002467168231  1.0000
  O   O11       1.0  0.20889897037348953  0.8763064324635508  0.5409313415130795  1.0000
  O   O12       1.0  0.791101077516437  0.12369319959773152  0.4590683230098876  1.0000
  O   O13       1.0  0.6645985311257974  0.20888694365389426  0.540932990220746  1.0000
  O   O14       1.0  0.33540138074584996  0.7911132502162134  0.45906677313401195  1.0000
  O   O15       1.0  0.3320251696015433  0.6645966007768253  0.5409207902722315  1.0000
  O   O16       1.0  0.6679753209111468  0.3354039739052652  0.4590798170186261  1.0000
  O   O17       1.0  0.876322465528652  0.3320310794077415  0.5409057983861346  1.0000
  O   O18       1.0  0.12367775285540013  0.6679695063672355  0.45909389390237015  1.0000
  O   O19       1.0  0.7911129602127006  0.3354012465733265  0.4590666736461986  1.0000
  O   O20       1.0  0.20888695165893986  0.6645989472967812  0.5409330897085525  1.0000
  O   O21       1.0  0.3354039028136029  0.6679746794266564  0.4590802592058765  1.0000
  O   O22       1.0  0.6645961451377003  0.3320256943177994  0.5409201470943756  1.0000
  O   O23       1.0  0.6679693192107193  0.1236782081127074  0.4590943063139861  1.0000
  O   O24       1.0  0.332030728740591  0.8763221656317485  0.5409060999862733  1.0000
  O   O25       1.0  0.12369170723697917  0.7910989204463094  0.4590670836219389  1.0000
  O   O26       1.0  0.8763082046039654  0.20890090258220767  0.5409323088441765  1.0000
