data_image0
_chemical_formula_structural       Zn2H36C40N4O8
_chemical_formula_sum              "Zn2 H36 C40 N4 O8"
_cell_length_a       9.80313196163225
_cell_length_b       9.900517690050345
_cell_length_c       11.70055501967747
_cell_angle_alpha    66.32120733958735
_cell_angle_beta     89.06428129938962
_cell_angle_gamma    62.54491188298908

_space_group_name_H-M_alt    "P 1"
_space_group_IT_number       1

loop_
  _space_group_symop_operation_xyz
  'x, y, z'

loop_
  _atom_site_type_symbol
  _atom_site_label
  _atom_site_symmetry_multiplicity
  _atom_site_fract_x
  _atom_site_fract_y
  _atom_site_fract_z
  _atom_site_occupancy
  Zn  Zn1       1.0  0.859544330953291  0.9857324471620929  0.0013799161650708599  1.0000
  Zn  Zn2       1.0  0.1404582881986016  0.014269956753508901  0.9986185856407631  1.0000
  H   H1        1.0  0.5429828070144608  0.22615187656975888  0.8552329224025  1.0000
  H   H2        1.0  0.4570219448661277  0.773848052658231  0.14477068593168949  1.0000
  H   H3        1.0  0.8296808224932376  0.6148523691323433  0.134678271973371  1.0000
  H   H4        1.0  0.17031768031453956  0.38515008704865755  0.8653228192644421  1.0000
  H   H5        1.0  0.7223558086058048  0.6250996535284729  0.2588704237160329  1.0000
  H   H6        1.0  0.2776443068389085  0.374901515789027  0.74113024064269  1.0000
  H   H7        1.0  0.8454759728680442  0.7202719054996649  0.22050540813564382  1.0000
  H   H8        1.0  0.15452953103963551  0.27972417413613476  0.7794969587875329  1.0000
  H   H9        1.0  0.2547513164459546  0.8980116678351991  0.3973985959981902  1.0000
  H   H10       1.0  0.7452440133662748  0.1019843842736918  0.6026004687163962  1.0000
  H   H11       1.0  0.2897932147216622  0.8048265171365759  0.6318190557702651  1.0000
  H   H12       1.0  0.7101977582520005  0.19517460814874005  0.3681774465047312  1.0000
  H   H13       1.0  0.12111677842028704  0.6979293429484275  0.7535018792113846  1.0000
  H   H14       1.0  0.8788798626136441  0.3020705257421029  0.24649670716394204  1.0000
  H   H15       1.0  0.9205881512353215  0.6813950423598882  0.6405695074376964  1.0000
  H   H16       1.0  0.0794053543115609  0.31860493086921343  0.35943505883732035  1.0000
  H   H17       1.0  0.8847610608919252  0.7792488517528827  0.4046965326006883  1.0000
  H   H18       1.0  0.11522777775869023  0.22075240283278674  0.5953076399045614  1.0000
  H   H19       1.0  0.5117657637752372  0.5213016523163249  0.890595941349936  1.0000
  H   H20       1.0  0.488250437425009  0.4786867033888458  0.10940385449208628  1.0000
  H   H21       1.0  0.3541932099984067  0.838562699439862  0.7983058915376519  1.0000
  H   H22       1.0  0.6458166741601303  0.1614217158747095  0.2016859309907844  1.0000
  H   H23       1.0  0.49120017646298914  0.0075145014554039  0.741856257488358  1.0000
  H   H24       1.0  0.5087935219997206  0.9924852104156303  0.2581321574838569  1.0000
  H   H25       1.0  0.7831246948029928  0.8610737310531746  0.7964394675950502  1.0000
  H   H26       1.0  0.21687012045457973  0.138938967778259  0.203563250279295  1.0000
  H   H27       1.0  0.9380440479302266  0.5443161862679845  0.8942083053603226  1.0000
  H   H28       1.0  0.06195835648790655  0.4556954155377539  0.10580667782403454  1.0000
  H   H29       1.0  0.3960393654950779  0.5824315108365212  0.281859943944781  1.0000
  H   H30       1.0  0.6039551021962952  0.4175708875643807  0.7181369361764708  1.0000
  H   H31       1.0  0.6409511280931567  0.7658161571107132  0.4722408206020532  1.0000
  H   H32       1.0  0.35904166604049687  0.23418761068781893  0.527761586809703  1.0000
  H   H33       1.0  0.7035868543527356  0.6166523612943494  0.637008509095331  1.0000
  H   H34       1.0  0.2964072829740161  0.3833462727980789  0.3629922398328773  1.0000
  H   H35       1.0  0.8086452268860712  0.561322905728126  0.5227899860790758  1.0000
  H   H36       1.0  0.19134802801288944  0.4386821021676895  0.4772102783929384  1.0000
  C   C1        1.0  0.5228764592563593  0.12540384154529963  0.9205870788910886  1.0000
  C   C2        1.0  0.47712771161168627  0.8745973580409228  0.07941609644706205  1.0000
  C   C3        1.0  0.6280622765622895  0.854739391976132  0.08699422739163515  1.0000
  C   C4        1.0  0.3719428853162938  0.14526184612757484  0.913011488345653  1.0000
  C   C5        1.0  0.7640331394172931  0.694378876120453  0.18178165532872007  1.0000
  C   C6        1.0  0.23597220362930935  0.3056197689936084  0.8182215359329418  1.0000
  C   C7        1.0  0.04450004171642531  0.9053484772459158  0.24591750152248443  1.0000
  C   C8        1.0  0.9554914919628528  0.09465140519253623  0.7540811338856912  1.0000
  C   C9        1.0  0.06772954501382601  0.8441840172096279  0.38732243493164026  1.0000
  C   C10       1.0  0.9322607875375154  0.15580955194735685  0.6126801048201429  1.0000
  C   C11       1.0  0.1822460985132253  0.850485563192166  0.45175574645421085  1.0000
  C   C12       1.0  0.8177498427719385  0.14950917729142083  0.5482412010507076  1.0000
  C   C13       1.0  0.20155339383369875  0.7976868169088291  0.5828938997810554  1.0000
  C   C14       1.0  0.7984405045096069  0.2023079290739318  0.41710306733700264  1.0000
  C   C15       1.0  0.1073784430727258  0.7369995214670908  0.6509577986833364  1.0000
  C   C16       1.0  0.892614843797645  0.2629965361409674  0.3490412856443897  1.0000
  C   C17       1.0  0.9944184761244231  0.728130242601708  0.5875350553360263  1.0000
  C   C18       1.0  0.005572727190227152  0.27186587552827035  0.412467448879113  1.0000
  C   C19       1.0  0.9741361882680265  0.7822561955522644  0.45610396298018696  1.0000
  C   C20       1.0  0.025851789772751516  0.21774249630472306  0.5438993949931401  1.0000
  C   C21       1.0  0.8298424054054647  0.3243285333240139  0.9450219971079293  1.0000
  C   C22       1.0  0.17018061270465526  0.6756738568669718  0.05497885877223045  1.0000
  C   C23       1.0  0.7344740124720487  0.5139108488326231  0.8958943278116819  1.0000
  C   C24       1.0  0.2655377491509015  0.486091599115163  0.10410833607787855  1.0000
  C   C25       1.0  0.5696543967448806  0.5972055843807738  0.8690800813493809  1.0000
  C   C26       1.0  0.43035891969957163  0.4027890956041986  0.13091584937529893  1.0000
  C   C27       1.0  0.48223326109980763  0.7741731938828168  0.8155067638724562  1.0000
  C   C28       1.0  0.5177735571349231  0.2258201387012022  0.1844837180142633  1.0000
  C   C29       1.0  0.5591862398438251  0.869032837655681  0.7860045135826894  1.0000
  C   C30       1.0  0.4408155593120783  0.1309669485084939  0.21398977341695508  1.0000
  C   C31       1.0  0.7232672682687282  0.787209004808588  0.8153771330181031  1.0000
  C   C32       1.0  0.2767307824161874  0.21280110654014095  0.18462388102947364  1.0000
  C   C33       1.0  0.8101909679328116  0.6103359233617386  0.870775184751423  1.0000
  C   C34       1.0  0.18981676562184185  0.3896730166836947  0.1292338246501927  1.0000
  C   C35       1.0  0.4438245179705619  0.5447785935023575  0.38025723704678427  1.0000
  C   C36       1.0  0.5561705205798971  0.4552225482959926  0.6197409261390802  1.0000
  C   C37       1.0  0.5894652714271372  0.56395343859505  0.5178896098916751  1.0000
  C   C38       1.0  0.41053034813585754  0.43604643284506756  0.4821089862902213  1.0000
  C   C39       1.0  0.69079171638046  0.6309893113239369  0.5392524834851785  1.0000
  C   C40       1.0  0.3092016892261285  0.3690131448492977  0.4607478067169168  1.0000
  N   N1        1.0  0.648113962058531  0.983748289940273  0.005606012666227487  1.0000
  N   N2        1.0  0.35189021896297845  0.0162528958902612  0.9943963126033566  1.0000
  N   N3        1.0  0.531804464640821  0.6084484827159501  0.39706165362188983  1.0000
  N   N4        1.0  0.468192627004953  0.3915526398275517  0.6029356398822615  1.0000
  O   O1        1.0  0.9239568060878585  0.9199359157373125  0.19013261802951592  1.0000
  O   O2        1.0  0.07602071523814397  0.08007673354723013  0.8098643160765207  1.0000
  O   O3        1.0  0.8539121799574119  0.0614332764461096  0.8089449840668551  1.0000
  O   O4        1.0  0.14608492486384972  0.9385500143003186  0.19105419949156047  1.0000
  O   O5        1.0  0.7552312752520223  0.24427806106297825  0.9566479060988797  1.0000
  O   O6        1.0  0.24479273697398446  0.7557178040120577  0.043344083483233924  1.0000
  O   O7        1.0  0.02119942420152648  0.7417341071646181  0.03160465664345935  1.0000
  O   O8        1.0  0.9788161710628815  0.25827101906428857  0.9684064429754287  1.0000
