data_image0
_chemical_formula_structural       Zn8H64C120N32Cl16
_chemical_formula_sum              "Zn8 H64 C120 N32 Cl16"
_cell_length_a       17.583626352467828
_cell_length_b       19.402018700034347
_cell_length_c       20.615950478117544
_cell_angle_alpha    101.18672338152528
_cell_angle_beta     89.98299699669647
_cell_angle_gamma    89.99726630619575

_space_group_name_H-M_alt    "P 1"
_space_group_IT_number       1

loop_
  _space_group_symop_operation_xyz
  'x, y, z'

loop_
  _atom_site_type_symbol
  _atom_site_label
  _atom_site_symmetry_multiplicity
  _atom_site_fract_x
  _atom_site_fract_y
  _atom_site_fract_z
  _atom_site_occupancy
  Zn  Zn1       1.0  0.030249676453671305  0.05198625177324351  0.4393668194405791  1.0000
  Zn  Zn2       1.0  0.9697092448824309  0.9480530841614863  0.5606087655008095  1.0000
  Zn  Zn3       1.0  0.4696900357566989  0.5520851150485485  0.9396203730433468  1.0000
  Zn  Zn4       1.0  0.5303640549385805  0.44786520411935976  0.060336966423854194  1.0000
  Zn  Zn5       1.0  0.8655389239913021  0.059917078495125495  0.5426605507354053  1.0000
  Zn  Zn6       1.0  0.1344585605285786  0.940105007768061  0.4573510828049904  1.0000
  Zn  Zn7       1.0  0.3659508980492632  0.4395057446660786  0.9568420497332822  1.0000
  Zn  Zn8       1.0  0.6340974769558231  0.5604409400992624  0.04312876217008469  1.0000
  H   H1        1.0  0.9822095767300708  0.9124379530616908  0.32678172029464747  1.0000
  H   H2        1.0  0.0530406760814301  0.659472633206903  0.7690029365444885  1.0000
  H   H3        1.0  0.7955908495671763  0.8791905814746598  0.9063959477657801  1.0000
  H   H4        1.0  0.2045164262840302  0.12069435916102121  0.09354669506743817  1.0000
  H   H5        1.0  0.29724622027334396  0.6219533093128718  0.5937321911523907  1.0000
  H   H6        1.0  0.7026918484435568  0.3781552311304068  0.40636672704464866  1.0000
  H   H7        1.0  0.4472521092884064  0.16125465064095576  0.2702173440147817  1.0000
  H   H8        1.0  0.5527850035189915  0.8387273370133455  0.7297999808204736  1.0000
  H   H9        1.0  0.9851909055147061  0.799356491728254  0.5899174011090195  1.0000
  H   H10       1.0  0.0147601935965938  0.20072608327946284  0.41011249207984696  1.0000
  H   H11       1.0  0.1123486209058058  0.11432028155647335  0.31831006093720754  1.0000
  H   H12       1.0  0.017647408721870792  0.08769277193646728  0.673160936500352  1.0000
  H   H13       1.0  0.8876116661396979  0.8856341737856609  0.6816298574802601  1.0000
  H   H14       1.0  0.6120596297623704  0.3858297323622537  0.18170379356408964  1.0000
  H   H15       1.0  0.3879503485073599  0.6141968535038274  0.8183484599928263  1.0000
  H   H16       1.0  0.4843703182023447  0.7008720059567608  0.9106170744749492  1.0000
  H   H17       1.0  0.5156837997839644  0.2990921203691457  0.089376249460706  1.0000
  H   H18       1.0  0.7040709323992332  0.00950302336863727  0.6231867422498992  1.0000
  H   H19       1.0  0.2958947107911669  0.9905187090484165  0.3768159723823175  1.0000
  H   H20       1.0  0.7805847918111437  0.17694878400211417  0.46672936963781797  1.0000
  H   H21       1.0  0.21939398398180288  0.8231149591823198  0.5334160332488053  1.0000
  H   H22       1.0  0.2813810979461308  0.3220390626887522  0.032750881004425  1.0000
  H   H23       1.0  0.8597675510194306  0.11758689741385808  0.7837284844575263  1.0000
  H   H24       1.0  0.7186979426253544  0.6778851889608575  0.9671622528732087  1.0000
  H   H25       1.0  0.20473188499202882  0.48927124009898654  0.8757685619408305  1.0000
  H   H26       1.0  0.7952893094647493  0.5107075400251659  0.12422748081649358  1.0000
  H   H27       1.0  0.2108364180632023  0.7979568251197192  0.3864067349917092  1.0000
  H   H28       1.0  0.7891459959642475  0.20202140388779813  0.6137025159004209  1.0000
  H   H29       1.0  0.1839579739681128  0.10069257954119588  0.5202041433034877  1.0000
  H   H30       1.0  0.8159511642877887  0.8994062681819132  0.47976936687715005  1.0000
  H   H31       1.0  0.6846098499731851  0.39997801555099227  0.9798555322804814  1.0000
  H   H32       1.0  0.3154116756957563  0.5999418957304173  0.0201172715054057  1.0000
  H   H33       1.0  0.7103788013984129  0.7022074555592469  0.11409947367543079  1.0000
  H   H34       1.0  0.14025102882444426  0.8821827448135553  0.21625453903470054  1.0000
  H   H35       1.0  0.2895420867626867  0.29783253041643576  0.8858031366828242  1.0000
  H   H36       1.0  0.6937821220402043  0.1647539818900441  0.8333875240610026  1.0000
  H   H37       1.0  0.30565465146953125  0.834963918891681  0.16636183125712725  1.0000
  H   H38       1.0  0.7833019848328888  0.8922816905371819  0.2649353806829068  1.0000
  H   H39       1.0  0.21691645221891057  0.1077380508116335  0.7347525541938608  1.0000
  H   H40       1.0  0.2808813425785317  0.6068738812181707  0.23402629296152355  1.0000
  H   H41       1.0  0.7196892464489721  0.39305343767826867  0.7663210000299754  1.0000
  H   H42       1.0  0.1962055168856836  0.3351381779124196  0.6651327437296003  1.0000
  H   H43       1.0  0.8033611839333545  0.6651260867544694  0.33508802443450486  1.0000
  H   H44       1.0  0.3359832051223677  0.7327519240247042  0.315322311488913  1.0000
  H   H45       1.0  0.36045388317888427  0.38211990609224966  0.7157422252462735  1.0000
  H   H46       1.0  0.6644462266952615  0.26745429044379415  0.68463515025865  1.0000
  H   H47       1.0  0.2504897272124538  0.20898948715038299  0.5851185336148176  1.0000
  H   H48       1.0  0.7491111878762524  0.7914854154160836  0.4147781416792639  1.0000
  H   H49       1.0  0.749309237676016  0.289472725206572  0.9148571969773157  1.0000
  H   H50       1.0  0.2502238067112188  0.7099779228612063  0.0852917177952861  1.0000
  H   H51       1.0  0.8371884425166058  0.7650715241896577  0.18502626763126528  1.0000
  H   H52       1.0  0.16299868261879163  0.23475035712187517  0.8149830413014739  1.0000
  H   H53       1.0  0.7686258855574409  0.2968042691548262  0.46464460183224787  1.0000
  H   H54       1.0  0.23129061762713823  0.703321818379237  0.5354882530813397  1.0000
  H   H55       1.0  0.6297341488486125  0.9011569689365332  0.6600076975543273  1.0000
  H   H56       1.0  0.639586089213246  0.6179853079088744  0.28422963604604223  1.0000
  H   H57       1.0  0.3702632926015426  0.0988554752901791  0.3400046103153612  1.0000
  H   H58       1.0  0.12989749922875396  0.5968082519091666  0.83863035747963  1.0000
  H   H59       1.0  0.8701020557681645  0.4031817994704241  0.16144938055337116  1.0000
  H   H60       1.0  0.270281591169109  0.20200248483218528  0.0350300971200213  1.0000
  H   H61       1.0  0.7298228330957953  0.7978765667147486  0.9648932946080037  1.0000
  H   H62       1.0  0.48172767572599184  0.5871034294835127  0.173022498667784  1.0000
  H   H63       1.0  0.5183262310916844  0.41280486047417486  0.8269336305541231  1.0000
  H   H64       1.0  0.9469271806080496  0.34056458785814664  0.2311389877520469  1.0000
  C   C1        1.0  0.945394391290257  0.9192757521800485  0.3700765405843213  1.0000
  C   C2        1.0  0.6342088000486328  0.2583555516316025  0.7943405515562958  1.0000
  C   C3        1.0  0.7690360648608988  0.7857142537191066  0.3637213404392624  1.0000
  C   C4        1.0  0.7301133390697954  0.28472092277421274  0.863700368763986  1.0000
  C   C5        1.0  0.2696486535030899  0.7149198273967842  0.13638787584807938  1.0000
  C   C6        1.0  0.816676381826099  0.7713928838617505  0.23591921481033748  1.0000
  C   C7        1.0  0.1833851468832108  0.22857319801022405  0.7640646385366877  1.0000
  C   C8        1.0  0.7003295968019712  0.21560758021084328  0.8186341105914606  1.0000
  C   C9        1.0  0.2993774527250679  0.7841701688077122  0.18125206034311958  1.0000
  C   C10       1.0  0.7874543482875964  0.8413237808611527  0.2797810960679215  1.0000
  C   C11       1.0  0.21261072186297267  0.15876060579295626  0.7200124274821034  1.0000
  C   C12       1.0  0.28611434126897  0.6580357139224589  0.21969603326179768  1.0000
  C   C13       1.0  0.2794411346150483  0.1996405267541803  0.695118259357727  1.0000
  C   C14       1.0  0.7142008703486838  0.3418532338174884  0.7804956752601341  1.0000
  C   C15       1.0  0.20154959036109688  0.2844675939073226  0.680456791054965  1.0000
  C   C16       1.0  0.7981341220022528  0.7157375547772632  0.3196389374645462  1.0000
  C   C17       1.0  0.7508499020250383  0.22926007134256576  0.7589718792630009  1.0000
  C   C18       1.0  0.24913979326941427  0.7705564735816991  0.24110411301764859  1.0000
  C   C19       1.0  0.8365535773069013  0.8278266815947363  0.34028108401444257  1.0000
  C   C20       1.0  0.16329330501584846  0.17233347529984402  0.6596570616204716  1.0000
  C   C21       1.0  0.3361927421479436  0.6716218803650661  0.15973334001986927  1.0000
  C   C22       1.0  0.6638074307627306  0.3282357610264198  0.840278347966425  1.0000
  C   C23       1.0  0.25101822778857746  0.27085655440502887  0.7406936697986523  1.0000
  C   C24       1.0  0.7204756244326731  0.8005942802897792  0.3046427511888864  1.0000
  C   C25       1.0  0.7488898987144097  0.729266238941733  0.25925805254725276  1.0000
  C   C26       1.0  0.7799307691121555  0.29970348866437757  0.8053790007273065  1.0000
  C   C27       1.0  0.2201166539069206  0.6999631466621423  0.194901288236764  1.0000
  C   C28       1.0  0.86551285012618  0.7570226807057879  0.29536013349763823  1.0000
  C   C29       1.0  0.13433790691186687  0.24302528361400988  0.7047726946271381  1.0000
  C   C30       1.0  0.8618081348989576  0.2735974514249335  0.3953011152845675  1.0000
  C   C31       1.0  0.13814072717031678  0.7265207576669895  0.6048566959299817  1.0000
  C   C32       1.0  0.7277103495297865  0.9157087570242836  0.7243936560271748  1.0000
  C   C33       1.0  0.0544819173368367  0.0808545037187329  0.6298780328997963  1.0000
  C   C34       1.0  0.27229787807330297  0.0842956278036269  0.27560142209395616  1.0000
  C   C35       1.0  0.2284436361229183  0.5835181614042853  0.7748925175197385  1.0000
  C   C36       1.0  0.7715373525637403  0.4165145186228543  0.22517254006010745  1.0000
  C   C37       1.0  0.3629081093950148  0.22612901763073268  0.10474055673437725  1.0000
  C   C38       1.0  0.6371476246055465  0.7738093803963649  0.8952279235441977  1.0000
  C   C39       1.0  0.24370900965706713  0.6457697702525848  0.6129204213475105  1.0000
  C   C40       1.0  0.7562330751210097  0.35435025644761703  0.38719516217869193  1.0000
  C   C41       1.0  0.390595837000525  0.1427066705005942  0.25426419251795096  1.0000
  C   C42       1.0  0.609432774125125  0.8572800103699694  0.7457441127751138  1.0000
  C   C43       1.0  0.8900271788896815  0.35860892136375355  0.24683271453241667  1.0000
  C   C44       1.0  0.8509162237859441  0.12994217145693196  0.7350456125812669  1.0000
  C   C45       1.0  0.10994191390649627  0.6414469708453296  0.7532914899352008  1.0000
  C   C46       1.0  0.7423475421097194  0.8549159555427437  0.8870788096960778  1.0000
  C   C47       1.0  0.25774282575641644  0.14500769123583981  0.1128819887325392  1.0000
  C   C48       1.0  0.20693564838418146  0.6917823084429598  0.5808382269219051  1.0000
  C   C49       1.0  0.792993910286178  0.30833875430511176  0.41929769505375697  1.0000
  C   C50       1.0  0.3477006438905191  0.1072404762907055  0.2928792548371461  1.0000
  C   C51       1.0  0.6522961785937439  0.8927594465287854  0.7071278235393448  1.0000
  C   C52       1.0  0.8472453538103435  0.3942149336190042  0.20828834800972368  1.0000
  C   C53       1.0  0.15274473619599147  0.6058247550139981  0.7918078522678086  1.0000
  C   C54       1.0  0.7056459702393099  0.8090015858386009  0.9193312974645876  1.0000
  C   C55       1.0  0.1490912472225716  0.8698945521251031  0.26496943753569  1.0000
  C   C56       1.0  0.2944426356864867  0.1909049399575551  0.08060847101722149  1.0000
  C   C57       1.0  0.1049819295162209  0.7062566244319728  0.6597827342267591  1.0000
  C   C58       1.0  0.8949771971628876  0.2938700544374058  0.3403853423977522  1.0000
  C   C59       1.0  0.245853836369534  0.09229378253112232  0.2137142464072994  1.0000
  C   C60       1.0  0.7541963267093834  0.9076723828786015  0.7862606733651772  1.0000
  C   C61       1.0  0.7446559871429628  0.40785316554695333  0.2867555326791375  1.0000
  C   C62       1.0  0.2553075741191079  0.5922272809567133  0.7133175849572807  1.0000
  C   C63       1.0  0.6041781440056864  0.7934066830889178  0.8399229621315881  1.0000
  C   C64       1.0  0.395880554654596  0.20656204235412187  0.1600588576454172  1.0000
  C   C65       1.0  0.14094048556975028  0.6587360058954487  0.6949445539678861  1.0000
  C   C66       1.0  0.3515839834828682  0.36975575697363183  0.764436927534689  1.0000
  C   C67       1.0  0.8590237216979232  0.341377298187055  0.30520093210837723  1.0000
  C   C68       1.0  0.2871096534949301  0.13058230563630246  0.17292243637276528  1.0000
  C   C69       1.0  0.7129603282967949  0.8693649489705778  0.8270558044687274  1.0000
  C   C70       1.0  0.785887501697374  0.36948468170478327  0.3275028809301545  1.0000
  C   C71       1.0  0.2140687093279112  0.6306124104191823  0.672602696191717  1.0000
  C   C72       1.0  0.640136338074278  0.8407024537889426  0.8044978776970098  1.0000
  C   C73       1.0  0.3599297613432668  0.1592704671041218  0.19549577655313038  1.0000
  C   C74       1.0  0.039513579846328604  0.814627725301314  0.5723474490870969  1.0000
  C   C75       1.0  0.9604380210366656  0.18544335925649588  0.42770003089266584  1.0000
  C   C76       1.0  0.14972121671517163  0.081590769816188  0.34131406630994826  1.0000
  C   C77       1.0  0.6484144248704523  0.6303359241739984  0.2355222897041003  1.0000
  C   C78       1.0  0.8502403107867876  0.9183901359688776  0.6586402565435562  1.0000
  C   C79       1.0  0.649398947490731  0.4188110169839589  0.15893666071433898  1.0000
  C   C80       1.0  0.3506132564609601  0.5811995260688575  0.841092556009599  1.0000
  C   C81       1.0  0.5387596590436984  0.6857813158368131  0.9282176787326647  1.0000
  C   C82       1.0  0.4612995947759515  0.3141845509094523  0.07176518646117809  1.0000
  C   C83       1.0  0.7561813663116013  0.9808744656189676  0.6280821055957375  1.0000
  C   C84       1.0  0.24379110486807318  0.0191446911128494  0.37190476867557004  1.0000
  C   C85       1.0  0.8413990160519164  0.1732564456439576  0.4574629309847679  1.0000
  C   C86       1.0  0.1585758547729412  0.8268207423050242  0.5426643537243551  1.0000
  C   C87       1.0  0.3421853147212417  0.3259315823270513  0.04200422827646828  1.0000
  C   C88       1.0  0.44490276867063727  0.5801525394245529  0.12975895137831367  1.0000
  C   C89       1.0  0.6578930808148867  0.6739780118207577  0.9579215869160292  1.0000
  C   C90       1.0  0.25667420427899407  0.5182271287301673  0.8711419438247247  1.0000
  C   C91       1.0  0.7433447277513565  0.4817579154922668  0.1288703662017596  1.0000
  C   C92       1.0  0.1857792753130241  0.8265504175976088  0.35126096367395826  1.0000
  C   C93       1.0  0.8142057959354077  0.17337727608703804  0.6488095044976632  1.0000
  C   C94       1.0  0.1379330869360373  0.088238472613412  0.5509978964800268  1.0000
  C   C95       1.0  0.8619602084065078  0.9118761205315522  0.4489629176266874  1.0000
  C   C96       1.0  0.6386027972082929  0.41240610672569733  0.9490601391817249  1.0000
  C   C97       1.0  0.3614187197708318  0.5875130925241833  0.0509186348735184  1.0000
  C   C98       1.0  0.6852066547397726  0.6736657033022126  0.1492351539890961  1.0000
  C   C99       1.0  0.5551494074584155  0.419751451320174  0.8702032148484022  1.0000
  C   C100      1.0  0.31475977489255763  0.32639035111425585  0.8506959380420085  1.0000
  C   C101      1.0  0.8801397754052046  0.8822244493897813  0.3838679538876305  1.0000
  C   C102      1.0  0.11969973239469311  0.11794163035096254  0.6160780276916424  1.0000
  C   C103      1.0  0.8000534852871793  0.17917580161841326  0.7163860414882136  1.0000
  C   C104      1.0  0.1999460451816759  0.8206762367502806  0.2836783713925897  1.0000
  C   C105      1.0  0.3005387173666918  0.3206940903466275  0.7831519736733056  1.0000
  C   C106      1.0  0.699422207354999  0.6794054013480421  0.21678874372589974  1.0000
  C   C107      1.0  0.3795719019025299  0.6171205455577039  0.11603348697806838  1.0000
  C   C108      1.0  0.6204220213067799  0.3827360881003514  0.8839668037809145  1.0000
  C   C109      1.0  0.11169367968954451  0.78410215723234  0.5741716240491853  1.0000
  C   C110      1.0  0.36573312445400313  0.7416641234104304  0.20547257336533417  1.0000
  C   C111      1.0  0.8882693463591665  0.21599893800961914  0.42596316624580766  1.0000
  C   C112      1.0  0.2246596360730777  0.06014480856300248  0.32491874388078656  1.0000
  C   C113      1.0  0.7753270458010845  0.9398721964130202  0.6750656833726508  1.0000
  C   C114      1.0  0.724131113941759  0.44059457676912916  0.1757004890840861  1.0000
  C   C115      1.0  0.275880509864905  0.559413066248254  0.8243272920475844  1.0000
  C   C116      1.0  0.6108411618469205  0.7164210920125739  0.9262406677722621  1.0000
  C   C117      1.0  0.3892276282749662  0.28350709361920684  0.0737056574723596  1.0000
  C   C118      1.0  0.31594375372873174  0.727229914417599  0.26434775726592347  1.0000
  C   C119      1.0  0.684291533426979  0.2728082718655216  0.7356545669298455  1.0000
  C   C120      1.0  0.23067275722969066  0.21460126605428095  0.6361926369722539  1.0000
  N   N1        1.0  0.964254225102472  0.9672087714988964  0.42376139300004206  1.0000
  N   N2        1.0  0.9561827845664155  0.12918121922558606  0.4568679692749739  1.0000
  N   N3        1.0  0.1270113691888284  0.05592451571405378  0.39397589011156237  1.0000
  N   N4        1.0  0.8729433997512147  0.9440717499405337  0.605980137252132  1.0000
  N   N5        1.0  0.6268945131685013  0.4443975267133665  0.1061742151088509  1.0000
  N   N6        1.0  0.373141941179739  0.555559970704401  0.8938237046634823  1.0000
  N   N7        1.0  0.5432323802955992  0.6296626784583522  0.957582203570247  1.0000
  N   N8        1.0  0.45682905821269054  0.370277346094987  0.042375323457037  1.0000
  N   N9        1.0  0.8150240867960507  0.9831146455442623  0.5867339415879654  1.0000
  N   N10       1.0  0.1849296254419031  0.016904175025985076  0.4132420235238853  1.0000
  N   N11       1.0  0.8820935545820633  0.12099382243673766  0.47477329580011934  1.0000
  N   N12       1.0  0.0356786676009051  0.03286144238776956  0.5762180985013712  1.0000
  N   N13       1.0  0.11788292799852228  0.8790427699824619  0.5252633946828595  1.0000
  N   N14       1.0  0.3826967207984069  0.3781924852383511  0.024484549970786397  1.0000
  N   N15       1.0  0.6173647062712674  0.6217446371691366  0.9754715413199263  1.0000
  N   N16       1.0  0.3152941568767389  0.5162060637118558  0.9127421055104463  1.0000
  N   N17       1.0  0.6847400062860132  0.4837461718795169  0.08724846566391879  1.0000
  N   N18       1.0  0.1307158314864623  0.875781375116418  0.37005477604601816  1.0000
  N   N19       1.0  0.8693121082461843  0.1241875061045334  0.629979672083337  1.0000
  N   N20       1.0  0.0873853732977423  0.0363206552828643  0.5263345223300391  1.0000
  N   N21       1.0  0.9125571105092262  0.963732851008018  0.4736487493156857  1.0000
  N   N22       1.0  0.5879517238470696  0.4642418340075167  0.9737680577105293  1.0000
  N   N23       1.0  0.8914009809346054  0.09669580341538614  0.6833264497001749  1.0000
  N   N24       1.0  0.4121046056658031  0.5357012690286423  0.02619388201484441  1.0000
  N   N25       1.0  0.6299282424741649  0.6246484228887965  0.13047890725484018  1.0000
  N   N26       1.0  0.3700969478096141  0.3753230473975505  0.8694666334696065  1.0000
  N   N27       1.0  0.1086250465275143  0.9032199512418868  0.316678200682439  1.0000
  N   N28       1.0  0.39226033699268475  0.40280131494994725  0.8161257033298454  1.0000
  N   N29       1.0  0.607796793287271  0.5971964960468555  0.18384565179690773  1.0000
  N   N30       1.0  0.46379899114002404  0.5322537527736273  0.07605584219464129  1.0000
  N   N31       1.0  0.5362578450609518  0.4676728046516985  0.923894488360581  1.0000
  N   N32       1.0  0.04378921312518709  0.8708667004085626  0.5431526279945017  1.0000
  Cl  Cl1       1.0  0.4610376683803705  0.7672051052575171  0.21165008886667638  1.0000
  Cl  Cl2       1.0  0.0196221531469547  0.7434015934091817  0.6919968813949281  1.0000
  Cl  Cl3       1.0  0.841822787100682  0.9427063394320214  0.8145739843168369  1.0000
  Cl  Cl4       1.0  0.1582653042748419  0.05721150303627809  0.18536110769955627  1.0000
  Cl  Cl5       1.0  0.3433141207377944  0.5578876828578672  0.6852406763693465  1.0000
  Cl  Cl6       1.0  0.6566180360664903  0.4421543153171185  0.31478500725765457  1.0000
  Cl  Cl7       1.0  0.4808693205093633  0.2443902313066815  0.19241351903799847  1.0000
  Cl  Cl8       1.0  0.5191826270029054  0.7555975179728875  0.8075793697722417  1.0000
  Cl  Cl9       1.0  0.5388489928400944  0.23298950479957628  0.7878733877740131  1.0000
  Cl  Cl10      1.0  0.37407531426521956  0.1721912663865126  0.6888253973919304  1.0000
  Cl  Cl11      1.0  0.6258669669352485  0.8281045355711074  0.31068825157845475  1.0000
  Cl  Cl12      1.0  0.8749606597388535  0.32585467504859617  0.8125704697408904  1.0000
  Cl  Cl13      1.0  0.12516601896169993  0.6735350038800761  0.18801375267526046  1.0000
  Cl  Cl14      1.0  0.9604355684853941  0.7302288683941143  0.2901194266575544  1.0000
  Cl  Cl15      1.0  0.0393688742840865  0.2696750828045609  0.7102101764736162  1.0000
  Cl  Cl16      1.0  0.98032666716054  0.25670413349447324  0.3081467637216945  1.0000
