data_image0
_chemical_formula_structural       Cu2H32C50S2N8O10
_chemical_formula_sum              "Cu2 H32 C50 S2 N8 O10"
_cell_length_a       8.879368614539162
_cell_length_b       10.752664427709835
_cell_length_c       13.361176783901797
_cell_angle_alpha    75.84706254381841
_cell_angle_beta     85.70497134201997
_cell_angle_gamma    66.33592301099075

_space_group_name_H-M_alt    "P 1"
_space_group_IT_number       1

loop_
  _space_group_symop_operation_xyz
  'x, y, z'

loop_
  _atom_site_type_symbol
  _atom_site_label
  _atom_site_symmetry_multiplicity
  _atom_site_fract_x
  _atom_site_fract_y
  _atom_site_fract_z
  _atom_site_occupancy
  Cu  Cu1       1.0  0.4907914068836093  0.3601109232919767  0.19622333686460536  1.0000
  Cu  Cu2       1.0  0.5092095234631201  0.6398833349705554  0.8037764465702038  1.0000
  H   H1        1.0  0.2138375797021297  0.5595659114738891  0.5113708964780626  1.0000
  H   H2        1.0  0.7861720191195049  0.4404315428894065  0.4886263835722032  1.0000
  H   H3        1.0  0.16407408654999495  0.3703692291477123  0.6444468564017568  1.0000
  H   H4        1.0  0.8359280605181851  0.6296344350825933  0.3555518664090939  1.0000
  H   H5        1.0  0.16825025472449073  0.1625455187522178  0.5918405506769344  1.0000
  H   H6        1.0  0.8317413949621651  0.8374612616607209  0.40815734140563353  1.0000
  H   H7        1.0  0.2342005537135989  0.13722817348332939  0.41184697738783155  1.0000
  H   H8        1.0  0.7657854557426943  0.8627786013216221  0.5881504348159082  1.0000
  H   H9        1.0  0.5776614452488575  0.21398641387941808  0.8771804753128262  1.0000
  H   H10       1.0  0.4223355704734715  0.7860161034500874  0.12282319553840891  1.0000
  H   H11       1.0  0.496636570606924  0.1417059841353776  0.7328078747809028  1.0000
  H   H12       1.0  0.5033597338247516  0.8583029046841517  0.2671894038819288  1.0000
  H   H13       1.0  0.26446591741395753  0.06661480953480489  0.7511534039351628  1.0000
  H   H14       1.0  0.7355362321375836  0.9333888408657315  0.24884606984029722  1.0000
  H   H15       1.0  0.10652832910905372  0.05997743850360851  0.9136802206570207  1.0000
  H   H16       1.0  0.8934704882029365  0.9400189186699845  0.08631852369639145  1.0000
  H   H17       1.0  0.5425516685882458  0.2956494583032594  0.4418340405896897  1.0000
  H   H18       1.0  0.45745201084162773  0.7043437494201895  0.5581665565423959  1.0000
  H   H19       1.0  0.7620208221631942  0.14812313808179306  0.5710868789196653  1.0000
  H   H20       1.0  0.23798348834836938  0.8518711456731651  0.4289119908990669  1.0000
  H   H21       1.0  0.05664399899134783  0.9756578088840082  0.32532608888597275  1.0000
  H   H22       1.0  0.9433567942580368  0.024334315032824304  0.6746763439937664  1.0000
  H   H23       1.0  0.8254614884221851  0.13158486056619267  0.20709385744608252  1.0000
  H   H24       1.0  0.17454155247591532  0.8684073126150478  0.7929062141055281  1.0000
  H   H25       1.0  0.7085833698178946  0.4858002204519705  0.24501768320061498  1.0000
  H   H26       1.0  0.29141884752581143  0.5141960515758796  0.7549861552535614  1.0000
  H   H27       1.0  0.9406326119882847  0.5453385666956407  0.16839837641894204  1.0000
  H   H28       1.0  0.05936763190138101  0.4546619247592073  0.831602524473517  1.0000
  H   H29       1.0  0.8774844056590466  0.4077985180671248  0.8999778033482853  1.0000
  H   H30       1.0  0.1225166163430985  0.5922051284458545  0.10002172464432138  1.0000
  H   H31       1.0  0.6517347082708583  0.3555678475369958  0.9884421133780205  1.0000
  H   H32       1.0  0.34826926770394095  0.6444295044099204  0.011559943545655909  1.0000
  C   C1        1.0  0.2490678810752199  0.45441048113444527  0.3893342059249604  1.0000
  C   C2        1.0  0.7509296087645795  0.545591088519039  0.6106643793410169  1.0000
  C   C3        1.0  0.21930388215506008  0.46534794665101475  0.4916548991084681  1.0000
  C   C4        1.0  0.7807010040628342  0.5346547223592848  0.5083416335412279  1.0000
  C   C5        1.0  0.1917668409081301  0.3602391119571279  0.565301027555719  1.0000
  C   C6        1.0  0.8082309405098728  0.6397666295793695  0.4346975155726439  1.0000
  C   C7        1.0  0.19381654832493922  0.24356771199980887  0.5357849436770079  1.0000
  C   C8        1.0  0.806177351493794  0.7564391038477678  0.46421133804203385  1.0000
  C   C9        1.0  0.22789942311126055  0.2296475740370098  0.4347907863219829  1.0000
  C   C10       1.0  0.772099685778926  0.7703529550196035  0.5652079158938148  1.0000
  C   C11       1.0  0.2568505671645057  0.3341957580554434  0.3600255202535862  1.0000
  C   C12       1.0  0.743145807542696  0.6658057385616301  0.6399768740525784  1.0000
  C   C13       1.0  0.27261133395098375  0.20587402579242556  0.13749646104259475  1.0000
  C   C14       1.0  0.7273819951281412  0.7941243771402707  0.8625036597746955  1.0000
  C   C15       1.0  0.4013638731647191  0.21922523883664977  0.06905749879522456  1.0000
  C   C16       1.0  0.5986336216418026  0.780776303157296  0.9309425883999648  1.0000
  C   C17       1.0  0.3873514951356539  0.17567091694394316  0.9752841772453207  1.0000
  C   C18       1.0  0.6126457254761846  0.8243263563585825  0.024721208839722033  1.0000
  C   C19       1.0  0.4770891250927605  0.17894550956201974  0.8855752979493585  1.0000
  C   C20       1.0  0.5229104951652985  0.8210538643720039  0.1144295831502617  1.0000
  C   C21       1.0  0.430463101221612  0.1386706831894884  0.8048833617830977  1.0000
  C   C22       1.0  0.5695350395667589  0.8613318518573363  0.19511950388638152  1.0000
  C   C23       1.0  0.2987990337622719  0.0963845819846583  0.8154189225736628  1.0000
  C   C24       1.0  0.7011985981415874  0.9036190943549867  0.18457851517660373  1.0000
  C   C25       1.0  0.20958492138711907  0.09205828656541117  0.9064874235701763  1.0000
  C   C26       1.0  0.7904174206371336  0.9079401889569991  0.09351001061605052  1.0000
  C   C27       1.0  0.25572161211336925  0.13229775434052726  0.9863708303806289  1.0000
  C   C28       1.0  0.744283980428449  0.8676985708392945  0.013630592528265581  1.0000
  C   C29       1.0  0.18381544128119742  0.14176666758498155  0.09077665056280888  1.0000
  C   C30       1.0  0.8161725267289766  0.8582359707716024  0.909219193415019  1.0000
  C   C31       1.0  0.657340470045675  0.22137055588625995  0.4191799808009406  1.0000
  C   C32       1.0  0.3426595450912373  0.7786184129724346  0.580823824978644  1.0000
  C   C33       1.0  0.782115181973069  0.136576808356061  0.49214981338116087  1.0000
  C   C34       1.0  0.21788942508341327  0.8634216196223717  0.5078505162291762  1.0000
  C   C35       1.0  0.9319168603236533  0.044618238333619296  0.4619971111349769  1.0000
  C   C36       1.0  0.06808471352156434  0.9553770268115753  0.5380046998095194  1.0000
  C   C37       1.0  0.9458245622850187  0.042872278031374784  0.3568474282588808  1.0000
  C   C38       1.0  0.05418236517906663  0.9571187931792475  0.6431564066312631  1.0000
  C   C39       1.0  0.8141938680970923  0.1304343322609823  0.28896661618138336  1.0000
  C   C40       1.0  0.1858174225338162  0.8695546754732105  0.7110366474266383  1.0000
  C   C41       1.0  0.751779776785753  0.4698904526799338  0.16885099798778205  1.0000
  C   C42       1.0  0.2482219416068859  0.5301069053216522  0.8311504164056057  1.0000
  C   C43       1.0  0.8813321502553536  0.5032307080119267  0.12482815577970287  1.0000
  C   C44       1.0  0.1186697126847065  0.4967687428460578  0.8751728620625767  1.0000
  C   C45       1.0  0.9318024458910087  0.48300729008263227  0.0255348749540616  1.0000
  C   C46       1.0  0.0682025948077438  0.5169974164649744  0.9744642650029504  1.0000
  C   C47       1.0  0.8466009921651222  0.42887494262930637  0.9762382736083591  1.0000
  C   C48       1.0  0.15338841483952595  0.5711317608596714  0.0237634817315424  1.0000
  C   C49       1.0  0.7183737717396639  0.39831813279847933  0.025487128139531006  1.0000
  C   C50       1.0  0.28162619298859687  0.6016781176245016  0.974517569713569  1.0000
  S   S1        1.0  0.2517818430674766  0.6040883016812584  0.29580710989588244  1.0000
  S   S2        1.0  0.7482243251806723  0.395916408753905  0.7041919758439688  1.0000
  N   N1        1.0  0.3000865133532145  0.31529813923430783  0.2585583632955418  1.0000
  N   N2        1.0  0.6999090129659891  0.68470759452709  0.741440288267135  1.0000
  N   N3        1.0  0.23329492303087568  0.24460439960478908  0.2264604727879841  1.0000
  N   N4        1.0  0.7666977146244777  0.7554002641797622  0.7735392635577438  1.0000
  N   N5        1.0  0.6711333984548062  0.21885339850278016  0.31858056414004204  1.0000
  N   N6        1.0  0.32887090709004235  0.7811409129117165  0.681416803749485  1.0000
  N   N7        1.0  0.670909064919492  0.41780155660386226  0.12037513138676557  1.0000
  N   N8        1.0  0.3290982937035024  0.5821958070057036  0.8796267628854505  1.0000
  O   O1        1.0  0.5098488643108466  0.26035858399485073  0.08442246582933419  1.0000
  O   O2        1.0  0.4901395547251113  0.7396502361225074  0.9155774452474005  1.0000
  O   O3        1.0  0.07508317786081158  0.10225378263723428  0.1282148015330548  1.0000
  O   O4        1.0  0.9248990821268421  0.8977562284840483  0.8717761978872217  1.0000
  O   O5        1.0  0.2689249164644352  0.6985563076528435  0.35127089164428327  1.0000
  O   O6        1.0  0.7310958182704966  0.30143906507002066  0.6487277447147404  1.0000
  O   O7        1.0  0.0980497957091302  0.6583613370086566  0.2359532494320006  1.0000
  O   O8        1.0  0.9019577817331805  0.34164760451614723  0.7640427360946587  1.0000
  O   O9        1.0  0.4008248423859158  0.5501420308521218  0.23309657998095895  1.0000
  O   O10       1.0  0.59917961515643  0.44985433192945107  0.7669026442512814  1.0000
