data_image0
_chemical_formula_structural       Cu2H44C52N24O28
_chemical_formula_sum              "Cu2 H44 C52 N24 O28"
_cell_length_a       12.57239610368113
_cell_length_b       12.833946526416316
_cell_length_c       12.836
_cell_angle_alpha    62.24922240401279
_cell_angle_beta     68.08874752374062
_cell_angle_gamma    89.60037142565965

_space_group_name_H-M_alt    "P 1"
_space_group_IT_number       1

loop_
  _space_group_symop_operation_xyz
  'x, y, z'

loop_
  _atom_site_type_symbol
  _atom_site_label
  _atom_site_symmetry_multiplicity
  _atom_site_fract_x
  _atom_site_fract_y
  _atom_site_fract_z
  _atom_site_occupancy
  Cu  Cu1       1.0  0.7232232078130565  0.0120420766310687  0.24542653407968362  1.0000
  Cu  Cu2       1.0  0.2767781382559633  0.9879592305349122  0.7545733781461621  1.0000
  H   H1        1.0  0.9219122371519859  0.420953844108368  0.19283046302222562  1.0000
  H   H2        1.0  0.0780930717896169  0.5790501606554272  0.8071651867581053  1.0000
  H   H3        1.0  0.7972039847929793  0.7190482934843274  0.9606277354411504  1.0000
  H   H4        1.0  0.2027996095009286  0.2809557112794678  0.039369320112896816  1.0000
  H   H5        1.0  0.6928352980894132  0.3602381109629675  0.038600439354404235  1.0000
  H   H6        1.0  0.30716536851483056  0.6397640954022776  0.9614008607139511  1.0000
  H   H7        1.0  0.010553656398414492  0.1933080607821296  0.5017607274314315  1.0000
  H   H8        1.0  0.9894462987695646  0.8066905487860367  0.49823939093211317  1.0000
  H   H9        1.0  0.887196521904812  0.11201325313115972  0.5181256397918544  1.0000
  H   H10       1.0  0.1128034332631671  0.8879853564370138  0.4818752576305839  1.0000
  H   H11       1.0  0.0452089492211769  0.1243035087608959  0.7082416407543164  1.0000
  H   H12       1.0  0.9547923648763614  0.8756933024087274  0.291760376277587  1.0000
  H   H13       1.0  0.2962290755139989  0.0716410042824549  0.2542821243276093  1.0000
  H   H14       1.0  0.7037719148368993  0.928358504484983  0.7457179761047215  1.0000
  H   H15       1.0  0.46743553685116973  0.2560883554526825  0.2678366171424642  1.0000
  H   H16       1.0  0.5325647740349382  0.7439120525140268  0.7321609758378997  1.0000
  H   H17       1.0  0.4812899277761815  0.8114715913075017  0.19839883206306302  1.0000
  H   H18       1.0  0.5187074554202624  0.18852701826067184  0.8016030054316019  1.0000
  H   H19       1.0  0.6081716565304376  0.9260088967910605  0.08722957926990939  1.0000
  H   H20       1.0  0.3918265839898538  0.0739897127771059  0.9127711658084507  1.0000
  H   H21       1.0  0.43561791018579743  0.1779973948026452  0.01761418607386394  1.0000
  H   H22       1.0  0.5643796508697106  0.8220021139647926  0.9823863887292177  1.0000
  H   H23       1.0  0.579954491840617  0.1522128557199167  0.9759873938299393  1.0000
  H   H24       1.0  0.4200447838625863  0.8477866530475211  0.024013333317213992  1.0000
  H   H25       1.0  0.8152663718422913  0.5443230848271696  0.4754551901864304  1.0000
  H   H26       1.0  0.18473133510079975  0.4556728271431822  0.5245454476722172  1.0000
  H   H27       1.0  0.5906182580863587  0.3309853602937665  0.42763245897091196  1.0000
  H   H28       1.0  0.40937605153282414  0.6690150476729428  0.5723673275113157  1.0000
  H   H29       1.0  0.8548236335508148  0.8710920997413751  0.6421260186222283  1.0000
  H   H30       1.0  0.1451763216171713  0.1289065098267912  0.3578740997413163  1.0000
  H   H31       1.0  0.9580267349859639  0.8063506514617772  0.7034575648894901  1.0000
  H   H32       1.0  0.04197236285816789  0.1936479581063963  0.2965428668314587  1.0000
  H   H33       1.0  0.8824630907565164  0.933811248861538  0.04079280479750487  1.0000
  H   H34       1.0  0.11753857905915768  0.0661873607066283  0.9592082449690124  1.0000
  H   H35       1.0  0.2580407173567139  0.9100633961265743  0.5558955349453356  1.0000
  H   H36       1.0  0.7419578788817063  0.089937011840135  0.4441065800443268  1.0000
  H   H37       1.0  0.6049052068026413  0.7137421185888684  0.26940738712159634  1.0000
  H   H38       1.0  0.3950946024777551  0.2862600877763839  0.7305942263041699  1.0000
  H   H39       1.0  0.3545093534099166  0.9605282575878178  0.15367401427474187  1.0000
  H   H40       1.0  0.6454882076455916  0.03947125117962  0.8463273395872334  1.0000
  H   H41       1.0  0.0747849805991905  0.0054644339670702  0.6117070124852688  1.0000
  H   H42       1.0  0.9252141172449412  0.9945341756010961  0.3882934192356799  1.0000
  H   H43       1.0  0.8573364043879153  0.2664705102303415  0.7579116524706534  1.0000
  H   H44       1.0  0.14266405238577562  0.733526300939289  0.24208911980086595  1.0000
  C   C1        1.0  0.8643330844363319  0.5762734333079962  0.07951540180202704  1.0000
  C   C2        1.0  0.135671189322359  0.4237296722565205  0.9204802659095108  1.0000
  C   C3        1.0  0.8695456288248665  0.4546774135506979  0.13747436638559632  1.0000
  C   C4        1.0  0.1304605374405838  0.5453265912130973  0.8625209700373305  1.0000
  C   C5        1.0  0.7403838410037693  0.5431766057572318  0.9924459280565118  1.0000
  C   C6        1.0  0.2596202548958573  0.4568256006080134  0.007551781405510309  1.0000
  C   C7        1.0  0.8003056165829532  0.6238779418896527  0.005686921995831594  1.0000
  C   C8        1.0  0.1996996923586494  0.3761260628741426  0.9943079487256057  1.0000
  C   C9        1.0  0.7059491031786749  0.42866987304886817  0.4584226917132737  1.0000
  C   C10       1.0  0.2940486357358978  0.5713305349178412  0.5415735041626277  1.0000
  C   C11       1.0  0.7411374027254709  0.4207308426892737  0.05068285026450772  1.0000
  C   C12       1.0  0.2588665153150913  0.579270464476707  0.9493176800069064  1.0000
  C   C13       1.0  0.9790408362036017  0.1119745875625213  0.5044679978573895  1.0000
  C   C14       1.0  0.020959118964377393  0.888024022005645  0.49553212050614787  1.0000
  C   C15       1.0  0.8058350857285247  0.3762069908084911  0.12456244589454717  1.0000
  C   C16       1.0  0.19416986749494922  0.6237952155567612  0.8754341711511696  1.0000
  C   C17       1.0  0.7681950188964635  0.7634813262387824  0.3383548764020998  1.0000
  C   C18       1.0  0.23180561573629888  0.2365163841301126  0.6616469703545178  1.0000
  C   C19       1.0  0.7156257428620451  0.6415606955448183  0.3691949080023491  1.0000
  C   C20       1.0  0.2843743901649987  0.3584388132226195  0.6308047267284991  1.0000
  C   C21       1.0  0.41786745517104146  0.1785890679226583  0.36227786844389687  1.0000
  C   C22       1.0  0.5821311410673786  0.8214113400440439  0.6377219093690768  1.0000
  C   C23       1.0  0.5164955297476794  0.8986291782023913  0.10811364824388647  1.0000
  C   C24       1.0  0.4835030664907336  0.10137122976431812  0.8918869086279811  1.0000
  C   C25       1.0  0.4895618982670769  0.1146263262113436  0.0016784314111931396  1.0000
  C   C26       1.0  0.510437733154248  0.8853749809546372  0.998320549411673  1.0000
  C   C27       1.0  0.8069659654462099  0.2434546057016007  0.18969484483768878  1.0000
  C   C28       1.0  0.1930358822285285  0.7565449030658371  0.8103049422372379  1.0000
  C   C29       1.0  0.7517967474025725  0.5383838736452589  0.438559614062747  1.0000
  C   C30       1.0  0.2482030299063425  0.46161383672364315  0.5614409879334872  1.0000
  C   C31       1.0  0.6258314067440267  0.4172752198925878  0.4112791839235114  1.0000
  C   C32       1.0  0.37416651002961027  0.582726087273393  0.588719644555283  1.0000
  C   C33       1.0  0.9479471116158891  0.8838139710209775  0.6232754719633031  1.0000
  C   C34       1.0  0.0520524878339614  0.1161828401486531  0.3767248346067332  1.0000
  C   C35       1.0  0.5908986005040617  0.5220265397148651  0.3442183024551612  1.0000
  C   C36       1.0  0.4090986368047922  0.47797566665038727  0.6557819138661428  1.0000
  C   C37       1.0  0.8616632339901216  0.0215744880980608  0.9964700885249512  1.0000
  C   C38       1.0  0.1383374006426408  0.978423222270834  0.0035309791727728013  1.0000
  C   C39       1.0  0.30907742603395855  0.9994303156291835  0.5097544414552432  1.0000
  C   C40       1.0  0.6909213480635259  0.0005709915367902  0.4902464108428291  1.0000
  C   C41       1.0  0.6330207639167752  0.6331298031842323  0.3232214312023629  1.0000
  C   C42       1.0  0.3669769749977974  0.366870604782477  0.6767802180858168  1.0000
  C   C43       1.0  0.4524163326011106  0.0053079732939949  0.23552473201008436  1.0000
  C   C44       1.0  0.5475829431020856  0.9946915354734429  0.7644759951370759  1.0000
  C   C45       1.0  0.9074266432435962  0.998094105513168  0.743944628380625  1.0000
  C   C46       1.0  0.09257195299482389  0.0019063024535413  0.256055149432349  1.0000
  C   C47       1.0  0.4471857448638231  0.9912269206840492  0.12714049705964917  1.0000
  C   C48       1.0  0.5528143881632204  0.0087725880833887  0.8728591376711989  1.0000
  C   C49       1.0  0.9841915936963447  0.9989141752478972  0.6205608497151757  1.0000
  C   C50       1.0  0.0158083614716347  0.0010844343202692  0.37943926864836897  1.0000
  C   C51       1.0  0.8469126890687235  0.19343035188292393  0.8514742582248188  1.0000
  C   C52       1.0  0.1530879455640388  0.806567358485978  0.14852525135511038  1.0000
  N   N1        1.0  0.7984850008692418  0.0766495442193644  0.0554464547212988  1.0000
  N   N2        1.0  0.20151495429873728  0.923349065348802  0.9445536636422458  1.0000
  N   N3        1.0  0.331865821122193  0.053174148863377  0.5672028081815839  1.0000
  N   N4        1.0  0.6681339881582032  0.9468280575018753  0.4327972471263877  1.0000
  N   N5        1.0  0.400749281160941  0.1660281533124888  0.47523705877905786  1.0000
  N   N6        1.0  0.5992503502603839  0.833973153853492  0.5247619220438081  1.0000
  N   N7        1.0  0.7890085290280169  0.18508848025012273  0.964913421882464  1.0000
  N   N8        1.0  0.210991248280898  0.8149092301187721  0.03508718011377712  1.0000
  N   N9        1.0  0.6695601513945064  0.587784982369449  0.9170297103224101  1.0000
  N   N10       1.0  0.3304420519983609  0.4122163247965318  0.08296988854602459  1.0000
  N   N11       1.0  0.9258268147647399  0.6562706964115819  0.1011057546195033  1.0000
  N   N12       1.0  0.0741789957825816  0.3437315099536704  0.8988921071866045  1.0000
  N   N13       1.0  0.745333035558801  0.3203118649524583  0.5299662668297387  1.0000
  N   N14       1.0  0.254661419947972  0.6796849462171721  0.4700366989436516  1.0000
  N   N15       1.0  0.5083589188930518  0.5151827340667836  0.28997195983314583  1.0000
  N   N16       1.0  0.491636959486236  0.48482127069700454  0.7100271368786865  1.0000
  N   N17       1.0  0.9607507492364749  0.0684362580822508  0.7712347478740113  1.0000
  N   N18       1.0  0.039249885396287695  0.9315614522866441  0.22876554076481884  1.0000
  N   N19       1.0  0.8944381463982083  0.093227181971038  0.8670269478392711  1.0000
  N   N20       1.0  0.10556231037548258  0.9067696291985926  0.13297304537335458  1.0000
  N   N21       1.0  0.3630321003679029  0.05391958505865801  0.2848176733635981  1.0000
  N   N22       1.0  0.6369678548000763  0.9460790245095155  0.7151824449999465  1.0000
  N   N23       1.0  0.36040089037664563  0.077272689313844  0.37961828142574205  1.0000
  N   N24       1.0  0.639599242650398  0.9227268194535939  0.6203813533051061  1.0000
  O   O1        1.0  0.7341261365159966  0.850256753443695  0.2643227878502259  1.0000
  O   O2        1.0  0.2658777815245656  0.1497445537222859  0.7356785214800822  1.0000
  O   O3        1.0  0.5284467989466037  0.9789717338258654  0.2772064966875761  1.0000
  O   O4        1.0  0.47155247675659945  0.0210277749415724  0.722795009518478  1.0000
  O   O5        1.0  0.8921764668411355  0.2092229886714136  0.21452696583302358  1.0000
  O   O6        1.0  0.1078240219040438  0.7907783184945673  0.7854717016324386  1.0000
  O   O7        1.0  0.7144333927049971  0.1772087970423826  0.21416376333916515  1.0000
  O   O8        1.0  0.285566918181118  0.8227916109243267  0.7858353877589862  1.0000
  O   O9        1.0  0.6241680238171696  0.5162797571768465  0.8990884786817759  1.0000
  O   O10       1.0  0.375829715097403  0.4837206507898628  0.10091550778308538  1.0000
  O   O11       1.0  0.6595598899461237  0.6944686814241194  0.877195214687859  1.0000
  O   O12       1.0  0.3404433486296554  0.3055335249411328  0.12280202907268027  1.0000
  O   O13       1.0  0.9829079265819658  0.6120453786886131  0.16625912942316742  1.0000
  O   O14       1.0  0.0170966709233724  0.3879550292780962  0.8337400130057303  1.0000
  O   O15       1.0  0.9150302155369586  0.7627295956486152  0.05515482828774763  1.0000
  O   O16       1.0  0.0849747376865153  0.2372726107166372  0.9448456840524598  1.0000
  O   O17       1.0  0.44856517132240725  0.5936144912403591  0.26934920071056473  1.0000
  O   O18       1.0  0.5514305291978161  0.4063886143241646  0.7306527168106526  1.0000
  O   O19       1.0  0.5055058324216759  0.4317424369563057  0.26756080015616135  1.0000
  O   O20       1.0  0.494489010774707  0.5682606686082181  0.7324383144868777  1.0000
  O   O21       1.0  0.8080919448930572  0.3284702999340681  0.5819142521810647  1.0000
  O   O22       1.0  0.1918949405866854  0.6715229144384764  0.4180970502768561  1.0000
  O   O23       1.0  0.7139205445631233  0.2270010574492574  0.5332013307301793  1.0000
  O   O24       1.0  0.28607494612656126  0.7729966529196375  0.46679694275862  1.0000
  O   O25       1.0  0.8404819394151912  0.7692847583308476  0.3826331110192386  1.0000
  O   O26       1.0  0.1595212352176247  0.2307084560416968  0.6173691214123167  1.0000
  O   O27       1.0  0.8040862483130198  0.9428598911209818  0.8129884183671335  1.0000
  O   O28       1.0  0.19591134471397  0.0571441136428135  0.1870100516298834  1.0000
