data_image0
_chemical_formula_structural       Cd2H44C56N20O8
_chemical_formula_sum              "Cd2 H44 C56 N20 O8"
_cell_length_a       6.946317367596974
_cell_length_b       12.77386754089832
_cell_length_c       15.856321450875619
_cell_angle_alpha    98.4849008399627
_cell_angle_beta     100.18126801830526
_cell_angle_gamma    103.05800245660718

_space_group_name_H-M_alt    "P 1"
_space_group_IT_number       1

loop_
  _space_group_symop_operation_xyz
  'x, y, z'

loop_
  _atom_site_type_symbol
  _atom_site_label
  _atom_site_symmetry_multiplicity
  _atom_site_fract_x
  _atom_site_fract_y
  _atom_site_fract_z
  _atom_site_occupancy
  Cd  Cd1       1.0  0.22250458550750093  0.7122078613532777  0.2502971567520759  1.0000
  Cd  Cd2       1.0  0.7774977760900583  0.28778727225746087  0.7497036134822394  1.0000
  H   H1        1.0  0.7529104097420145  0.8269315600604443  0.4179296974139887  1.0000
  H   H2        1.0  0.2470657053788941  0.17305453321293382  0.5820684779204228  1.0000
  H   H3        1.0  0.6925206593208486  0.3902700145045588  0.08123449437777451  1.0000
  H   H4        1.0  0.30747349499085885  0.6097415550777258  0.9187626286991488  1.0000
  H   H5        1.0  0.6476817155986223  0.6999662947949616  0.017654596450626087  1.0000
  H   H6        1.0  0.3523204744741548  0.3000436667711456  0.9823410752811341  1.0000
  H   H7        1.0  0.5713460066614787  0.5558639156510028  0.22211782127216403  1.0000
  H   H8        1.0  0.4286678142631288  0.44413693058776005  0.7778871007059748  1.0000
  H   H9        1.0  0.39921043764309166  0.6746214610831561  0.4528407607743361  1.0000
  H   H10       1.0  0.6007824689892161  0.3253662309692019  0.5471633701415328  1.0000
  H   H11       1.0  0.7096732922983834  0.570619197417429  0.4948314709468491  1.0000
  H   H12       1.0  0.29032120863646327  0.42937179544068726  0.5051713076488155  1.0000
  H   H13       1.0  0.8703279395814221  0.4898112525862999  0.2816895137115907  1.0000
  H   H14       1.0  0.12968266061392333  0.5101920480634305  0.7183154577790276  1.0000
  H   H15       1.0  0.9793751782491852  0.5395499246996637  0.3965121545590192  1.0000
  H   H16       1.0  0.020636885173779238  0.4604533772234944  0.603492933936991  1.0000
  H   H17       1.0  0.5807591164538835  0.31480062132664705  0.18242596355868562  1.0000
  H   H18       1.0  0.41926480766345253  0.6852060057589996  0.8175773340826069  1.0000
  H   H19       1.0  0.4098376114427182  0.11664075361198915  0.1266478642296178  1.0000
  H   H20       1.0  0.5901801773893638  0.8833683330591314  0.8733546201272162  1.0000
  H   H21       1.0  0.4136440687161027  0.9816272584682653  0.22294282574404184  1.0000
  H   H22       1.0  0.5863593343337002  0.018376113027976308  0.7770552728581706  1.0000
  H   H23       1.0  0.5863767694544606  0.03691879503250561  0.3791768116674988  1.0000
  H   H24       1.0  0.4136220890390517  0.9630812576683924  0.6208236628164129  1.0000
  H   H25       1.0  0.2169769199761545  0.7937924531521291  0.059465528151776  1.0000
  H   H26       1.0  0.7830176085139084  0.20621084893262057  0.9405368987072008  1.0000
  H   H27       1.0  0.5521758153496136  0.921383872658069  0.014913578969853293  1.0000
  H   H28       1.0  0.44781658978611466  0.07862108114339611  0.9850876233251568  1.0000
  H   H29       1.0  0.7437725395974083  0.8145951875553337  0.2490252772203974  1.0000
  H   H30       1.0  0.2562299887728372  0.18540326875183413  0.7509721373298887  1.0000
  H   H31       1.0  0.0882491118447888  0.0753776613146613  0.325412214308713  1.0000
  H   H32       1.0  0.9117456750384106  0.9246199460508536  0.6745863680634655  1.0000
  H   H33       1.0  0.2358918494725444  0.261530262501836  0.4139322886332906  1.0000
  H   H34       1.0  0.7641090726959021  0.7384648852782052  0.5860671070233394  1.0000
  H   H35       1.0  0.25874668122676775  0.4268628482235853  0.34748789662216945  1.0000
  H   H36       1.0  0.7412618872346926  0.5731330867271894  0.6525153615017063  1.0000
  H   H37       1.0  0.12399460604720494  0.41078661395415855  0.1874805238705051  1.0000
  H   H38       1.0  0.8760096919070719  0.589212608987296  0.8125215426977235  1.0000
  H   H39       1.0  0.01306033425304058  0.9217743903936793  0.18933223033137378  1.0000
  H   H40       1.0  0.9869373671861437  0.07822321179732232  0.8106672148377356  1.0000
  H   H41       1.0  0.9522449700890263  0.9002118762731828  0.07301394946264143  1.0000
  H   H42       1.0  0.04774846084297479  0.0997890139085058  0.926984304150821  1.0000
  H   H43       1.0  0.6475809271336459  0.9567995905116363  0.5228118818077193  1.0000
  H   H44       1.0  0.3524004761481692  0.043191437213820905  0.4771860710225297  1.0000
  C   C1        1.0  0.8604880027849902  0.9029272570672192  0.4540075320209027  1.0000
  C   C2        1.0  0.1394874522091882  0.097060489196295  0.5459895357549414  1.0000
  C   C3        1.0  0.05891054042252352  0.9268096929056996  0.44063821504302325  1.0000
  C   C4        1.0  0.9410676181483878  0.07318055919067487  0.5593555975500308  1.0000
  C   C5        1.0  0.12030505991793201  0.8490679652210531  0.3765176219475562  1.0000
  C   C6        1.0  0.8796739733325295  0.15092720206439486  0.623476874697431  1.0000
  C   C7        1.0  0.8838784930374998  0.6074443665229765  0.12045532369894832  1.0000
  C   C8        1.0  0.11611770115063534  0.392562282695728  0.8795419781229725  1.0000
  C   C9        1.0  0.688226344681013  0.5510514659202387  0.056712083527166626  1.0000
  C   C10       1.0  0.3117718096623463  0.44895928807191143  0.9432852570563808  1.0000
  C   C11       1.0  0.6057662350089218  0.43788515564488517  0.04627327276616461  1.0000
  C   C12       1.0  0.39424445187164986  0.5621240636436582  0.9537173084131396  1.0000
  C   C13       1.0  0.581529562648349  0.6124348701827316  0.009431961627278392  1.0000
  C   C14       1.0  0.4184741144505536  0.38757510809954  0.9905625695375946  1.0000
  C   C15       1.0  0.5616635652089599  0.5740129569292877  0.290046192877341  1.0000
  C   C16       1.0  0.4383450629319015  0.42598623122562884  0.709959368637783  1.0000
  C   C17       1.0  0.4790560945015301  0.6331063033993374  0.4115204632730353  1.0000
  C   C18       1.0  0.520932529724341  0.36688466892234584  0.5884831048733261  1.0000
  C   C19       1.0  0.6310725818617228  0.5830079210871945  0.43330257809026307  1.0000
  C   C20       1.0  0.36892743011254225  0.41698550293700265  0.5667034671948201  1.0000
  C   C21       1.0  0.8428319938052765  0.4921895900204802  0.34799631058542957  1.0000
  C   C22       1.0  0.1571819105972452  0.507814524865154  0.6520096572116713  1.0000
  C   C23       1.0  0.6837872551571991  0.28567405354129966  0.3132263977512508  1.0000
  C   C24       1.0  0.31622736886831154  0.7143284469610267  0.6867775336737125  1.0000
  C   C25       1.0  0.5852378267962095  0.25540354697175627  0.2248928161449868  1.0000
  C   C26       1.0  0.4147695883676263  0.7446022312530332  0.7751103184996779  1.0000
  C   C27       1.0  0.4909342559344053  0.14474896406385082  0.1946525775567878  1.0000
  C   C28       1.0  0.509075318281539  0.8552551856083285  0.8053498952934177  1.0000
  C   C29       1.0  0.4925041906365735  0.06714657928834811  0.2497313752799428  1.0000
  C   C30       1.0  0.5074977134878437  0.9328567677703675  0.7502684926753034  1.0000
  C   C31       1.0  0.5888143791024802  0.09720380134037751  0.3372578009402787  1.0000
  C   C32       1.0  0.41119220897882514  0.9027970925807979  0.6627421345078871  1.0000
  C   C33       1.0  0.6858488947462719  0.20863241508344288  0.36887746645742675  1.0000
  C   C34       1.0  0.3141616814674322  0.7913676555262301  0.6311233152835101  1.0000
  C   C35       1.0  0.37493453123706644  0.8190568403900048  0.09303469548214593  1.0000
  C   C36       1.0  0.6250640329824151  0.1809456692687093  0.9069660625250365  1.0000
  C   C37       1.0  0.5384293398191246  0.8806761793145983  0.06957337792567841  1.0000
  C   C38       1.0  0.4615637611410861  0.11932714466082225  0.9304270455694803  1.0000
  C   C39       1.0  0.6415409944661546  0.827551548295503  0.19330860389419513  1.0000
  C   C40       1.0  0.3584528618148042  0.17245018446070057  0.8066878968703932  1.0000
  C   C41       1.0  0.02869032308081636  0.13919599755327278  0.20531115745888678  1.0000
  C   C42       1.0  0.9713048653528417  0.8608024369440274  0.7946869296367041  1.0000
  C   C43       1.0  0.0970324955975244  0.1468338983972473  0.2949655381027583  1.0000
  C   C44       1.0  0.9029596710037354  0.8531612571849579  0.7050318979492189  1.0000
  C   C45       1.0  0.18027341307233513  0.25202491031903673  0.3438510878971215  1.0000
  C   C46       1.0  0.8197261412456597  0.7479735125558166  0.6561486077869388  1.0000
  C   C47       1.0  0.19235459930434462  0.3462131337744622  0.3057315657650932  1.0000
  C   C48       1.0  0.8076456389388796  0.6537836515529848  0.6942679799052556  1.0000
  C   C49       1.0  0.12060065898484136  0.33874820194832017  0.2170454976286109  1.0000
  C   C50       1.0  0.8793981876094178  0.6612518430312093  0.7829556056414404  1.0000
  C   C51       1.0  0.03829727417508616  0.2327019464039282  0.1666647161787367  1.0000
  C   C52       1.0  0.961704133021726  0.7672972971547691  0.8333352300202747  1.0000
  C   C53       1.0  0.9145670901111843  0.9367276356257436  0.13292383316696293  1.0000
  C   C54       1.0  0.08543035275173587  0.06327244668717921  0.8670740091669842  1.0000
  C   C55       1.0  0.8020117846561517  0.9753072172743913  0.5128177292634745  1.0000
  C   C56       1.0  0.1979673760956544  0.024682170356804506  0.4871798395422715  1.0000
  N   N1        1.0  0.4372416806399285  0.6266286279080192  0.321896760853889  1.0000
  N   N2        1.0  0.5627661919970492  0.3733689368687934  0.6781072760698451  1.0000
  N   N3        1.0  0.6813495146818197  0.5461829295988425  0.3557979841918169  1.0000
  N   N4        1.0  0.318655431499927  0.4538146326311151  0.6442058187211259  1.0000
  N   N5        1.0  0.7938925970231521  0.3830217926422606  0.3663826841955284  1.0000
  N   N6        1.0  0.20612418605445268  0.6169790793074483  0.6336205854349756  1.0000
  N   N7        1.0  0.8581948000855704  0.36688713476878826  0.44929388700739986  1.0000
  N   N8        1.0  0.14181904463754338  0.6331137269127042  0.5507097773984526  1.0000
  N   N9        1.0  0.7945154417628543  0.26358006338374207  0.45122457642769825  1.0000
  N   N10       1.0  0.2054951106523432  0.736419991783208  0.5487774628855249  1.0000
  N   N11       1.0  0.44144108775736157  0.786796216433082  0.17018448831124997  1.0000
  N   N12       1.0  0.5585600251654129  0.2132054840834385  0.829815741411025  1.0000
  N   N13       1.0  0.7055879272799712  0.8854912004101294  0.13370023726479727  1.0000
  N   N14       1.0  0.29440841820800756  0.11450968459705993  0.8662988791455958  1.0000
  N   N15       1.0  0.9502625951719423  0.0531679480750284  0.13600189141254046  1.0000
  N   N16       1.0  0.049731921235739836  0.9468321316910394  0.8639957169106225  1.0000
  N   N17       1.0  0.9113731753975642  0.0912896562484491  0.05995264039358261  1.0000
  N   N18       1.0  0.0886250348684854  0.9087120571639462  0.940046097745622  1.0000
  N   N19       1.0  0.9628557867783128  0.1979088708382548  0.0778454976350034  1.0000
  N   N20       1.0  0.037149703928058386  0.8020928257771802  0.9221557118896087  1.0000
  O   O1        1.0  0.3023494344672315  0.8712983281908395  0.3662641387004797  1.0000
  O   O2        1.0  0.6976327397913025  0.1287034098206732  0.6337301684486647  1.0000
  O   O3        1.0  0.9859606954597382  0.7636965346394933  0.3316274084283251  1.0000
  O   O4        1.0  0.01402786908673189  0.23629118447804132  0.668373856326788  1.0000
  O   O5        1.0  0.9595356968070875  0.708818616388868  0.12443153319710384  1.0000
  O   O6        1.0  0.040468676299433085  0.29119294666468687  0.8755676664898715  1.0000
  O   O7        1.0  0.9648150342352082  0.552121939627405  0.17124672900832394  1.0000
  O   O8        1.0  0.03518598670085273  0.4478823491101451  0.828743094872813  1.0000
