data_image0
_chemical_formula_structural       Zn4B16H40C12N8O28
_chemical_formula_sum              "Zn4 B16 H40 C12 N8 O28"
_cell_length_a       8.603565344010365
_cell_length_b       8.603522560003263
_cell_length_c       12.642510464010908
_cell_angle_alpha    89.99997785353372
_cell_angle_beta     89.99985111715095
_cell_angle_gamma    90.00009731607193

_space_group_name_H-M_alt    "P 1"
_space_group_IT_number       1

loop_
  _space_group_symop_operation_xyz
  'x, y, z'

loop_
  _atom_site_type_symbol
  _atom_site_label
  _atom_site_symmetry_multiplicity
  _atom_site_fract_x
  _atom_site_fract_y
  _atom_site_fract_z
  _atom_site_occupancy
  Zn  Zn1       1.0  0.5725026760144232  0.5725031984197599  2.0949100589999982e-07  1.0000
  Zn  Zn2       1.0  0.4274965974263836  0.4274972113535965  0.49999994293183647  1.0000
  Zn  Zn3       1.0  0.9274978327177974  0.0725022734150045  0.7499997361171182  1.0000
  Zn  Zn4       1.0  0.0725016484282648  0.9274979943819163  0.2500000024637075  1.0000
  B   B1        1.0  0.5411700661303411  0.7503976883036002  0.2104125371669241  1.0000
  B   B2        1.0  0.4588365400316618  0.2496060889249918  0.7104130529775005  1.0000
  B   B3        1.0  0.7496048750881812  0.0411660605992381  0.9604138028623694  1.0000
  B   B4        1.0  0.2503949649225916  0.9588352500175357  0.4604121644286466  1.0000
  B   B5        1.0  0.9588319070438586  0.2503969360169478  0.5395857796750008  1.0000
  B   B6        1.0  0.041163728313954095  0.7496057759009959  0.0395877301982566  1.0000
  B   B7        1.0  0.7503959958295567  0.5411647986871486  0.7895869052702479  1.0000
  B   B8        1.0  0.24960333415357638  0.45883195968403356  0.2895869817408112  1.0000
  B   B9        1.0  0.7761113287903214  0.8303802765532708  0.0934671912726515  1.0000
  B   B10       1.0  0.22388875006353  0.16962124245470983  0.5934673526002783  1.0000
  B   B11       1.0  0.6696198531813096  0.27611049029712825  0.8434663420831114  1.0000
  B   B12       1.0  0.3303804333783233  0.7238897244200331  0.34346699696580885  1.0000
  B   B13       1.0  0.7238884556035003  0.330380221092092  0.6565326864935344  1.0000
  B   B14       1.0  0.27611022013049785  0.6696200997848151  0.1565326606370547  1.0000
  B   B15       1.0  0.8303802544518176  0.7761104601470519  0.9065335132585445  1.0000
  B   B16       1.0  0.1696197912932575  0.22388971875395214  0.4065330019932815  1.0000
  H   H1        1.0  0.6024550358579929  0.2924353664899614  0.05288607680741109  1.0000
  H   H2        1.0  0.3975451979443959  0.7075603639910638  0.5528873714972065  1.0000
  H   H3        1.0  0.20757180180397938  0.10245681918497951  0.8028830617368712  1.0000
  H   H4        1.0  0.7924239904879045  0.8975422562619713  0.3028812719258269  1.0000
  H   H5        1.0  0.897544684088963  0.7924341230887675  0.6971146019237011  1.0000
  H   H6        1.0  0.10245616130371359  0.2075650124287165  0.19711421372048926  1.0000
  H   H7        1.0  0.2924321189677526  0.602455539210986  0.9471153504999137  1.0000
  H   H8        1.0  0.7075712587403017  0.39754345433091487  0.44711700621090233  1.0000
  H   H9        1.0  0.4911940945002939  0.3865769187650655  0.1421959563865158  1.0000
  H   H10       1.0  0.508810447516808  0.6134222479435819  0.642197870076103  1.0000
  H   H11       1.0  0.11342420816922781  0.991201986127592  0.8921920306804765  1.0000
  H   H12       1.0  0.8865758923359763  0.008793551659977096  0.39219030819470646  1.0000
  H   H13       1.0  0.0088040818544783  0.8865750657677437  0.6078039997747737  1.0000
  H   H14       1.0  0.9911947799471362  0.11342412046838038  0.10780285574462309  1.0000
  H   H15       1.0  0.38657688590510736  0.491197727398827  0.8578062792878639  1.0000
  H   H16       1.0  0.613423345892535  0.508797829915757  0.3578080722103536  1.0000
  H   H17       1.0  0.8466416957886054  0.26934147659944335  0.2931411525327476  1.0000
  H   H18       1.0  0.15335878293512198  0.7306576043836585  0.7931404999999785  1.0000
  H   H19       1.0  0.23066040003212857  0.346641920125883  0.0431399164561128  1.0000
  H   H20       1.0  0.7693398709893629  0.6533573028341095  0.543140567954346  1.0000
  H   H21       1.0  0.6533556603185674  0.7693399548616923  0.4568595322760487  1.0000
  H   H22       1.0  0.3466441932599196  0.230660195458526  0.9568594604742628  1.0000
  H   H23       1.0  0.26934119542673324  0.8466404534213152  0.7068592592260856  1.0000
  H   H24       1.0  0.7306584504480043  0.15335983887556642  0.2068593563841077  1.0000
  H   H25       1.0  0.7355962403577863  0.5110226464521757  0.2077689344338864  1.0000
  H   H26       1.0  0.2644045643524393  0.4889776453291076  0.7077689401005925  1.0000
  H   H27       1.0  0.9889790626036186  0.23559592858689635  0.9577685213609826  1.0000
  H   H28       1.0  0.0110242744270295  0.7644030589050885  0.45776973031171764  1.0000
  H   H29       1.0  0.7644018393376442  0.011020400092022  0.5422318183330503  1.0000
  H   H30       1.0  0.23559843515266005  0.9889788233838882  0.04223178009851839  1.0000
  H   H31       1.0  0.5110233008387295  0.7355942585716947  0.7922305536553509  1.0000
  H   H32       1.0  0.488974856744683  0.2644059852410905  0.2922302579896794  1.0000
  H   H33       1.0  0.8334987458132446  0.3913264339188344  0.1178183744926784  1.0000
  H   H34       1.0  0.16650007774782688  0.6086739089442685  0.6178185217942982  1.0000
  H   H35       1.0  0.10867682691394978  0.33349812870349643  0.8678195886682901  1.0000
  H   H36       1.0  0.8913233666546531  0.6665032344976537  0.3678208486861934  1.0000
  H   H37       1.0  0.6665011420846767  0.8913225103117025  0.6321822782223094  1.0000
  H   H38       1.0  0.3335011135547745  0.10867666208238086  0.1321822984567689  1.0000
  H   H39       1.0  0.3913274862486631  0.833498215905571  0.8821803447497487  1.0000
  H   H40       1.0  0.608672652487904  0.16650313914044548  0.3821798631783508  1.0000
  C   C1        1.0  0.7356133849241002  0.2643864473551432  0.2499995033928499  1.0000
  C   C2        1.0  0.26438609622346826  0.7356138204420049  0.7499994442058338  1.0000
  C   C3        1.0  0.23561647297886168  0.23561532006353048  5.516666022e-07  1.0000
  C   C4        1.0  0.7643839627652583  0.7643839273955207  0.5000019737017922  1.0000
  C   C5        1.0  0.7309376820330724  0.3962626822827601  0.1695684711274907  1.0000
  C   C6        1.0  0.26906443084736503  0.6037364688788855  0.6695700203285213  1.0000
  C   C7        1.0  0.10374264003166189  0.23094127988763796  0.9195656582143101  1.0000
  C   C8        1.0  0.8962538690214855  0.7690554046654369  0.41956530056585706  1.0000
  C   C9        1.0  0.7690598896309098  0.8962589622737982  0.5804321802908916  1.0000
  C   C10       1.0  0.23093907668667407  0.10374023950690507  0.0804315922014496  1.0000
  C   C11       1.0  0.39626149895294555  0.7309390802289784  0.8304327202206281  1.0000
  C   C12       1.0  0.6037411619903637  0.26905997957734934  0.33043380235517367  1.0000
  N   N1        1.0  0.592612598847907  0.3905823531590968  0.09958170331935891  1.0000
  N   N2        1.0  0.4073804828145668  0.6094203246863399  0.5995774695555696  1.0000
  N   N3        1.0  0.1094112363383459  0.09260261926038278  0.8495890633105105  1.0000
  N   N4        1.0  0.8905925137630603  0.9074010789251472  0.3495942161593817  1.0000
  N   N5        1.0  0.9073872877926162  0.8905823153103114  0.6504173676265879  1.0000
  N   N6        1.0  0.09261489821631838  0.10941800904215168  0.150418604612085  1.0000
  N   N7        1.0  0.39058685614921257  0.5926073441140077  0.9004140974159398  1.0000
  N   N8        1.0  0.6094085637395636  0.40739864983252966  0.4004095962539935  1.0000
  O   O1        1.0  0.4434339556982535  0.7036109781329712  0.1294888288091016  1.0000
  O   O2        1.0  0.5565636609884805  0.29638819578648407  0.6294899504730083  1.0000
  O   O3        1.0  0.7963887263350385  0.9434349261031865  0.8794890509045742  1.0000
  O   O4        1.0  0.20361142267310578  0.05656410584158779  0.3794901055156004  1.0000
  O   O5        1.0  0.056565072225005494  0.2036106589129574  0.6205103845038877  1.0000
  O   O6        1.0  0.9434372279850151  0.7963885201100708  0.1205091452526688  1.0000
  O   O7        1.0  0.7036116654763375  0.4434349986330091  0.8705107604169912  1.0000
  O   O8        1.0  0.2963885178192385  0.556565200725771  0.37050993746373007  1.0000
  O   O9        1.0  0.733450456908386  0.7334499180210655  0.9999992183327464  1.0000
  O   O10       1.0  0.266549231942939  0.26655020779941907  0.5000001064060555  1.0000
  O   O11       1.0  0.7665507405810601  0.23344900358308954  0.7499998572490867  1.0000
  O   O12       1.0  0.2334499028728487  0.7665501019002079  0.2499998813308579  1.0000
  O   O13       1.0  0.49600253924401005  0.7425229388497454  0.31460470071935026  1.0000
  O   O14       1.0  0.5039966952164933  0.2574796168867621  0.8146043436121388  1.0000
  O   O15       1.0  0.7574797139397942  0.9960031274771165  0.0646026656544407  1.0000
  O   O16       1.0  0.2425204751278258  0.003998407922871599  0.5646044195717721  1.0000
  O   O17       1.0  0.0039953924531702  0.242521473148983  0.4353960843220648  1.0000
  O   O18       1.0  0.9960033807748161  0.7574798516743186  0.9353955166309332  1.0000
  O   O19       1.0  0.7425203517432805  0.4960042495862211  0.6853971685391684  1.0000
  O   O20       1.0  0.2574793760852643  0.5039972172140564  0.18539642821910013  1.0000
  O   O21       1.0  0.6896829951641548  0.7974250696803223  0.1893612009594605  1.0000
  O   O22       1.0  0.3103109059835205  0.20257407023481017  0.6893596188257832  1.0000
  O   O23       1.0  0.7025733767600925  0.1896854256457701  0.9393602532507188  1.0000
  O   O24       1.0  0.2974265436364901  0.8103147346122553  0.4393609436693495  1.0000
  O   O25       1.0  0.8103155709519853  0.2974263777993258  0.5606386854774996  1.0000
  O   O26       1.0  0.18968812017790526  0.7025728352258299  0.0606395947601257  1.0000
  O   O27       1.0  0.7974265840926121  0.6896865562939213  0.8106396248276724  1.0000
  O   O28       1.0  0.20257382781748834  0.3103160016954476  0.31063903255269304  1.0000
