data_image0
_chemical_formula_structural       Ag8P4H56C24S4N12O24
_chemical_formula_sum              "Ag8 P4 H56 C24 S4 N12 O24"
_cell_length_a       7.003157664
_cell_length_b       10.173263111
_cell_length_c       16.6597
_cell_angle_alpha    90.0
_cell_angle_beta     90.0
_cell_angle_gamma    90.0

_space_group_name_H-M_alt    "P 1"
_space_group_IT_number       1

loop_
  _space_group_symop_operation_xyz
  'x, y, z'

loop_
  _atom_site_type_symbol
  _atom_site_label
  _atom_site_symmetry_multiplicity
  _atom_site_fract_x
  _atom_site_fract_y
  _atom_site_fract_z
  _atom_site_occupancy
  Ag  Ag1       1.0  0.6011345455837471  0.0147504294701406  0.2798171635743714  1.0000
  Ag  Ag2       1.0  0.1011358067291397  0.9852502476970457  0.7201834366765283  1.0000
  Ag  Ag3       1.0  0.10113295087454333  0.5147492936005733  0.22018283642562866  1.0000
  Ag  Ag4       1.0  0.6011359735110491  0.48525040059784175  0.7798171635743714  1.0000
  Ag  Ag5       1.0  0.3942978485540466  0.2382726145536367  0.9348313595082729  1.0000
  Ag  Ag6       1.0  0.894296587408661  0.761726096676  0.0651680402408203  1.0000
  Ag  Ag7       1.0  0.8943008711905522  0.7382695127465055  0.5651668397390139  1.0000
  Ag  Ag8       1.0  0.394296420626752  0.261726249576796  0.4348331602609861  1.0000
  P   P1        1.0  0.0032399670389580007  0.0585859220878291  0.14855069419017045  1.0000
  P   P2        1.0  0.5032415617481689  0.941413772110586  0.8514487055589228  1.0000
  P   P3        1.0  0.5032415617481689  0.5585877351245898  0.35144930580982964  1.0000
  P   P4        1.0  0.003241394966259701  0.4414129420426037  0.6485512944410772  1.0000
  H   H1        1.0  0.16931790727709037  0.0040911160505601  0.2720901336758743  1.0000
  H   H2        1.0  0.6693195019862941  0.9959095611166262  0.727909266073219  1.0000
  H   H3        1.0  0.6693180740589997  0.5040929290873208  0.22790926607321896  1.0000
  H   H4        1.0  0.16931790727709037  0.4959087310486439  0.7720901336758743  1.0000
  H   H5        1.0  0.2596157458150898  0.9145895371505263  0.18744395157175836  1.0000
  H   H6        1.0  0.7596173405242939  0.08541114001666732  0.8125554481773352  1.0000
  H   H7        1.0  0.7596159125969919  0.41459067302009345  0.3125554481773349  1.0000
  H   H8        1.0  0.2596171737423845  0.5854100041470929  0.6874445518226651  1.0000
  H   H9        1.0  0.8613685839188323  0.2766919492091375  0.1430577981596315  1.0000
  H   H10       1.0  0.3613727009188211  0.7233067620204991  0.8569404010876553  1.0000
  H   H11       1.0  0.3613712729915194  0.7766947452146766  0.3569422018403685  1.0000
  H   H12       1.0  0.8613728677007233  0.2233059319525168  0.6430601991632514  1.0000
  H   H13       1.0  0.9169477981354248  0.2284478416258651  0.24390715319003684  1.0000
  H   H14       1.0  0.4169547709900031  0.7715528355413213  0.7560910460572501  1.0000
  H   H15       1.0  0.416950487208112  0.7284486716938474  0.2560928468099632  1.0000
  H   H16       1.0  0.9169549377719124  0.2715529884421173  0.7439095541936496  1.0000
  H   H17       1.0  0.17292913541350435  0.9866568760171717  0.0299741291860016  1.0000
  H   H18       1.0  0.6729293021954136  0.013341835212465  0.9700264710649051  1.0000
  H   H19       1.0  0.6729307301227152  0.4866580118867462  0.4700258708139984  1.0000
  H   H20       1.0  0.17292913541350435  0.5133406993428906  0.5299729286841881  1.0000
  H   H21       1.0  0.0183645729784345  0.1212973641334116  0.0071351825062891  1.0000
  H   H22       1.0  0.518363311833042  0.8787003641274467  0.9928636169919045  1.0000
  H   H23       1.0  0.5183661676876383  0.6212981942014011  0.49286541774461773  1.0000
  H   H24       1.0  0.0183645729784345  0.378698551090686  0.5071357827571958  1.0000
  H   H25       1.0  0.5525250445082648  0.18661170750093703  0.1129125974657441  1.0000
  H   H26       1.0  0.05252630565365731  0.8133889696662564  0.8870874025342559  1.0000
  H   H27       1.0  0.05252630565365731  0.6866115546001411  0.3870874025342559  1.0000
  H   H28       1.0  0.5525264724355665  0.3133881395982669  0.6129125974657441  1.0000
  H   H29       1.0  0.4716115441721415  0.022364505618064405  0.0945707305653798  1.0000
  H   H30       1.0  0.971610283026749  0.9776361715491293  0.9054292694346202  1.0000
  H   H31       1.0  0.9716117109540505  0.5223643527172684  0.4054280689328138  1.0000
  H   H32       1.0  0.4716101162448397  0.4776353414811397  0.594570130314473  1.0000
  H   H33       1.0  0.10202540543573951  0.3408542531698231  0.0536432228671586  1.0000
  H   H34       1.0  0.602028428072245  0.6591444580598136  0.9463561768819349  1.0000
  H   H35       1.0  0.6020298559995397  0.8408560662065839  0.4463573773837482  1.0000
  H   H36       1.0  0.10202826129033583  0.1591426450230529  0.5536456238707785  1.0000
  H   H37       1.0  0.3392940890385178  0.37282727858467274  0.0888665462163161  1.0000
  H   H38       1.0  0.8392971116750234  0.6271724156137353  0.9111334537836839  1.0000
  H   H39       1.0  0.8392971116750234  0.8728271256838838  0.411133453783684  1.0000
  H   H40       1.0  0.3392983728204158  0.1271706025769745  0.5888677467181296  1.0000
  H   H41       1.0  0.24539644578248956  0.23365462723850783  0.2884343655648038  1.0000
  H   H42       1.0  0.7453994684189951  0.7663450669599001  0.7115644339333826  1.0000
  H   H43       1.0  0.7453994684189951  0.7336564402752686  0.2115650341842894  1.0000
  H   H44       1.0  0.24540215749168234  0.2663471857982529  0.7884355660666174  1.0000
  H   H45       1.0  0.4248040873466223  0.3066223655050422  0.2265532992790966  1.0000
  H   H46       1.0  0.9248085379104226  0.6933783116621512  0.7734461004699966  1.0000
  H   H47       1.0  0.924807109983121  0.8066231955730245  0.273447300971803  1.0000
  H   H48       1.0  0.4248083711285134  0.1933794475317185  0.7265544997809102  1.0000
  H   H49       1.0  0.1581272410433598  0.45735276373311257  0.898094803627913  1.0000
  H   H50       1.0  0.6581259798979745  0.5426469304652954  0.1019051963720869  1.0000
  H   H51       1.0  0.658127407825269  0.957350644894767  0.601905196372087  1.0000
  H   H52       1.0  0.15812438518876354  0.0426480663348698  0.3980948036279132  1.0000
  H   H53       1.0  0.30634323871192504  0.5338434620970034  0.9518784852068194  1.0000
  H   H54       1.0  0.8063419775665324  0.46615623210140467  0.04812151479318061  1.0000
  H   H55       1.0  0.8063434054938343  0.033842632029021  0.5481221150440874  1.0000
  H   H56       1.0  0.30634038285732873  0.9661580451381654  0.4518784852068194  1.0000
  C   C1        1.0  0.20851593953204176  0.010533493416105003  0.208515759587506  1.0000
  C   C2        1.0  0.7085175342412526  0.9894671837510884  0.7914836401615872  1.0000
  C   C3        1.0  0.7085161063139511  0.5105353064528657  0.2914836401615872  1.0000
  C   C4        1.0  0.20851736745934354  0.4894663536831061  0.708515759587506  1.0000
  C   C5        1.0  0.9671408705842881  0.2276201819154906  0.1814726555700261  1.0000
  C   C6        1.0  0.4671435596569752  0.7723785293141461  0.8185261439281604  1.0000
  C   C7        1.0  0.4671435596569752  0.7276210119834801  0.3185273444299739  1.0000
  C   C8        1.0  0.9671437264388845  0.272378682214935  0.6814744563227466  1.0000
  C   C9        1.0  0.11861078100097443  0.0817466324153955  0.0516840039136355  1.0000
  C   C10       1.0  0.6186095198555819  0.9182530617830196  0.948315395835458  1.0000
  C   C11       1.0  0.6186123757101782  0.5817474624833778  0.4483159960863645  1.0000
  C   C12       1.0  0.11860935307367983  0.4182512487462589  0.5516834036627287  1.0000
  C   C13       1.0  0.4289322251648785  0.1204205559841824  0.1147607700018582  1.0000
  C   C14       1.0  0.9289323919467876  0.879580121183011  0.885238629747235  1.0000
  C   C15       1.0  0.9289338198740895  0.6204213860521648  0.38523862974723505  1.0000
  C   C16       1.0  0.42893365309218023  0.3795792911150215  0.6147607700018582  1.0000
  C   C17       1.0  0.2185285657449967  0.3045424035725617  0.09150945095049681  1.0000
  C   C18       1.0  0.7185315883815022  0.6954572906258535  0.9084899487985965  1.0000
  C   C19       1.0  0.7185315883815022  0.804543233640544  0.4084899487985965  1.0000
  C   C20       1.0  0.21853142159959305  0.195456460557871  0.5915112517032102  1.0000
  C   C21       1.0  0.300804308723329  0.24094039181485982  0.22701729322857037  1.0000
  C   C22       1.0  0.8008073313598347  0.7590593023835552  0.7729821065205229  1.0000
  C   C23       1.0  0.8008073313598347  0.7409412218828423  0.2729827067714297  1.0000
  C   C24       1.0  0.30080859250522  0.2590594552843442  0.7270178934794771  1.0000
  S   S1        1.0  0.8461525906322935  0.1888391147499959  0.4041345282328025  1.0000
  S   S2        1.0  0.3461538517776859  0.8111605794484192  0.5958654717671976  1.0000
  S   S3        1.0  0.3461538517776859  0.6888369959116432  0.0958654717671976  1.0000
  S   S4        1.0  0.8461554464868899  0.3111617153179935  0.9041345282328024  1.0000
  N   N1        1.0  0.363344668517236  0.110322517736364  0.1989153466148821  1.0000
  N   N2        1.0  0.8633462632264399  0.8896781594308295  0.8010840531342112  1.0000
  N   N3        1.0  0.8633462632264399  0.610322364835568  0.30108465338511803  1.0000
  N   N4        1.0  0.36334752437183243  0.3896783123316183  0.6989153466148821  1.0000
  N   N5        1.0  0.281592974857233  0.17499203358606513  0.0604326608522356  1.0000
  N   N6        1.0  0.7815945695664439  0.82500766061235  0.9395667388968576  1.0000
  N   N7        1.0  0.7815959974937388  0.6749928636540474  0.4395667388968576  1.0000
  N   N8        1.0  0.2815944027845348  0.3250058475755893  0.5604332611031424  1.0000
  N   N9        1.0  0.1513831404153265  0.3002969614239817  0.1756304135128488  1.0000
  N   N10       1.0  0.651387590979134  0.6997027327744335  0.8243689862362444  1.0000
  N   N11       1.0  0.6513861630518321  0.8002987744607425  0.3243695864871512  1.0000
  N   N12       1.0  0.15138742419722465  0.1997019027064439  0.675632214265562  1.0000
  O   O1        1.0  0.8287561523618407  0.9711495605886143  0.149746393992686  1.0000
  O   O2        1.0  0.3287574135072333  0.028848167672244105  0.8502530057564073  1.0000
  O   O3        1.0  0.3287559855799387  0.4711506964581815  0.35025300575640733  1.0000
  O   O4        1.0  0.8287575802891427  0.5288480147714553  0.6497469942435928  1.0000
  O   O5        1.0  0.2979156117996525  0.46642556554635217  0.9087582609530784  1.0000
  O   O6        1.0  0.7979157785815617  0.533574128652063  0.0912417390469216  1.0000
  O   O7        1.0  0.7979157785815617  0.9664234467080064  0.5912417390469216  1.0000
  O   O8        1.0  0.2979127559450561  0.0335752645216303  0.40875826095307843  1.0000
  O   O9        1.0  0.66310516238579  0.21487795765710163  0.3576426946463656  1.0000
  O   O10       1.0  0.16310642353117547  0.7851217365413136  0.6423591061063547  1.0000
  O   O11       1.0  0.1631092793857718  0.7148758388187559  0.142358505855448  1.0000
  O   O12       1.0  0.6631108740949827  0.2851218894421095  0.8576408938936453  1.0000
  O   O13       1.0  0.9286553740509904  0.0632510919042488  0.3720937351813092  1.0000
  O   O14       1.0  0.4286566351963829  0.9367486022941591  0.6279068650695976  1.0000
  O   O15       1.0  0.4286594910509791  0.5632489730659032  0.1279050643168844  1.0000
  O   O16       1.0  0.9286582299055868  0.4367517041012832  0.8720949356831156  1.0000
  O   O17       1.0  0.8002433000771563  0.17654020941009924  0.4911541024148108  1.0000
  O   O18       1.0  0.3002417053679522  0.8234604677570871  0.508846497836096  1.0000
  O   O19       1.0  0.3002417053679522  0.6765410394780886  0.0088458975851893  1.0000
  O   O20       1.0  0.8002404442225599  0.3234586547203264  0.991153502163904  1.0000
  O   O21       1.0  0.9810974319940726  0.2985138560622076  0.3896966932177648  1.0000
  O   O22       1.0  0.4810986931394582  0.7014858381362075  0.610302106280429  1.0000
  O   O23       1.0  0.4811001210667598  0.7985137031614117  0.11030210628042172  1.0000
  O   O24       1.0  0.9811031437032655  0.2014879569745531  0.8896978937195783  1.0000
