data_image0
_chemical_formula_structural       Cd4H72C72N16O16
_chemical_formula_sum              "Cd4 H72 C72 N16 O16"
_cell_length_a       11.905420367324549
_cell_length_b       13.63572642905715
_cell_length_c       15.838502263332172
_cell_angle_alpha    92.23521253031689
_cell_angle_beta     112.07452491238044
_cell_angle_gamma    89.99052722069939

_space_group_name_H-M_alt    "P 1"
_space_group_IT_number       1

loop_
  _space_group_symop_operation_xyz
  'x, y, z'

loop_
  _atom_site_type_symbol
  _atom_site_label
  _atom_site_symmetry_multiplicity
  _atom_site_fract_x
  _atom_site_fract_y
  _atom_site_fract_z
  _atom_site_occupancy
  Cd  Cd1       1.0  0.44949071277537916  0.3672880172134754  0.45133464346327684  1.0000
  Cd  Cd2       1.0  0.9981894413887956  0.1325504463737488  0.5488596482136575  1.0000
  Cd  Cd3       1.0  0.550513237137821  0.6327091992329911  0.5486673231806805  1.0000
  Cd  Cd4       1.0  0.0018075665867484196  0.8674504291866113  0.45113817856251615  1.0000
  H   H1        1.0  0.30049955577116805  0.4115675939872858  0.24428167827013436  1.0000
  H   H2        1.0  0.05602474162411399  0.08794113457948778  0.7560172311033428  1.0000
  H   H3        1.0  0.6995031307826239  0.5884332987707238  0.7557227147710252  1.0000
  H   H4        1.0  0.9439774336188621  0.9120619466548872  0.24398217042251277  1.0000
  H   H5        1.0  0.3199896767524351  0.4085985411998792  0.09120225112218354  1.0000
  H   H6        1.0  0.22861518375405168  0.09094751174558269  0.9090770398227479  1.0000
  H   H7        1.0  0.680013074749134  0.5914023420231306  0.9087985886593517  1.0000
  H   H8        1.0  0.7713875733802595  0.909051898682513  0.09092196936727258  1.0000
  H   H9        1.0  0.7061029158486108  0.380449337700199  0.23456732665916055  1.0000
  H   H10       1.0  0.47125508744371547  0.11930761739094459  0.7656546587556579  1.0000
  H   H11       1.0  0.29389982223238326  0.6195508115091001  0.7654334861415253  1.0000
  H   H12       1.0  0.5287450390848889  0.8806881211521898  0.2343434686265412  1.0000
  H   H13       1.0  0.6705599117067536  0.38710115994098965  0.3794914826353094  1.0000
  H   H14       1.0  0.2907775744054107  0.11262096863305258  0.6207572643865265  1.0000
  H   H15       1.0  0.3294427698755912  0.6128967896109572  0.6205101375377212  1.0000
  H   H16       1.0  0.7092238953447207  0.8873799136817268  0.3792432019432398  1.0000
  H   H17       1.0  0.6507766094338411  0.3728666158770507  0.9903712237616492  1.0000
  H   H18       1.0  0.6600936541844574  0.12700715320950448  0.009691350746230417  1.0000
  H   H19       1.0  0.3492216774767627  0.6271349969889857  0.00962789176206512  1.0000
  H   H20       1.0  0.3399097625482455  0.8729937268919913  0.9903083432888452  1.0000
  H   H21       1.0  0.6957653277756608  0.30605810922744325  0.0927000682655789  1.0000
  H   H22       1.0  0.6024589637440912  0.19383349040498388  0.9073730297990041  1.0000
  H   H23       1.0  0.3042380727200965  0.6939427732578024  0.9073005140844048  1.0000
  H   H24       1.0  0.39753992626624074  0.8061673924770856  0.09262757794210333  1.0000
  H   H25       1.0  0.7120749416539525  0.4358135368335923  0.09954810306371815  1.0000
  H   H26       1.0  0.6122638982082267  0.06409958181517789  0.9005011737769881  1.0000
  H   H27       1.0  0.2879265252798079  0.5641880818786403  0.9004532785618056  1.0000
  H   H28       1.0  0.3877401647022864  0.9359020339460074  0.09949917812227946  1.0000
  H   H29       1.0  0.22062341994215737  0.3701007554511406  0.901652790110248  1.0000
  H   H30       1.0  0.3190094837851021  0.12953126557939498  0.09869245395751146  1.0000
  H   H31       1.0  0.7793740725030603  0.6298964636054476  0.09834997421952354  1.0000
  H   H32       1.0  0.6809855856570053  0.8704674030018895  0.9013033992260805  1.0000
  H   H33       1.0  0.1703781226013207  0.29872673985467185  0.7961812322526999  1.0000
  H   H34       1.0  0.3742914413788512  0.20087783435425166  0.20419239210126966  1.0000
  H   H35       1.0  0.8296213140100831  0.7012712133860787  0.2038216750781461  1.0000
  H   H36       1.0  0.6257029628321221  0.7991208373485464  0.7958046068287887  1.0000
  H   H37       1.0  0.1690717435415792  0.42735419763024407  0.7935574834254384  1.0000
  H   H38       1.0  0.37584959740995333  0.07222461932316551  0.20679715414383543  1.0000
  H   H39       1.0  0.8309263844772515  0.5726422866748777  0.2064449964919249  1.0000
  H   H40       1.0  0.6241531759613038  0.9277747887211873  0.7932009667312913  1.0000
  H   H41       1.0  0.17467110075678977  0.35857990994502126  0.6554369101526875  1.0000
  H   H42       1.0  0.5193769536249134  0.14104723377120373  0.3448229864481719  1.0000
  H   H43       1.0  0.8253290307432621  0.6414187718041761  0.34456399009764044  1.0000
  H   H44       1.0  0.4806164294582159  0.8589639104888034  0.6551723210748079  1.0000
  H   H45       1.0  0.22202955231492902  0.3510123232943981  0.5158323078773182  1.0000
  H   H46       1.0  0.706265974355027  0.14878326305957754  0.4843632180033098  1.0000
  H   H47       1.0  0.7779705361070413  0.648984892811143  0.4841694267262045  1.0000
  H   H48       1.0  0.29372295755771205  0.8512293448571668  0.5156303922426916  1.0000
  H   H49       1.0  0.590859966968722  0.3364230864834354  0.6640695548173599  1.0000
  H   H50       1.0  0.9268172270630404  0.16393946964403475  0.3361327768085049  1.0000
  H   H51       1.0  0.40913878038678314  0.6635726654539696  0.3359335290024888  1.0000
  H   H52       1.0  0.07317912346920245  0.8360636158464418  0.6638680532865068  1.0000
  H   H53       1.0  0.5610353606323885  0.350632409456388  0.8124688680869456  1.0000
  H   H54       1.0  0.7485867546144434  0.14971523848203822  0.18774101269348634  1.0000
  H   H55       1.0  0.43896268123027943  0.6493611435614212  0.1875352805368139  1.0000
  H   H56       1.0  0.2514122187356875  0.8502893120847972  0.8122588416369825  1.0000
  H   H57       1.0  0.08619248714284575  0.18821230842701203  0.273574640358632  1.0000
  H   H58       1.0  0.8124627929850945  0.3117467495257315  0.7265627553249632  1.0000
  H   H59       1.0  0.9138077008558625  0.8117885729795375  0.7264254525193509  1.0000
  H   H60       1.0  0.18754571612436166  0.6882504593726607  0.27343652098315374  1.0000
  H   H61       1.0  0.19557034979839472  0.1267338238703175  0.24049802895316225  1.0000
  H   H62       1.0  0.9550438126241191  0.37303961955186077  0.7596718987916662  1.0000
  H   H63       1.0  0.8044298572536304  0.8732663187550286  0.7595002603141552  1.0000
  H   H64       1.0  0.044963476204010526  0.6269627313017238  0.24032896956045147  1.0000
  H   H65       1.0  0.13174185305890526  0.0037092193067777995  0.3220531951462037  1.0000
  H   H66       1.0  0.809755849393497  0.4962249501514435  0.6781782158524836  1.0000
  H   H67       1.0  0.8682557580163747  0.9962909262696157  0.6779461238473632  1.0000
  H   H68       1.0  0.1902424050432218  0.5037766674820929  0.32182267630103933  1.0000
  H   H69       1.0  0.27471077208086575  0.04801977726388879  0.3960869977451723  1.0000
  H   H70       1.0  0.8787064240141689  0.45190777402076787  0.604151630682715  1.0000
  H   H71       1.0  0.725287420224447  0.9519811135071948  0.6039165323722104  1.0000
  H   H72       1.0  0.12129382827102124  0.5480975138517507  0.3958495123952944  1.0000
  C   C1        1.0  0.3885025784822318  0.40698780387537425  0.2379201042305469  1.0000
  C   C2        1.0  0.1503676875169688  0.0925956684227174  0.7623639489601433  1.0000
  C   C3        1.0  0.6114994809470602  0.5930116144417426  0.7620818273357558  1.0000
  C   C4        1.0  0.8496331360553526  0.9074044782323724  0.2376358595054173  1.0000
  C   C5        1.0  0.3995326207600415  0.4041985802580896  0.15384734712403522  1.0000
  C   C6        1.0  0.24547987128600815  0.09536903657506458  0.8464194135539175  1.0000
  C   C7        1.0  0.6004700848470675  0.5958015737187168  0.8461552423064661  1.0000
  C   C8        1.0  0.754522210012979  0.9046289065633885  0.15357979910596248  1.0000
  C   C9        1.0  0.5146119792116578  0.3927838418540616  0.1494117109326468  1.0000
  C   C10       1.0  0.36496554647709456  0.10683482591333161  0.8508138737102374  1.0000
  C   C11       1.0  0.4853894714851566  0.6072177792419212  0.8505905590077705  1.0000
  C   C12       1.0  0.6350345560267385  0.8931587082049431  0.1491832844144981  1.0000
  C   C13       1.0  0.6141767832655489  0.3887899487725619  0.23237686160597104  1.0000
  C   C14       1.0  0.3815306294917988  0.11088776805057421  0.7678449906622478  1.0000
  C   C15       1.0  0.38582720127661935  0.6112109425099276  0.7676270165720569  1.0000
  C   C16       1.0  0.618470797841546  0.8891072326195867  0.23215170656107645  1.0000
  C   C17       1.0  0.5952338756128982  0.3923204296332302  0.3140363302238499  1.0000
  C   C18       1.0  0.28091888171952933  0.1073271513890575  0.6862041326295201  1.0000
  C   C19       1.0  0.4047682240781043  0.607681190724989  0.6859656822850156  1.0000
  C   C20       1.0  0.7190825774264127  0.8926722605145657  0.31379539142363216  1.0000
  C   C21       1.0  0.5291689006241569  0.3828536840314031  0.06090385606473356  1.0000
  C   C22       1.0  0.4679791405919717  0.11679448861553961  0.9392876136617476  1.0000
  C   C23       1.0  0.47083373788009925  0.6171427998768949  0.9390985984614989  1.0000
  C   C24       1.0  0.5320228736041627  0.8831997844544047  0.06071146409386333  1.0000
  C   C25       1.0  0.6543122248621033  0.374024704597069  0.060328940588590375  1.0000
  C   C26       1.0  0.5936001484513441  0.1258037841652282  0.9397483008743568  1.0000
  C   C27       1.0  0.3456898776452706  0.6259761793636969  0.9396721566245108  1.0000
  C   C28       1.0  0.40640064546346377  0.8741956308599087  0.06025236892526214  1.0000
  C   C29       1.0  0.21963024789429408  0.3655273016541257  0.8322975558138668  1.0000
  C   C30       1.0  0.3874349271415269  0.1340997512324194  0.16802769161039788  1.0000
  C   C31       1.0  0.7803678773081658  0.6344699190484419  0.16770583939924702  1.0000
  C   C32       1.0  0.6125607884783904  0.8658996530085546  0.8319688194373855  1.0000
  C   C33       1.0  0.3463169233326937  0.3652657629668496  0.8342766167100353  1.0000
  C   C34       1.0  0.512095369743399  0.13459450321037994  0.16597012141092196  1.0000
  C   C35       1.0  0.6536805853494628  0.6347314537059816  0.16572525930483556  1.0000
  C   C36       1.0  0.48790169473080175  0.8654085720073325  0.8340268979929137  1.0000
  C   C37       1.0  0.3657955552307612  0.35787974696952307  0.7473817295497441  1.0000
  C   C38       1.0  0.6184994782405723  0.14203882014137997  0.252847359081649  1.0000
  C   C39       1.0  0.6342026264703549  0.6421196733904039  0.2526208582910245  1.0000
  C   C40       1.0  0.3814963391111661  0.8579679290041184  0.7471511984044812  1.0000
  C   C41       1.0  0.2693723938465311  0.3570441689045651  0.6622640686238485  1.0000
  C   C42       1.0  0.6072248054307466  0.1427655766919429  0.33797479620960064  1.0000
  C   C43       1.0  0.7306283407532419  0.6429537828606655  0.33773832384387265  1.0000
  C   C44       1.0  0.3927678940292338  0.8572418934698122  0.6620188572108675  1.0000
  C   C45       1.0  0.29478201231349044  0.3520400639302038  0.5830186949301323  1.0000
  C   C46       1.0  0.7118542541025761  0.14785849354112196  0.4171981506981696  1.0000
  C   C47       1.0  0.705217400273149  0.6479556848856944  0.4169832431432497  1.0000
  C   C48       1.0  0.28813905906133636  0.8521497170478228  0.5827979372163057  1.0000
  C   C49       1.0  0.5007528608292803  0.3440284648920695  0.666099350028077  1.0000
  C   C50       1.0  0.8347061579904607  0.15620650352524024  0.33412126100050454  1.0000
  C   C51       1.0  0.4992458222397432  0.6559628805793734  0.3339026835917452  1.0000
  C   C52       1.0  0.1652915336082401  0.8437980461333652  0.665878219878188  1.0000
  C   C53       1.0  0.48389940595653524  0.3505456617919974  0.7479292218663293  1.0000
  C   C54       1.0  0.7360154080925768  0.1496257954860596  0.25228925129189156  1.0000
  C   C55       1.0  0.5160993011372597  0.6494478881042978  0.25207378101095673  1.0000
  C   C56       1.0  0.26398231316363774  0.8503794858024989  0.7477093682527427  1.0000
  C   C57       1.0  0.2699767661795463  0.23472022151783986  0.3481448138380119  1.0000
  C   C58       1.0  0.921615875599173  0.2650735353019655  0.6519556850427225  1.0000
  C   C59       1.0  0.7300240439722075  0.7652791911235396  0.651854967646706  1.0000
  C   C60       1.0  0.07838967948174518  0.7349324663796606  0.34803809567421246  1.0000
  C   C61       1.0  0.17603147049268125  0.1547147882720239  0.2996762344622681  1.0000
  C   C62       1.0  0.876272394201436  0.3451487332867344  0.7004853910792693  1.0000
  C   C63       1.0  0.8239680014089856  0.8452824238037736  0.7003239809430116  1.0000
  C   C64       1.0  0.12373557327839527  0.6548543484590396  0.2995143585072384  1.0000
  C   C65       1.0  0.17977317674618123  0.06965001415318987  0.3607532767335259  1.0000
  C   C66       1.0  0.8190555372980981  0.430291619305244  0.6394405695605702  1.0000
  C   C67       1.0  0.8202237069665659  0.9303494076822644  0.6392498259703745  1.0000
  C   C68       1.0  0.18094722480766737  0.5697107343289148  0.3605612124975794  1.0000
  C   C69       1.0  0.1293633857124377  0.09627472827007472  0.43335005668330956  1.0000
  C   C70       1.0  0.6959847618083047  0.4038306914376549  0.5668254267973512  1.0000
  C   C71       1.0  0.8706278003687443  0.9037254151489337  0.5666482833662699  1.0000
  C   C72       1.0  0.30401787669594443  0.5961657924706427  0.4331770277288742  1.0000
  N   N1        1.0  0.484530126985277  0.39970963665939513  0.3170020324309136  1.0000
  N   N2        1.0  0.16728022910948687  0.09989272134065169  0.6832674756358587  1.0000
  N   N3        1.0  0.5154706612967885  0.6002912511606407  0.68300046796022  1.0000
  N   N4        1.0  0.8327212865351044  0.9001088902203308  0.3167312410449484  1.0000
  N   N5        1.0  0.42882666519984985  0.3808152800405793  0.9887441924235392  1.0000
  N   N6        1.0  0.43992876331041936  0.11889745423467701  0.011506414209748133  1.0000
  N   N7        1.0  0.5711752840485075  0.6191790025643655  0.0112584385916891  1.0000
  N   N8        1.0  0.5600694458931343  0.8810990181516941  0.9884916241330901  1.0000
  N   N9        1.0  0.44521661268051105  0.37123921834411533  0.907526103452142  1.0000
  N   N10       1.0  0.5376523639525317  0.1286023049923628  0.09267175487531897  1.0000
  N   N11       1.0  0.5547808988180165  0.6287572619312698  0.09247485726697145  1.0000
  N   N12       1.0  0.46234465744358044  0.8713993045817007  0.9073260988817115  1.0000
  N   N13       1.0  0.4082272965433235  0.3462167584343164  0.584655865722475  1.0000
  N   N14       1.0  0.8236488531648689  0.1538562079951262  0.4155608288595689  1.0000
  N   N15       1.0  0.5917727085388478  0.6537767899864589  0.41534662229168634  1.0000
  N   N16       1.0  0.1763424324930583  0.8461476007248976  0.5844358694644712  1.0000
  O   O1        1.0  0.3784909009561587  0.20730528773070492  0.39323944699204827  1.0000
  O   O2        1.0  0.9851241706200825  0.2924650947528988  0.6069251475591957  1.0000
  O   O3        1.0  0.621508519418299  0.792692667893803  0.6067643486536981  1.0000
  O   O4        1.0  0.0148802072575975  0.7075475145275689  0.39306939084854525  1.0000
  O   O5        1.0  0.23961089796502935  0.3242186269808514  0.3415775665808099  1.0000
  O   O6        1.0  0.897773031117673  0.17559594148723073  0.65851555251966  1.0000
  O   O7        1.0  0.7603930731565641  0.6757815302879281  0.6584262846163684  1.0000
  O   O8        1.0  0.10224023070876606  0.8244100632600038  0.3414795805930525  1.0000
  O   O9        1.0  0.12441376069259748  0.1849825572033552  0.4580764326820416  1.0000
  O   O10       1.0  0.6660315792986824  0.31510625470333053  0.5423469520188678  1.0000
  O   O11       1.0  0.8755800482064728  0.8150190512920119  0.5419209316029951  1.0000
  O   O12       1.0  0.33397944741917485  0.6848902267653114  0.4576548208417608  1.0000
  O   O13       1.0  0.09086218376982919  0.0266217118913872  0.46854069582489205  1.0000
  O   O14       1.0  0.6225460640526421  0.4735588029749919  0.5314163814065439  1.0000
  O   O15       1.0  0.9091379971023487  0.9733725467055906  0.5314529360210829  1.0000
  O   O16       1.0  0.3774513422364052  0.526435484794284  0.46858805162962386  1.0000
