data_image0
_chemical_formula_structural       Al2H13C24NO14
_chemical_formula_sum              "Al2 H13 C24 N1 O14"
_cell_length_a       6.779382021333148
_cell_length_b       11.160319214995711
_cell_length_c       17.823625229594917
_cell_angle_alpha    81.25909482146574
_cell_angle_beta     77.52494620998168
_cell_angle_gamma    71.6843616145959

_space_group_name_H-M_alt    "P 1"
_space_group_IT_number       1

loop_
  _space_group_symop_operation_xyz
  'x, y, z'

loop_
  _atom_site_type_symbol
  _atom_site_label
  _atom_site_symmetry_multiplicity
  _atom_site_fract_x
  _atom_site_fract_y
  _atom_site_fract_z
  _atom_site_occupancy
  Al  Al1       1.0  0.5039221168719693  0.4969493331825702  0.49784760059334576  1.0000
  Al  Al2       1.0  0.00718132402045068  0.49437324444422603  0.4967685145019658  1.0000
  H   H1        1.0  0.2119227304322848  0.6435141754590603  0.4415704500771723  1.0000
  H   H2        1.0  0.7536590525111607  0.4018036178925827  0.5859242845204519  1.0000
  H   H3        1.0  0.1288220627911656  0.11817899961638999  0.5289863632260818  1.0000
  H   H4        1.0  0.7815104475958918  0.11072827813803338  0.47599307452554035  1.0000
  H   H5        1.0  0.24076192659680387  0.8789691132491482  0.5356375766817933  1.0000
  H   H6        1.0  0.5497461007991903  0.5051609193889561  0.2762230714199916  1.0000
  H   H7        1.0  0.5984218562961415  0.507652401554772  0.1330276572202465  1.0000
  H   H8        1.0  0.20449626986010114  0.48099471705710783  0.2581867982213665  1.0000
  H   H9        1.0  0.801744205574444  0.5107391880044432  0.7370754692104666  1.0000
  H   H10       1.0  0.44853000132511067  0.5026647842873047  0.7213503899491158  1.0000
  H   H11       1.0  0.3925307870975486  0.5062151155575522  0.8638889230215696  1.0000
  H   H12       1.0  0.28377035085846103  0.48672345546482626  0.05278861776744039  1.0000
  H   H13       1.0  0.7125476730785253  0.5137305413641329  0.9419986956756927  1.0000
  C   C1        1.0  0.8380923608235591  0.4949157783061082  0.3603894724545285  1.0000
  C   C2        1.0  0.63060786447209  0.7214208812518095  0.5036156614285545  1.0000
  C   C3        1.0  0.17091385281754162  0.4968332294009342  0.6360856397727515  1.0000
  C   C4        1.0  0.3809469301332912  0.27013290708173093  0.4953522066812113  1.0000
  C   C5        1.0  0.5681215235824623  0.8619317655441492  0.5075197382690959  1.0000
  C   C6        1.0  0.4476233088493373  0.1285305319890924  0.4992661323740392  1.0000
  C   C7        1.0  0.7172742119046376  0.9293015785813166  0.49369430567737993  1.0000
  C   C8        1.0  0.29481887769474474  0.0635562093117414  0.5177472506588288  1.0000
  C   C9        1.0  0.6622883285395885  0.0605286442866628  0.4878743910900454  1.0000
  C   C10       1.0  0.35544614000633606  0.9320574277560353  0.5212888309041401  1.0000
  C   C11       1.0  0.8734061389970404  0.4935675021871404  0.2749419708983609  1.0000
  C   C12       1.0  0.7026903328248792  0.5007196470491875  0.23986013486207716  1.0000
  C   C13       1.0  0.7299965499610225  0.5027246652912254  0.16043484710310446  1.0000
  C   C14       1.0  0.9289720198453185  0.4982792007431767  0.11437879689835027  1.0000
  C   C15       1.0  0.10101485944640137  0.4898789947179765  0.15048434096807736  1.0000
  C   C16       1.0  0.07295930792976435  0.48728673418052887  0.23038326823375846  1.0000
  C   C17       1.0  0.9673298381528141  0.5023107102700167  0.0331416541587615  1.0000
  C   C18       1.0  0.02451446037179758  0.5059163929601453  0.9628137447581508  1.0000
  C   C19       1.0  0.06571541184669634  0.5079545636102479  0.8816286258784274  1.0000
  C   C20       1.0  0.8979874793646161  0.5104592500241978  0.8449031206414545  1.0000
  C   C21       1.0  0.9303382187168909  0.509028024825902  0.7651679198640338  1.0000
  C   C22       1.0  0.1299681799483069  0.5045308774326782  0.7211688166195387  1.0000
  C   C23       1.0  0.2956165128187251  0.5043909573642864  0.7569202033978257  1.0000
  C   C24       1.0  0.2642128173964694  0.5063229422684897  0.8361810410078617  1.0000
  N   N1        1.0  0.9406363090719623  0.8593821543175367  0.49282166477076567  1.0000
  O   O1        1.0  0.6472504672123807  0.514163957509396  0.3953904843528946  1.0000
  O   O2        1.0  0.8281669718345414  0.6657364579269966  0.4891022770982332  1.0000
  O   O3        1.0  0.015106707955013203  0.5057140508904537  0.6040888071700364  1.0000
  O   O4        1.0  0.5249845042828625  0.3242952788250619  0.48552529678995165  1.0000
  O   O5        1.0  0.36296465366014974  0.4788336724985812  0.6021640236930068  1.0000
  O   O6        1.0  0.1830712485603314  0.3242690392006367  0.5038199216881836  1.0000
  O   O7        1.0  0.9971349335140897  0.47901685499783747  0.39201777378406183  1.0000
  O   O8        1.0  0.4835217296206764  0.6703279917449905  0.5121098610840136  1.0000
  O   O9        1.0  0.24338094429391788  0.5557671284813637  0.4637501631140779  1.0000
  O   O10       1.0  0.7650464445376315  0.4380180552058447  0.532759199535853  1.0000
  O   O11       1.0  0.9875458168389172  0.8188181455007709  0.5571915092494989  1.0000
  O   O12       1.0  0.06542408777706764  0.8497932636205263  0.4304944816568508  1.0000
  O   O13       1.0  0.2954443753130819  0.48446369821026986  0.10696448518983459  1.0000
  O   O14       1.0  0.7038223476975178  0.5133702584694221  0.887764119898243  1.0000
