data_image0
_chemical_formula_structural       Cd4H38C54N2O18
_chemical_formula_sum              "Cd4 H38 C54 N2 O18"
_cell_length_a       8.389005866171203
_cell_length_b       11.980013261420073
_cell_length_c       12.439
_cell_angle_alpha    99.22587897853407
_cell_angle_beta     91.23783861797078
_cell_angle_gamma    92.98702342869699

_space_group_name_H-M_alt    "P 1"
_space_group_IT_number       1

loop_
  _space_group_symop_operation_xyz
  'x, y, z'

loop_
  _atom_site_type_symbol
  _atom_site_label
  _atom_site_symmetry_multiplicity
  _atom_site_fract_x
  _atom_site_fract_y
  _atom_site_fract_z
  _atom_site_occupancy
  Cd  Cd1       1.0  0.9259029394577354  0.2387247730862327  0.0172739132056776  1.0000
  Cd  Cd2       1.0  0.0740928919279327  0.7612740700711955  0.9827254454704358  1.0000
  Cd  Cd3       1.0  0.6817560197353315  0.8989923753637614  0.9995493102247154  1.0000
  Cd  Cd4       1.0  0.31824001340515196  0.10100900881557351  0.0004480319834101009  1.0000
  H   H1        1.0  0.02451770031122891  0.5109308978207993  0.8646079599888452  1.0000
  H   H2        1.0  0.9754785345840843  0.48907302738044234  0.135396208905874  1.0000
  H   H3        1.0  0.652769735092015  0.1737754061468664  0.1476157322402472  1.0000
  H   H4        1.0  0.3472284809228583  0.8262234370105619  0.8523844651009043  1.0000
  H   H5        1.0  0.7401858534632453  0.28919878523113607  0.2129640704287326  1.0000
  H   H6        1.0  0.2598136893694373  0.7108017519408918  0.7870364078176592  1.0000
  H   H7        1.0  0.58207652377272  0.6549153631349754  0.92807587863183  1.0000
  H   H8        1.0  0.417931230758974  0.3450834800224456  0.07192847729263009  1.0000
  H   H9        1.0  0.4598392994649458  0.6903405965418444  0.020833295894796322  1.0000
  H   H10       1.0  0.5401685895699657  0.3096599406301834  0.9791689117945168  1.0000
  H   H11       1.0  0.524309400331134  0.3810618091976465  0.8088126866498228  1.0000
  H   H12       1.0  0.4756912003129442  0.6189370339597816  0.19118593758693692  1.0000
  H   H13       1.0  0.2898167038161787  0.4381831346501528  0.7132960159606369  1.0000
  H   H14       1.0  0.7101840985827224  0.5618182495291749  0.28670621927014384  1.0000
  H   H15       1.0  0.1663634189104144  0.5694463972927153  0.6034525520379503  1.0000
  H   H16       1.0  0.8336325469784638  0.43055413987931257  0.3965535015576123  1.0000
  H   H17       1.0  0.3336553666271129  0.7222050112502956  0.540876300588927  1.0000
  H   H18       1.0  0.6663394741987717  0.277796372929032  0.4591290634796934  1.0000
  H   H19       1.0  0.6207586191129976  0.7505848379175363  0.5930629705469669  1.0000
  H   H20       1.0  0.3792362217128868  0.2494165462617985  0.4069391778290736  1.0000
  H   H21       1.0  0.07453258272704488  0.0324937411339832  0.6760011693685614  1.0000
  H   H22       1.0  0.9254772874274266  0.9675017139942383  0.324000282459764  1.0000
  H   H23       1.0  0.1469628804598031  0.9556868091359618  0.4881807312529105  1.0000
  H   H24       1.0  0.853051826204684  0.044309492999559615  0.5118233335957925  1.0000
  H   H25       1.0  0.134297647350202  0.7984407504913663  0.33032472139439045  1.0000
  H   H26       1.0  0.8657112322444859  0.20155724565875494  0.6696755005181458  1.0000
  H   H27       1.0  0.9953847187241037  0.6130723553994031  0.34760583086369934  1.0000
  H   H28       1.0  0.004614824108585905  0.3869281817726247  0.6523930395364061  1.0000
  H   H29       1.0  0.8703447045762684  0.5849661120907754  0.5207729182331207  1.0000
  H   H30       1.0  0.1296525208788211  0.4150352720885593  0.47922604919223494  1.0000
  H   H31       1.0  0.649042306482869  0.9178061015600392  0.6846162253702701  1.0000
  H   H32       1.0  0.350952332588193  0.0821927415973818  0.3153823120117565  1.0000
  H   H33       1.0  0.6061096352722969  0.056569076691481306  0.5577277575074433  1.0000
  H   H34       1.0  0.3938909653717815  0.9434297664659468  0.4422684549598799  1.0000
  H   H35       1.0  0.4176295917018678  0.21230576832356726  0.6087213488295404  1.0000
  H   H36       1.0  0.5823700183824272  0.7876956158557675  0.3912736337219939  1.0000
  H   H37       1.0  0.2871624384279058  0.2244628641319295  0.7903787543451698  1.0000
  H   H38       1.0  0.7128335274609725  0.7755376730401053  0.20961684824951726  1.0000
  C   C1        1.0  0.7853504653484364  0.6320724232021676  0.723476909942569  1.0000
  C   C2        1.0  0.21464788516964722  0.3679281139698603  0.2765243548560221  1.0000
  C   C3        1.0  0.8498184266629634  0.5598057601791667  0.787978009812953  1.0000
  C   C4        1.0  0.1501775392259148  0.4401947769928612  0.2120224163206004  1.0000
  C   C5        1.0  0.7544387345179757  0.4675819111019308  0.8181941545103868  1.0000
  C   C6        1.0  0.2455620006293131  0.5324186260701042  0.1818071450300991  1.0000
  C   C7        1.0  0.5957923415889042  0.450455423451615  0.783817124209051  1.0000
  C   C8        1.0  0.40420481661457325  0.5495451137204199  0.2161833192954461  1.0000
  C   C9        1.0  0.3613906154394043  0.5068754268579028  0.6867649155203422  1.0000
  C   C10       1.0  0.6386039563800521  0.4931225692922184  0.3132383136334056  1.0000
  C   C11       1.0  0.2931776023582415  0.5788718945515043  0.6253574995007938  1.0000
  C   C12       1.0  0.706827180494109  0.4211345716716437  0.3746471862920018  1.0000
  C   C13       1.0  0.3886767346210007  0.6666684364601921  0.5905419519663582  1.0000
  C   C14       1.0  0.6113132024432559  0.3333312537045359  0.4094622751610403  1.0000
  C   C15       1.0  0.5486077911677327  0.6827505641069039  0.6199480754438298  1.0000
  C   C16       1.0  0.4513916171617396  0.3172482790505242  0.38005374711456597  1.0000
  C   C17       1.0  0.6225795058781641  0.6122685454696253  0.6858222856827041  1.0000
  C   C18       1.0  0.37741632550750376  0.3877302976878028  0.3141786808396958  1.0000
  C   C19       1.0  0.5259391603364917  0.5212262715789393  0.7180579667721716  1.0000
  C   C20       1.0  0.4740604497478031  0.47877511260039546  0.2819434471645152  1.0000
  C   C21       1.0  0.8752698963409813  0.7378331429830355  0.7067482644388434  1.0000
  C   C22       1.0  0.12472825242228679  0.2621648531670857  0.2932501932888769  1.0000
  C   C23       1.0  0.8913346381283985  0.8250139105830315  0.7967395158879212  1.0000
  C   C24       1.0  0.1086611932572694  0.1749849325743966  0.2032606467113354  1.0000
  C   C25       1.0  0.954659346311871  0.9356982838115401  0.7829666812217937  1.0000
  C   C26       1.0  0.045336552325402096  0.0643014063531879  0.2170328092214717  1.0000
  C   C27       1.0  0.021558437474269006  0.9495553232753977  0.6847276170393783  1.0000
  C   C28       1.0  0.9784456728620082  0.0504426728747305  0.3152709275430823  1.0000
  C   C29       1.0  0.0888278308315122  0.8736482228675797  0.4948469682666356  1.0000
  C   C30       1.0  0.9111844239521643  0.1263472322606418  0.5051553222267343  1.0000
  C   C31       1.0  0.0809230870323532  0.7866300806696105  0.4071445787435621  1.0000
  C   C32       1.0  0.9190857925623347  0.21336791548051792  0.5928580549384037  1.0000
  C   C33       1.0  0.0010813358640788977  0.6817883638116129  0.41690252522165844  1.0000
  C   C34       1.0  0.9989228417238037  0.318210479345808  0.5830961511279398  1.0000
  C   C35       1.0  0.9316103001591287  0.665722329303641  0.5132379828753456  1.0000
  C   C36       1.0  0.06839149279955589  0.33427651385378715  0.4867622665786513  1.0000
  C   C37       1.0  0.9392685108616234  0.7533596338395157  0.6051959041554085  1.0000
  C   C38       1.0  0.06073321484544889  0.2466383623106054  0.3948058213777302  1.0000
  C   C39       1.0  0.019013999611878798  0.8601452324560342  0.5952402896505049  1.0000
  C   C40       1.0  0.9809935531649926  0.13985106967948013  0.404759651356791  1.0000
  C   C41       1.0  0.8236450044310074  0.39225246967420463  0.8881045284573261  1.0000
  C   C42       1.0  0.17635222102408218  0.6077489145051302  0.1118960468143229  1.0000
  C   C43       1.0  0.9455344073370496  0.0375757849471299  0.8688139749685106  1.0000
  C   C44       1.0  0.0544652027472452  0.9624255992321977  0.1311842232755964  1.0000
  C   C45       1.0  0.4873324294042192  0.9953547021195066  0.8031525446558234  1.0000
  C   C46       1.0  0.5126623441700601  0.0046458350525214005  0.1968446484142063  1.0000
  C   C47       1.0  0.5685041439162503  0.9859258168315109  0.7037362005294482  1.0000
  C   C48       1.0  0.4314904951548116  0.0140730263259172  0.2962599250831346  1.0000
  C   C49       1.0  0.5442828734597712  0.0634857383211767  0.6344035686993337  1.0000
  C   C50       1.0  0.45571421749210816  0.9365139518435512  0.3655903116528592  1.0000
  C   C51       1.0  0.440182998583829  0.1509121380388052  0.6622326654628381  1.0000
  C   C52       1.0  0.5598152846826494  0.8490875521259229  0.3377636440297351  1.0000
  C   C53       1.0  0.368313492784729  0.15859618828428523  0.7620891135534436  1.0000
  C   C54       1.0  0.6316859155447432  0.8414026548731358  0.23790466977349922  1.0000
  N   N1        1.0  0.3935671809001207  0.08413408233401042  0.8304125916053736  1.0000
  N   N2        1.0  0.6064299773033639  0.9158664548380244  0.1695838322834078  1.0000
  O   O1        1.0  0.7326593003107646  0.32063546125198883  0.927624175965491  1.0000
  O   O2        1.0  0.26734136758491894  0.6793642289127462  0.07237458003841368  1.0000
  O   O3        1.0  0.9748911151087469  0.39941306940693283  0.9079287171803898  1.0000
  O   O4        1.0  0.025108696730370597  0.6005908557943087  0.0920730920577384  1.0000
  O   O5        1.0  0.00432345403735471  0.5783408209730326  0.8256744352132228  1.0000
  O   O6        1.0  0.9956715212917472  0.421662257220909  0.1743287806202645  1.0000
  O   O7        1.0  0.0377506601204658  0.12446857006437993  0.864549452148438  1.0000
  O   O8        1.0  0.9622474886427949  0.8755294260857482  0.1354482016561391  1.0000
  O   O9        1.0  0.8411461304980961  0.0414508433546601  0.944246496611278  1.0000
  O   O10       1.0  0.1588546046491928  0.958549693817375  0.055750783313484924  1.0000
  O   O11       1.0  0.8531300965732171  0.8011172935662927  0.8947214816183049  1.0000
  O   O12       1.0  0.14686825394486647  0.1988832436057351  0.1052765674877065  1.0000
  O   O13       1.0  0.4937389442316231  0.9222859231813345  0.8708683060166608  1.0000
  O   O14       1.0  0.5062583484750717  0.07771630800530001  0.1291291853295533  1.0000
  O   O15       1.0  0.7520661993825469  0.2254843549383665  0.1548207659136835  1.0000
  O   O16       1.0  0.24793320894692525  0.7745144882190544  0.8451802527215619  1.0000
  O   O17       1.0  0.5708409254788904  0.7035793206751038  0.9977441530289396  1.0000
  O   O18       1.0  0.42916345386381477  0.2964220635042309  0.0022589382378229023  1.0000
