data_image0
_chemical_formula_structural       Ag10H32C40N18O30
_chemical_formula_sum              "Ag10 H32 C40 N18 O30"
_cell_length_a       8.003948820947556
_cell_length_b       11.566842831001328
_cell_length_c       17.54997852729808
_cell_angle_alpha    103.06744892486394
_cell_angle_beta     89.98299425591905
_cell_angle_gamma    110.23989852748461

_space_group_name_H-M_alt    "P 1"
_space_group_IT_number       1

loop_
  _space_group_symop_operation_xyz
  'x, y, z'

loop_
  _atom_site_type_symbol
  _atom_site_label
  _atom_site_symmetry_multiplicity
  _atom_site_fract_x
  _atom_site_fract_y
  _atom_site_fract_z
  _atom_site_occupancy
  Ag  Ag1       1.0  0.6221007900703911  0.6124308422766518  0.8373180382518867  1.0000
  Ag  Ag2       1.0  0.009927383776528163  0.3876409342522251  0.6625472784738519  1.0000
  Ag  Ag3       1.0  0.3778991595788739  0.3875738974342866  0.1626816173151866  1.0000
  Ag  Ag4       1.0  0.9900742409799363  0.6123571595827143  0.3374514019096608  1.0000
  Ag  Ag5       1.0  0.05655299848768177  0.9999762480364109  0.7499699702688785  1.0000
  Ag  Ag6       1.0  0.943444106664124  2.2802547029199695e-05  0.2500299904030854  1.0000
  Ag  Ag7       1.0  0.3886996156216753  0.7549253216246113  0.824696463140576  1.0000
  Ag  Ag8       1.0  0.6341369625504926  0.24511667874137538  0.6753278169786796  1.0000
  Ag  Ag9       1.0  0.6113004660742334  0.24507468540468122  0.17530477726879917  1.0000
  Ag  Ag10      1.0  0.3658618633673997  0.754883314008957  0.32467114219926435  1.0000
  H   H1        1.0  0.6913170047205383  0.8515609593553176  0.11125952634633754  1.0000
  H   H2        1.0  0.8399642716074567  0.14853429263727244  0.3885680247899543  1.0000
  H   H3        1.0  0.3086805766541403  0.1484390441925072  0.888741143915901  1.0000
  H   H4        1.0  0.160036229417635  0.851459054237054  0.6114299592044361  1.0000
  H   H5        1.0  0.6906706507601825  0.009362035295808402  0.8737552711062122  1.0000
  H   H6        1.0  0.6811654561022638  0.9906209194337523  0.6260327682462048  1.0000
  H   H7        1.0  0.30933644444172625  0.9906370041370424  0.12624297783857943  1.0000
  H   H8        1.0  0.3188298042616892  0.009381939576201101  0.3739694607315585  1.0000
  H   H9        1.0  0.8974935387172209  0.1515560251588184  0.9900535260223294  1.0000
  H   H10       1.0  0.7453325112045165  0.8482968118034436  0.5096173348929582  1.0000
  H   H11       1.0  0.10251433282988394  0.8484420684239068  0.009945153901988092  1.0000
  H   H12       1.0  0.2546650814049727  0.15170321682084165  0.49038732768499926  1.0000
  H   H13       1.0  0.9006414309323247  0.07138111900108868  0.1113929326500767  1.0000
  H   H14       1.0  0.828927501048824  0.9285451876362886  0.3883183663934844  1.0000
  H   H15       1.0  0.09936287185089289  0.9286198336765633  0.888607876412422  1.0000
  H   H16       1.0  0.1710717602479832  0.07144818078258909  0.6116830396776434  1.0000
  H   H17       1.0  0.35476366142896154  0.7453243366131659  0.1052288493584328  1.0000
  H   H18       1.0  0.6095540247309683  0.2548665984037015  0.3947524842180599  1.0000
  H   H19       1.0  0.6452345706641651  0.2546794680955884  0.8947729483642916  1.0000
  H   H20       1.0  0.390446347457427  0.7451314883169715  0.6052450555956596  1.0000
  H   H21       1.0  0.3114583317329433  0.40399785055356574  0.8723347554743625  1.0000
  H   H22       1.0  0.9072822804461182  0.5959956417285992  0.6277050650454254  1.0000
  H   H23       1.0  0.6885448961877146  0.5960059503710652  0.1276664715501852  1.0000
  H   H24       1.0  0.09271589796327354  0.4040005570255045  0.37229390733367035  1.0000
  H   H25       1.0  0.1345201841666608  0.5304089190792424  0.09820426377274319  1.0000
  H   H26       1.0  0.6042453494682576  0.46983507079082176  0.4018439730330954  1.0000
  H   H27       1.0  0.8654788194567474  0.46959392903233516  0.9017962539370501  1.0000
  H   H28       1.0  0.3957579928443451  0.5301639580463019  0.5981525651947663  1.0000
  H   H29       1.0  0.108621210326973  0.3539216634621525  0.9780085928227891  1.0000
  H   H30       1.0  0.7547660220350139  0.6462467394693688  0.5220991408514948  1.0000
  H   H31       1.0  0.8913790426545632  0.6460811845989838  0.021991924795159417  1.0000
  H   H32       1.0  0.24523685047460486  0.3537513507327787  0.4778989691093614  1.0000
  C   C1        1.0  0.5779357881720414  0.8175123041960219  0.9932756259130996  1.0000
  C   C2        1.0  0.760549109283474  0.18257279122454406  0.5065547248291365  1.0000
  C   C3        1.0  0.4220689908340489  0.1824896014460151  0.006725892739673601  1.0000
  C   C4        1.0  0.2394500183617155  0.8174253062936289  0.4934445260688776  1.0000
  C   C5        1.0  0.44927374016002364  0.688726561998159  0.9922211791397685  1.0000
  C   C6        1.0  0.7606649436878214  0.3113917540001694  0.5077019364957991  1.0000
  C   C7        1.0  0.5507302657108112  0.31127629665869694  0.007781049195116889  1.0000
  C   C8        1.0  0.23933543010554803  0.6886063363028609  0.4922961736487322  1.0000
  C   C9        1.0  0.6926342517690784  0.8908063657274211  0.06024831385244769  1.0000
  C   C10       1.0  0.8019034697789207  0.10925800773106431  0.4395640846618959  1.0000
  C   C11       1.0  0.3073710050648586  0.1091964964613439  0.9397544847214192  1.0000
  C   C12       1.0  0.19809470702549006  0.8907381874406897  0.560434317386381  1.0000
  C   C13       1.0  0.6931824378774178  0.978926472691178  0.9279637197659197  1.0000
  C   C14       1.0  0.7141226021470644  0.021076850401797693  0.5718192127464758  1.0000
  C   C15       1.0  0.3068251335473633  0.021073519706057198  0.07203523876914629  1.0000
  C   C16       1.0  0.2858745062146896  0.9789222073463507  0.4281818885871189  1.0000
  C   C17       1.0  0.8092025233541947  0.05728721860921837  0.9928902300486229  1.0000
  C   C18       1.0  0.7515296012935123  0.9426242345618759  0.5068323864571127  1.0000
  C   C19       1.0  0.1908065975510381  0.9427108749230652  0.007108449783856888  1.0000
  C   C20       1.0  0.2484687564263695  0.057374823135823795  0.4931687147846446  1.0000
  C   C21       1.0  0.809488059003897  0.012351587518132598  0.06009131230860729  1.0000
  C   C22       1.0  0.7968691915507049  0.9875997314602711  0.4396479384013786  1.0000
  C   C23       1.0  0.19051374345809063  0.9876493616780518  0.9399089266067476  1.0000
  C   C24       1.0  0.2031297680188047  0.0123955321907587  0.560353175949686  1.0000
  C   C25       1.0  0.3436808605398056  0.6676436045863524  0.05468566269306761  1.0000
  C   C26       1.0  0.6760962122445946  0.33252336969611906  0.4453066409161579  1.0000
  C   C27       1.0  0.6563218927629535  0.33235924695625124  0.9453154250720174  1.0000
  C   C28       1.0  0.32390588070987997  0.6674756591914457  0.5546898974035486  1.0000
  C   C29       1.0  0.31632327390389753  0.47647539020279345  0.9250198274138696  1.0000
  C   C30       1.0  0.8397191418888782  0.523569776656771  0.574995914470925  1.0000
  C   C31       1.0  0.6836804286346662  0.523529360103872  0.07498153887014068  1.0000
  C   C32       1.0  0.16028170652239027  0.47642926302828664  0.4250023349330689  1.0000
  C   C33       1.0  0.2199061128980304  0.5465844633090454  0.05062716136851719  1.0000
  C   C34       1.0  0.6734027204947565  0.4536161886598151  0.4493928759511263  1.0000
  C   C35       1.0  0.7800946147014045  0.4534193341341178  0.9493734955088937  1.0000
  C   C36       1.0  0.32660109483077804  0.5463837859769924  0.550603231205379  1.0000
  C   C37       1.0  0.2049579958624292  0.4495479213535134  0.9844520650529559  1.0000
  C   C38       1.0  0.7554541063265032  0.5506009618518135  0.5155807196125721  1.0000
  C   C39       1.0  0.7950435096871831  0.5504549338218823  0.015549593134792924  1.0000
  C   C40       1.0  0.2445475168249942  0.4493971284007755  0.48441739044012877  1.0000
  N   N1        1.0  0.5789022368713859  0.8617668108806525  0.9280567878769972  1.0000
  N   N2        1.0  0.7172233589062884  0.13829538199215105  0.5717844616385435  1.0000
  N   N3        1.0  0.4210983194424217  0.1382341455306744  0.07194459179183349  1.0000
  N   N4        1.0  0.2827724936774487  0.8617036614770297  0.4282143584636272  1.0000
  N   N5        1.0  0.43646771095091447  0.5932370109798766  0.9287933520534464  1.0000
  N   N6        1.0  0.8432426692373197  0.40681612488371127  0.5711627787461069  1.0000
  N   N7        1.0  0.5635325452405695  0.4067658442459603  0.07120830622613991  1.0000
  N   N8        1.0  0.1567594301370505  0.5931829183332624  0.4288360408968686  1.0000
  N   N9        1.0  0.9970800215007287  0.6303667246854302  0.7991113371660816  1.0000
  N   N10       1.0  0.3668255762215651  0.3696425064231548  0.7008833742883666  1.0000
  N   N11       1.0  0.002919279035062064  0.3696342174469293  0.2008877612713178  1.0000
  N   N12       1.0  0.6331754531051744  0.6303593957878563  0.2991175743091006  1.0000
  N   N13       1.0  0.4257506194998371  0.9998935223486638  0.7500183512140097  1.0000
  N   N14       1.0  0.5742464872569498  0.00010553181712680001  0.24998217978876616  1.0000
  N   N15       1.0  0.7341381044773244  0.7761656623325734  0.7122751037296736  1.0000
  N   N16       1.0  0.9579091563704054  0.223803282024825  0.7876191539517094  1.0000
  N   N17       1.0  0.2658574479840894  0.22383527995111757  0.2877239949832528  1.0000
  N   N18       1.0  0.04208592307807643  0.7761967144591894  0.2123803758325735  1.0000
  O   O1        1.0  0.29376557628285144  0.9020875332833924  0.7566342321868831  1.0000
  O   O2        1.0  0.3922861454751753  0.097972345828893  0.7434923566447293  1.0000
  O   O3        1.0  0.7062327798320567  0.09791152083196412  0.24336629872405519  1.0000
  O   O4        1.0  0.6077104818487911  0.9020257482078121  0.256506324106148  1.0000
  O   O5        1.0  0.8385917987557293  0.5687722608639375  0.7671452328171781  1.0000
  O   O6        1.0  0.269845322616689  0.4312253266233271  0.732845662954503  1.0000
  O   O7        1.0  0.16140875274316357  0.4312286848003381  0.23285443585920257  1.0000
  O   O8        1.0  0.7301500633740119  0.5687727853755788  0.2671558695422931  1.0000
  O   O9        1.0  0.02733937061272949  0.6882816466015955  0.86993268525773  1.0000
  O   O10       1.0  0.3394763416966669  0.31190090818808597  0.630027778398059  1.0000
  O   O11       1.0  0.9726624302442842  0.31171929901223183  0.1300669833268131  1.0000
  O   O12       1.0  0.6605264083961515  0.6881019361898097  0.3699721687053952  1.0000
  O   O13       1.0  0.12519095651240522  0.6294720937587215  0.7551879273229574  1.0000
  O   O14       1.0  0.4955863064606163  0.37037445890278053  0.7448405486126788  1.0000
  O   O15       1.0  0.8748088202462583  0.3705298013380229  0.24481188070472365  1.0000
  O   O16       1.0  0.5044154960013714  0.629626490293404  0.2551596903026834  1.0000
  O   O17       1.0  0.5819881120335635  0.9996003160582984  0.7499362828476066  1.0000
  O   O18       1.0  0.4180099439590208  0.00040063687156079994  0.2500645266740875  1.0000
  O   O19       1.0  0.5849301764600201  0.6866197921938949  0.7058509472183516  1.0000
  O   O20       1.0  0.8981470189541411  0.313300213172802  0.7939847260125958  1.0000
  O   O21       1.0  0.41506412824823247  0.31338115372258807  0.29414872191722446  1.0000
  O   O22       1.0  0.10184711125854307  0.6866978845471364  0.206014525252769  1.0000
  O   O23       1.0  0.8233407847127979  0.8252766670133057  0.7796049653660333  1.0000
  O   O24       1.0  0.9979183551521161  0.17452116962319048  0.7202959110111563  1.0000
  O   O25       1.0  0.1766572648598981  0.1747242715871522  0.2203935628323919  1.0000
  O   O26       1.0  0.0020809501985893596  0.8254797832562273  0.27970489841870005  1.0000
  O   O27       1.0  0.7964135149701976  0.8177965554029998  0.6536387586677108  1.0000
  O   O28       1.0  0.9786944388569763  0.18238571742168827  0.846315942568431  1.0000
  O   O29       1.0  0.20358156287331036  0.18220343749865714  0.34636020078575297  1.0000
  O   O30       1.0  0.021302839185437933  0.817616177775946  0.1536838656429254  1.0000
