data_image0
_chemical_formula_structural       Cd2H56C44S2N12O16
_chemical_formula_sum              "Cd2 H56 C44 S2 N12 O16"
_cell_length_a       9.970053217715936
_cell_length_b       11.89342344041477
_cell_length_c       12.118713136959107
_cell_angle_alpha    108.28633617437734
_cell_angle_beta     94.27877627549952
_cell_angle_gamma    89.56362509375442

_space_group_name_H-M_alt    "P 1"
_space_group_IT_number       1

loop_
  _space_group_symop_operation_xyz
  'x, y, z'

loop_
  _atom_site_type_symbol
  _atom_site_label
  _atom_site_symmetry_multiplicity
  _atom_site_fract_x
  _atom_site_fract_y
  _atom_site_fract_z
  _atom_site_occupancy
  Cd  Cd1       1.0  0.5824954371663011  0.9603666166072387  0.8709796422190552  1.0000
  Cd  Cd2       1.0  0.41751031500010793  0.039629358717128596  0.12901569810932764  1.0000
  H   H1        1.0  0.3311894471251406  0.9271515794014676  0.6766485405124173  1.0000
  H   H2        1.0  0.6688143022287392  0.0728461578976081  0.3233439245951289  1.0000
  H   H3        1.0  0.8957233074929647  0.9744875671722754  0.9085113629760715  1.0000
  H   H4        1.0  0.1042826496356284  0.025517248521104804  0.09148418752435822  1.0000
  H   H5        1.0  0.5282164580967503  0.9007724517789983  0.4452938185647571  1.0000
  H   H6        1.0  0.4717884148509484  0.09922796267068179  0.5547036429614992  1.0000
  H   H7        1.0  0.5487847250779225  0.7569882178272781  0.4519922914239063  1.0000
  H   H8        1.0  0.4512191560355774  0.24301308284555032  0.5480045598108563  1.0000
  H   H9        1.0  0.782357036346788  0.7520728212525115  0.40804682153359567  1.0000
  H   H10       1.0  0.2176478929086585  0.24792936964824724  0.5919520057373477  1.0000
  H   H11       1.0  0.7050435435109677  0.833209056778017  0.32160343907758465  1.0000
  H   H12       1.0  0.2949602441311754  0.16678870146424882  0.6783923353056454  1.0000
  H   H13       1.0  0.7727143991380673  0.0233342280496913  0.48202121074418625  1.0000
  H   H14       1.0  0.22728646930924157  0.9766679653131121  0.5179740985092424  1.0000
  H   H15       1.0  0.9114294827902326  0.9392959846612855  0.42353387291910144  1.0000
  H   H16       1.0  0.0885754166243586  0.06070793556836661  0.5764588742262264  1.0000
  H   H17       1.0  0.9424914875594508  0.8611936771108193  0.5896995976779424  1.0000
  H   H18       1.0  0.057511392147787915  0.1388085045493668  0.41029581594639825  1.0000
  H   H19       1.0  0.9303292803125415  0.014956556320434806  0.6469408454405754  1.0000
  H   H20       1.0  0.0696726117842132  0.9850473866989516  0.3530525724673056  1.0000
  H   H21       1.0  0.3749759743239736  0.7379473149570331  0.8275685546292666  1.0000
  H   H22       1.0  0.6250297927628594  0.26204779570288395  0.17242982576192395  1.0000
  H   H23       1.0  0.36935289524364373  0.5284988410934518  0.8167723605990321  1.0000
  H   H24       1.0  0.6306499399772321  0.47149807927886667  0.18322971093724055  1.0000
  H   H25       1.0  0.8041580875388019  0.5500381118913396  0.8830874762203964  1.0000
  H   H26       1.0  0.1958447848456899  0.4499605744604623  0.11691430642271436  1.0000
  H   H27       1.0  0.7914564848391734  0.7579888508421392  0.8864644567095329  1.0000
  H   H28       1.0  0.20854528731933902  0.24200804396670617  0.11353259872775116  1.0000
  H   H29       1.0  0.36924093489966475  0.3748761196860358  0.8528883985662649  1.0000
  H   H30       1.0  0.6307627868626682  0.6251198568693469  0.14710518275335724  1.0000
  H   H31       1.0  0.37994971891556867  0.1718760777765809  0.8665420237528354  1.0000
  H   H32       1.0  0.6200530397287735  0.8281208007093568  0.13345342923206263  1.0000
  H   H33       1.0  0.796480153932187  0.17512329424958753  0.8814920413487716  1.0000
  H   H34       1.0  0.20352498168502112  0.8248781367026866  0.1185263723634193  1.0000
  H   H35       1.0  0.8047268362817163  0.3752683676234341  0.8619518254290671  1.0000
  H   H36       1.0  0.19527524950567715  0.6247321900393388  0.13806533519495195  1.0000
  H   H37       1.0  0.0079264233990983  0.23251193832225434  0.7257876619102108  1.0000
  H   H38       1.0  0.9920664574408776  0.7674903332658191  0.27421219377310285  1.0000
  H   H39       1.0  0.06171648099084592  0.7605115098024343  0.764547990275027  1.0000
  H   H40       1.0  0.9382834530546659  0.23949160119831697  0.23545167260044056  1.0000
  H   H41       1.0  0.746096654258018  0.26567312671575394  0.5655929961949726  1.0000
  H   H42       1.0  0.2538933839636499  0.7343336218792514  0.4344130129099071  1.0000
  H   H43       1.0  0.837420759046431  0.28526654298276105  0.4545575740881775  1.0000
  H   H44       1.0  0.16256520991969842  0.7147384578022057  0.5454476878491195  1.0000
  H   H45       1.0  0.6053041103391267  0.3397088833363782  0.4221535111605805  1.0000
  H   H46       1.0  0.39468290676894213  0.6602970076765119  0.5778537268128973  1.0000
  H   H47       1.0  0.6031731997229456  0.43790027100499873  0.566065271563268  1.0000
  H   H48       1.0  0.3968138598970937  0.562106516087134  0.43394389026093466  1.0000
  H   H49       1.0  0.6403926295457153  0.5480559098285267  0.4230131506095774  1.0000
  H   H50       1.0  0.3595963839018523  0.45195083414618875  0.5769911516720045  1.0000
  H   H51       1.0  0.7884752862577926  0.4665335200798353  0.38479998836690044  1.0000
  H   H52       1.0  0.2115136911508202  0.5334697128791106  0.6152082009766888  1.0000
  H   H53       1.0  0.7317877562984947  0.6479854415209021  0.6187076434353431  1.0000
  H   H54       1.0  0.26820630866674827  0.3520221588049069  0.3812971889864017  1.0000
  H   H55       1.0  0.8604011981520756  0.6531763618259135  0.5295733613003294  1.0000
  H   H56       1.0  0.1395917581397725  0.34682769668484786  0.4704295147655133  1.0000
  C   C1        1.0  0.6220363761419776  0.893218037087806  0.6046053008455703  1.0000
  C   C2        1.0  0.377964403057682  0.10678148898048086  0.3953875461313744  1.0000
  C   C3        1.0  0.6009723355738572  0.8435355219170189  0.47411238744606987  1.0000
  C   C4        1.0  0.3990316156431604  0.1564684355787378  0.5258852714273348  1.0000
  C   C5        1.0  0.7305687915631439  0.8351850638947769  0.41178038701062314  1.0000
  C   C6        1.0  0.2694360760361931  0.16481622045514405  0.5882148617717464  1.0000
  C   C7        1.0  0.8250320347974736  0.9397915927726502  0.4741614954408251  1.0000
  C   C8        1.0  0.17496482070203712  0.06021062923120011  0.5258344323897008  1.0000
  C   C9        1.0  0.8729794727056446  0.9350147468935789  0.5947658918693934  1.0000
  C   C10       1.0  0.1270255308770203  0.06499097596614689  0.4052323576152333  1.0000
  C   C11       1.0  0.7588508408284084  0.9211838162661152  0.6628107143846835  1.0000
  C   C12       1.0  0.2411530307130292  0.0788174791709153  0.3371853095311509  1.0000
  C   C13       1.0  0.46859687143401635  0.6925302465830115  0.8374106640645567  1.0000
  C   C14       1.0  0.5314029787122081  0.30746932722297526  0.16258874927830652  1.0000
  C   C15       1.0  0.46635736009147877  0.5744680873458137  0.8332997344899059  1.0000
  C   C16       1.0  0.5336424858310452  0.4255306113241276  0.16670106427792328  1.0000
  C   C17       1.0  0.5866710468843266  0.5186481407228813  0.8520007895692462  1.0000
  C   C18       1.0  0.4133287852424204  0.48134967757521696  0.14800056730461358  1.0000
  C   C19       1.0  0.7059637261172256  0.5863599281948312  0.869759493349932  1.0000
  C   C20       1.0  0.29403809390161934  0.413636992793002  0.13024169868196372  1.0000
  C   C21       1.0  0.700193818683573  0.703690265267966  0.8714458586513134  1.0000
  C   C22       1.0  0.29980900274152583  0.2963057747325166  0.12855677099100396  1.0000
  C   C23       1.0  0.5870821761124246  0.39572761073875273  0.8571067511270345  1.0000
  C   C24       1.0  0.4129235388903679  0.6042665986061239  0.14288887809451015  1.0000
  C   C25       1.0  0.46709371717092557  0.3348176003630173  0.857889663275593  1.0000
  C   C26       1.0  0.5329080136002702  0.6651766533302991  0.14210906647981159  1.0000
  C   C27       1.0  0.47196679085075033  0.22105960318092607  0.8665272303971749  1.0000
  C   C28       1.0  0.528034967511985  0.7789364112560763  0.13347038314614687  1.0000
  C   C29       1.0  0.7036727217344705  0.22233117538658584  0.874329836522222  1.0000
  C   C30       1.0  0.29633230436629526  0.7776693228358628  0.12568086210678342  1.0000
  C   C31       1.0  0.7074999241493245  0.3357240815315023  0.8648008721795153  1.0000
  C   C32       1.0  0.29250398258133  0.6642746146763872  0.1352034446058213  1.0000
  C   C33       1.0  0.8851247072198803  0.4113969196957542  0.6209715387085455  1.0000
  C   C34       1.0  0.11486525132620778  0.5886071668405322  0.3790328354387712  1.0000
  C   C35       1.0  0.783727302733233  0.3337029388296315  0.5314932710944832  1.0000
  C   C36       1.0  0.2162617022669195  0.6663020548730004  0.46851380203703047  1.0000
  C   C37       1.0  0.6679304996145206  0.40169033719843145  0.4934629996143586  1.0000
  C   C38       1.0  0.3320594685036297  0.5983137545736527  0.506542201851879  1.0000
  C   C39       1.0  0.7225986999441788  0.5024085919124702  0.45635542454125055  1.0000
  C   C40       1.0  0.27739020201256176  0.49759285412380205  0.5436497444198098  1.0000
  C   C41       1.0  0.8016272285569316  0.5916016040239356  0.5589429910573216  1.0000
  C   C42       1.0  0.1983627342128571  0.4084033576483961  0.44105999766502907  1.0000
  C   C43       1.0  0.8972071834145865  0.5382890461814258  0.6307199754412169  1.0000
  C   C44       1.0  0.10278270925169149  0.46171325866798446  0.3692822056424917  1.0000
  S   S1        1.0  0.2256210118845843  0.958039447540564  0.8779656733043313  1.0000
  S   S2        1.0  0.7743858010948728  0.041960043419862814  0.12202748678534907  1.0000
  N   N1        1.0  0.5220186882213297  0.9191528259098335  0.6707956300723199  1.0000
  N   N2        1.0  0.47798516952433084  0.08084758915535421  0.3292009519495523  1.0000
  N   N3        1.0  0.774581697742356  0.9364015128127433  0.7739369869504034  1.0000
  N   N4        1.0  0.225423263328338  0.06360331396774652  0.22605933868349135  1.0000
  N   N5        1.0  0.5834720703923254  0.756802971057468  0.8572479671203654  1.0000
  N   N6        1.0  0.4165348095916032  0.24319655655354924  0.14275098420176147  1.0000
  N   N7        1.0  0.5880973459024403  0.1652967143193464  0.8752051029769138  1.0000
  N   N8        1.0  0.4119055180346364  0.8347002217603717  0.12479945051612872  1.0000
  N   N9        1.0  0.9639203534906928  0.37220630558581297  0.6906430521443172  1.0000
  N   N10       1.0  0.0360735616954457  0.6277959758583479  0.30935933768121526  1.0000
  N   N11       1.0  0.9904121310915741  0.6021713221085323  0.7042303999363713  1.0000
  N   N12       1.0  0.009581788318271799  0.3978318344716739  0.2957706044642024  1.0000
  O   O1        1.0  0.39661294760178833  0.8906660795164929  0.6142569585342061  1.0000
  O   O2        1.0  0.6033908166725225  0.10933079311813292  0.385738546636148  1.0000
  O   O3        1.0  0.9007456568008012  0.9728508055655356  0.8250042769232312  1.0000
  O   O4        1.0  0.09926032369563131  0.027154895735492304  0.17499154279008175  1.0000
  O   O5        1.0  0.37134692645032175  0.9723785351684953  0.9326747195771505  1.0000
  O   O6        1.0  0.6286607764445691  0.027614776866116096  0.0673207448024158  1.0000
  O   O7        1.0  0.18591488783492588  0.8326064409083359  0.8536223521831375  1.0000
  O   O8        1.0  0.8140859147325797  0.16739397076759135  0.14637076400668292  1.0000
  O   O9        1.0  0.14384356552640298  0.03991025745666121  0.9645462162778319  1.0000
  O   O10       1.0  0.8561653426122857  0.9600927589959058  0.035447297715357776  1.0000
  O   O11       1.0  0.22660623001828378  0.9916290224314891  0.7697914107597017  1.0000
  O   O12       1.0  0.773401654470952  0.0083722443645087  0.2302039945790356  1.0000
  O   O13       1.0  0.9432635702739133  0.24846009790223175  0.6683190577509424  1.0000
  O   O14       1.0  0.0567293105660625  0.7515421736858486  0.3316807979323715  1.0000
  O   O15       1.0  0.9858468066656342  0.7193867306008602  0.7067974246758697  1.0000
  O   O16       1.0  0.014149100636309702  0.2806155286690881  0.2932034148827328  1.0000
