data_image0
_chemical_formula_structural       Rb4H20C28S4N16
_chemical_formula_sum              "Rb4 H20 C28 S4 N16"
_cell_length_a       6.52931490682824
_cell_length_b       7.140154938229384
_cell_length_c       21.11365902522838
_cell_angle_alpha    90.00012044014564
_cell_angle_beta     89.99933851594606
_cell_angle_gamma    111.21480744465788

_space_group_name_H-M_alt    "P 1"
_space_group_IT_number       1

loop_
  _space_group_symop_operation_xyz
  'x, y, z'

loop_
  _atom_site_type_symbol
  _atom_site_label
  _atom_site_symmetry_multiplicity
  _atom_site_fract_x
  _atom_site_fract_y
  _atom_site_fract_z
  _atom_site_occupancy
  Rb  Rb1       1.0  0.7851145022621824  0.6024189172853199  0.5509971997647938  1.0000
  Rb  Rb2       1.0  0.2148929834983805  0.8975919256715631  0.050996982714579496  1.0000
  Rb  Rb3       1.0  0.2148897008700317  0.3976260803487293  0.44899975105095535  1.0000
  Rb  Rb4       1.0  0.7851120092835304  0.10238233615631744  0.9489942848154911  1.0000
  H   H1        1.0  0.3734870697546029  0.923194087088639  0.7272674596113973  1.0000
  H   H2        1.0  0.6265718828754672  0.5768010745343446  0.22728285753215974  1.0000
  H   H3        1.0  0.6265198466927941  0.0768117701667492  0.27273138586243556  1.0000
  H   H4        1.0  0.37339457773917684  0.4232185032454439  0.7727174084632081  1.0000
  H   H5        1.0  0.6320684177854831  0.9564293739620241  0.81610569111848  1.0000
  H   H6        1.0  0.3679840271575188  0.5435753865493352  0.316122497790964  1.0000
  H   H7        1.0  0.36793040716779774  0.043552439390602195  0.18389220711747356  1.0000
  H   H8        1.0  0.631965290282949  0.45644727576393507  0.6838682955200426  1.0000
  H   H9        1.0  0.03845554905178261  0.08874951632716942  0.7962509073448345  1.0000
  H   H10       1.0  0.9616012302314303  0.4112753674560707  0.2962669441830101  1.0000
  H   H11       1.0  0.9615413169339961  0.9112503648445767  0.20375456884922016  1.0000
  H   H12       1.0  0.03836177838197595  0.5887126215719363  0.7037210075862106  1.0000
  H   H13       1.0  0.17903507089841506  0.18874247568916763  0.6866491620803714  1.0000
  H   H14       1.0  0.8210166969922528  0.3113197379273629  0.1866641450809681  1.0000
  H   H15       1.0  0.8209805371262817  0.8112889277486558  0.3133605767990701  1.0000
  H   H16       1.0  0.17895563904041717  0.6886456363347122  0.8133257013433663  1.0000
  H   H17       1.0  0.916092532073094  0.1487550577225392  0.5972683370515596  1.0000
  H   H18       1.0  0.08396810713317392  0.35128400809843907  0.0972834397199236  1.0000
  H   H19       1.0  0.08394164659784308  0.8512883044793681  0.40273950742467685  1.0000
  H   H20       1.0  0.9160143110661069  0.6486376788543992  0.9027144585863667  1.0000
  C   C1        1.0  0.3306876833240437  0.8468968131936733  0.5800176758912343  1.0000
  C   C2        1.0  0.6693455127819522  0.6531151078686364  0.0800270796084703  1.0000
  C   C3        1.0  0.6693349175201464  0.15314057963978203  0.41998401136302027  1.0000
  C   C4        1.0  0.3306864482142089  0.3468500068477951  0.9199826596162168  1.0000
  C   C5        1.0  0.6316157585708314  0.0316647504166596  0.6578457788148171  1.0000
  C   C6        1.0  0.3684458727238962  0.4683285053775067  0.15786263887868296  1.0000
  C   C7        1.0  0.3684145381522584  0.9683650842047059  0.3421563821511739  1.0000
  C   C8        1.0  0.6315303453137064  0.5316503964674268  0.84213241742885  1.0000
  C   C9        1.0  0.5500502768225957  0.9777852685243573  0.7189564976576364  1.0000
  C   C10       1.0  0.449988295799102  0.522219101627897  0.2189723516578397  1.0000
  C   C11       1.0  0.44996498778868954  0.02220700788393509  0.28104613694215885  1.0000
  C   C12       1.0  0.5499798481009464  0.4777778946647899  0.7810264935437772  1.0000
  C   C13       1.0  0.6973295892555101  0.9986453087212582  0.7685467993880551  1.0000
  C   C14       1.0  0.3027075061316964  0.5013464901757203  0.2685614484172874  1.0000
  C   C15       1.0  0.3026803844914383  0.0013605352081996  0.23145630875301748  1.0000
  C   C16       1.0  0.6972465003199703  0.49866110226474103  0.7314336076231882  1.0000
  C   C17       1.0  0.9235762678776994  0.0731538387282953  0.7571736608532476  1.0000
  C   C18       1.0  0.07648223664083528  0.4268789863058302  0.2571924122732838  1.0000
  C   C19       1.0  0.07642643885213839  0.9268415021979025  0.24283134177409238  1.0000
  C   C20       1.0  0.923481750371508  0.5730999687685099  0.7428007494308133  1.0000
  C   C21       1.0  0.002711229054590072  0.12778884713763008  0.6957586820350912  1.0000
  C   C22       1.0  0.9973513804004099  0.37224462649098916  0.1957760051142259  1.0000
  C   C23       1.0  0.9973096701199183  0.8722289887906314  0.3042482151678314  1.0000
  C   C24       1.0  0.002640076329498563  0.6277417338177427  0.8042105260003325  1.0000
  C   C25       1.0  0.8571145792947591  0.10672096756157862  0.6454595691314537  1.0000
  C   C26       1.0  0.14293542032937273  0.3933085919478573  0.14547247019207526  1.0000
  C   C27       1.0  0.14290714509900226  0.8933104092963546  0.3545440126439843  1.0000
  C   C28       1.0  0.8570504514127253  0.6066446838194395  0.8545249544100598  1.0000
  S   S1        1.0  0.2853609634823827  0.6035863570567771  0.5988102246322455  1.0000
  S   S2        1.0  0.7146551952673337  0.8964209193621855  0.09882204694476121  1.0000
  S   S3        1.0  0.7146589059478146  0.39644803777466114  0.40119098898360045  1.0000
  S   S4        1.0  0.2853708739248759  0.10355626056091438  0.9011853240591775  1.0000
  N   N1        1.0  0.4808337705525361  0.015212888646893  0.6074933694319995  1.0000
  N   N2        1.0  0.5192060389151295  0.48478401841267527  0.1075058342533097  1.0000
  N   N3        1.0  0.5191907368289677  0.9848139612728417  0.39250926512586654  1.0000
  N   N4        1.0  0.48078649810512536  0.5151782580108845  0.8924934848792104  1.0000
  N   N5        1.0  0.4679991941505223  0.1822394913097796  0.5794274756580435  1.0000
  N   N6        1.0  0.5320289333999  0.3177728206347793  0.0794308193212032  1.0000
  N   N7        1.0  0.5320191973757745  0.8177873852107354  0.42057705336039675  1.0000
  N   N8        1.0  0.4679681393947704  0.6821969607969863  0.9205647108054862  1.0000
  N   N9        1.0  0.315321304138763  0.11813273414600192  0.5366357169300073  1.0000
  N   N10       1.0  0.6846877144682396  0.3818906599580175  0.0366310657981188  1.0000
  N   N11       1.0  0.6846942528260344  0.8819061942529345  0.46337118016197826  1.0000
  N   N12       1.0  0.3153215378921245  0.61808659318919  0.9633668325339002  1.0000
  N   N13       1.0  0.22712277867160674  0.9158858762320817  0.535063753457834  1.0000
  N   N14       1.0  0.7728720059599256  0.58412970974247  0.0350605384420106  1.0000
  N   N15       1.0  0.7728842577089026  0.08414706947016272  0.46494172270646317  1.0000
  N   N16       1.0  0.22714095638464477  0.4158415074600584  0.9649416225821382  1.0000
