data_image0
_chemical_formula_structural       Al2H16C26N4O10F2
_chemical_formula_sum              "Al2 H16 C26 N4 O10 F2"
_cell_length_a       6.639120010217342
_cell_length_b       11.079582471315288
_cell_length_c       16.94082228091255
_cell_angle_alpha    83.82199819545663
_cell_angle_beta     82.64061125617533
_cell_angle_gamma    73.63733913205542

_space_group_name_H-M_alt    "P 1"
_space_group_IT_number       1

loop_
  _space_group_symop_operation_xyz
  'x, y, z'

loop_
  _atom_site_type_symbol
  _atom_site_label
  _atom_site_symmetry_multiplicity
  _atom_site_fract_x
  _atom_site_fract_y
  _atom_site_fract_z
  _atom_site_occupancy
  Al  Al1       1.0  0.4965891003948428  0.5009705861893252  0.4960477436684769  1.0000
  Al  Al2       1.0  0.9947333858295337  0.5053119955235701  0.4966814160651154  1.0000
  H   H1        1.0  0.19512850263733844  0.6526805307481782  0.44390125238768974  1.0000
  H   H2        1.0  0.814552056629104  0.3478112565589839  0.5334219791396676  1.0000
  H   H3        1.0  0.8369183408330017  0.5760178233887744  0.731382281846706  1.0000
  H   H4        1.0  0.7725156724614237  0.5771017238566429  0.8809236581350461  1.0000
  H   H5        1.0  0.4429068441947662  0.4534199396868388  0.8937659257345345  1.0000
  H   H6        1.0  0.6085966800022148  0.44980709143377606  0.10254818696716941  1.0000
  H   H7        1.0  0.17273015637815803  0.5660764884617465  0.106838007571838  1.0000
  H   H8        1.0  0.10251536074534323  0.5671835629579932  0.256402340434235  1.0000
  H   H9        1.0  0.8554393541304322  0.7647358500384484  0.6121689890756699  1.0000
  H   H10       1.0  0.9980382259573798  0.8798061419750456  0.6976879214539125  1.0000
  H   H11       1.0  0.6000778115729943  0.23302128471798522  0.6087604676185306  1.0000
  H   H12       1.0  0.8678875423772254  0.11529053233231684  0.6963489934300355  1.0000
  H   H13       1.0  0.5848245710202207  0.4464697420619004  0.6793948752747453  1.0000
  H   H14       1.0  0.6729540096777171  0.42501114485213537  0.7743983378473016  1.0000
  H   H15       1.0  0.4580097565526343  0.4558911197750888  0.3164828071001081  1.0000
  H   H16       1.0  0.40118632767376283  0.4203296361848176  0.22534878201030747  1.0000
  C   C1        1.0  0.6273424971743328  0.7274683443772787  0.5066829737796326  1.0000
  C   C2        1.0  0.7979584430273478  0.5069392008734114  0.3516596493479298  1.0000
  C   C3        1.0  0.3575218854161193  0.27633075367135274  0.49447243685295206  1.0000
  C   C4        1.0  0.19314778225197665  0.5021979882970627  0.6410219785959654  1.0000
  C   C5        1.0  0.17287870397706234  0.507910380813307  0.7280017377590724  1.0000
  C   C6        1.0  0.9677246607651853  0.5463430264345206  0.7682870954313472  1.0000
  C   C7        1.0  0.9308526315923802  0.547458929535054  0.8502079302943955  1.0000
  C   C8        1.0  0.10719122020902468  0.5106583347332858  0.8949024840721194  1.0000
  C   C9        1.0  0.3114918684547447  0.47819530158577095  0.8570107921918435  1.0000
  C   C10       1.0  0.3513956645972555  0.4741412572867246  0.7730867008161724  1.0000
  C   C11       1.0  0.7174015098965328  0.4733543441719235  0.1375869815995188  1.0000
  C   C12       1.0  0.8949725016328788  0.5040720191190504  0.0975423637731225  1.0000
  C   C13       1.0  0.038924304942099856  0.5381314350492374  0.1396112100031317  1.0000
  C   C14       1.0  0.9991511496907964  0.5384635822508343  0.22159347405985125  1.0000
  C   C15       1.0  0.8230798021557465  0.5053522355003538  0.2641151913779467  1.0000
  C   C16       1.0  0.6761607270529878  0.4724138238266278  0.22164609559582257  1.0000
  C   C17       1.0  0.5562869542472058  0.8675184753493641  0.5097766348051421  1.0000
  C   C18       1.0  0.6477926256136827  0.9326548883624783  0.5578454314955862  1.0000
  C   C19       1.0  0.39934883937996074  0.9358554383142706  0.46376299026201917  1.0000
  C   C20       1.0  0.8010352970811142  0.8672245996978492  0.6100489656167483  1.0000
  C   C21       1.0  0.8807709890542768  0.9319114274369014  0.6579787212673835  1.0000
  C   C22       1.0  0.4218377741916655  0.13534472033755662  0.5036887145716022  1.0000
  C   C23       1.0  0.3335486219570782  0.06873367381445661  0.4602971112201216  1.0000
  C   C24       1.0  0.5774439471689092  0.0680261336062102  0.5555335027150079  1.0000
  C   C25       1.0  0.6594154919486784  0.13110574397119734  0.6071900670760539  1.0000
  C   C26       1.0  0.8083563365284264  0.06464164834768843  0.6569761455127432  1.0000
  N   N1        1.0  0.09229468191501412  0.5068993416911881  0.9791164606633415  1.0000
  N   N2        1.0  0.9132565904079187  0.502448740170536  0.013492422609154207  1.0000
  N   N3        1.0  0.5545783706886241  0.4364101466162039  0.7397664569888249  1.0000
  N   N4        1.0  0.5050722176445676  0.4372525422010298  0.2585860524362644  1.0000
  O   O1        1.0  0.4846707336356885  0.6697915121577084  0.5160220837596157  1.0000
  O   O2        1.0  0.9617322386668617  0.49732233861725933  0.38667536315668366  1.0000
  O   O3        1.0  0.1614797184058219  0.33172942680869977  0.5030446704035185  1.0000
  O   O4        1.0  0.38035148577394284  0.4753810162521432  0.6039298999218232  1.0000
  O   O5        1.0  0.5051716759124999  0.33025375263342494  0.47958304782879674  1.0000
  O   O6        1.0  0.02531196468584075  0.5210227784789866  0.6064469586950381  1.0000
  O   O7        1.0  0.8244451768151108  0.6768996961029502  0.4937860289466228  1.0000
  O   O8        1.0  0.6114334042325709  0.5196784078842642  0.3879011040266889  1.0000
  O   O9        1.0  0.22970963436588934  0.5636062903210117  0.4614159182055246  1.0000
  O   O10       1.0  0.7645849666902648  0.4393794501420204  0.5317151401493163  1.0000
  F   F1        1.0  0.18817961417143184  0.12797186573671132  0.4098775836504983  1.0000
  F   F2        1.0  0.30940292769632555  0.8791618954945978  0.41646449671685554  1.0000
