data_image0
_chemical_formula_structural       Hg4H18C38S8N26
_chemical_formula_sum              "Hg4 H18 C38 S8 N26"
_cell_length_a       6.789829617013013
_cell_length_b       9.079944804248546
_cell_length_c       22.462344360590887
_cell_angle_alpha    88.14409141327666
_cell_angle_beta     85.01335421381218
_cell_angle_gamma    68.03787415338527

_space_group_name_H-M_alt    "P 1"
_space_group_IT_number       1

loop_
  _space_group_symop_operation_xyz
  'x, y, z'

loop_
  _atom_site_type_symbol
  _atom_site_label
  _atom_site_symmetry_multiplicity
  _atom_site_fract_x
  _atom_site_fract_y
  _atom_site_fract_z
  _atom_site_occupancy
  Hg  Hg1       1.0  0.9403458512620447  0.6540462165568498  0.1171430612687914  1.0000
  Hg  Hg2       1.0  0.40578901930152955  0.6543771963602791  0.38298416152979087  1.0000
  Hg  Hg3       1.0  0.05967238887313903  0.34595888906911654  0.882857498441311  1.0000
  Hg  Hg4       1.0  0.5942090321623966  0.3456207847277  0.6170135197885358  1.0000
  H   H1        1.0  0.7512250143058097  0.9522444665769568  0.020441570339471603  1.0000
  H   H2        1.0  0.296253179386845  0.9529459808383011  0.4796304306458338  1.0000
  H   H3        1.0  0.2487836144756628  0.0477737009740977  0.9795546262421694  1.0000
  H   H4        1.0  0.7037550278268582  0.047049625436848395  0.5203705542067212  1.0000
  H   H5        1.0  0.7210384018453483  0.2358253862002186  0.001390349290254288  1.0000
  H   H6        1.0  0.042534301695901874  0.2364832104224632  0.4986065413433565  1.0000
  H   H7        1.0  0.2789490701692685  0.7641999080962663  0.9986116961324497  1.0000
  H   H8        1.0  0.9574523974606353  0.7635052723632896  0.5013973907288332  1.0000
  H   H9        1.0  0.8024510421856731  0.3787471432211761  0.0853028956482262  1.0000
  H   H10       1.0  0.8184211598718034  0.3791399385762518  0.414616981772852  1.0000
  H   H11       1.0  0.19753794515388282  0.6212722137745672  0.9147000818718923  1.0000
  H   H12       1.0  0.18155468272173883  0.6208437952588994  0.5853900021305734  1.0000
  H   H13       1.0  0.13391344329057386  0.24718347993241713  0.1929996388555182  1.0000
  H   H14       1.0  0.6203196002685017  0.24704279714617883  0.3069222028736647  1.0000
  H   H15       1.0  0.8660743787798995  0.7528228129747844  0.8069924297383579  1.0000
  H   H16       1.0  0.3796661743104935  0.752958746024916  0.6930704380688937  1.0000
  H   H17       1.0  0.4559906406947647  0.08948385736244549  0.2499121327916356  1.0000
  H   H18       1.0  0.5439977263047098  0.9105212477391261  0.7500781563660937  1.0000
  C   C1        1.0  0.44280377840021146  0.8239600213920822  0.12095082585911851  1.0000
  C   C2        1.0  0.7335856000304377  0.8240337017401274  0.3791955913826754  1.0000
  C   C3        1.0  0.5572519409195068  0.1759655256042763  0.8790733941509217  1.0000
  C   C4        1.0  0.2664204618555104  0.17595715419551533  0.6208024070036586  1.0000
  C   C5        1.0  0.24285756555412522  0.3948657405135306  0.025531295820066205  1.0000
  C   C6        1.0  0.3624225605533481  0.3948269974389689  0.4743773410523318  1.0000
  C   C7        1.0  0.7571490526909554  0.6051417400687528  0.9744664477448738  1.0000
  C   C8        1.0  0.6375699773730901  0.6051911719167222  0.5256255513646693  1.0000
  C   C9        1.0  0.7864339919451525  0.0215901578275961  0.053828793671023306  1.0000
  C   C10       1.0  0.19173402526107006  0.022141144174185005  0.4462144568301412  1.0000
  C   C11       1.0  0.21356550040061978  0.9784256353428871  0.9461685903173914  1.0000
  C   C12       1.0  0.8082652750448248  0.9778544622830623  0.5537854486900783  1.0000
  C   C13       1.0  0.7688330648870758  0.1778412856851048  0.043803203760909105  1.0000
  C   C14       1.0  0.052844500794307685  0.17838048942941503  0.4562040721927048  1.0000
  C   C15       1.0  0.23115793352181416  0.8221768833615286  0.9561975069339966  1.0000
  C   C16       1.0  0.9471477844775221  0.8216056179180169  0.5437983976548679  1.0000
  C   C17       1.0  0.8146729307251094  0.2556438241219396  0.09003949697038388  1.0000
  C   C18       1.0  0.9293538379023899  0.2560392651037374  0.4099384844284515  1.0000
  C   C19       1.0  0.18531925537808291  0.7443719699168267  0.9099612136671098  1.0000
  C   C20       1.0  0.07063020741951934  0.7439515928333619  0.590065935090216  1.0000
  C   C21       1.0  0.893630419114629  0.0331202367642547  0.1471984140144045  1.0000
  C   C22       1.0  0.0733010175708557  0.033393318869762816  0.3528288672231596  1.0000
  C   C23       1.0  0.10637267300263899  0.9668884316089288  0.8528003043573733  1.0000
  C   C24       1.0  0.9266968165947134  0.9666022877309715  0.6471715256861329  1.0000
  C   C25       1.0  0.9766667452233477  0.9479985829506531  0.2031766233785177  1.0000
  C   C26       1.0  0.07566097456301414  0.9481193145850711  0.2968541110881233  1.0000
  C   C27       1.0  0.023334856294518102  0.0520100854151622  0.7968216926786128  1.0000
  C   C28       1.0  0.9243424454513659  0.051879854036286595  0.7031451795175201  1.0000
  C   C29       1.0  0.1439293091922167  0.7132357529974553  0.2500072354202203  1.0000
  C   C30       1.0  0.8560657241178334  0.2867681653084659  0.7499886666341737  1.0000
  C   C31       1.0  0.23291836814870948  0.5355317224539888  0.2500029682792615  1.0000
  C   C32       1.0  0.7670731268039931  0.464473383567416  0.7499934637301209  1.0000
  C   C33       1.0  0.2159966095409728  0.3047272904615426  0.2182205962254926  1.0000
  C   C34       1.0  0.4806964852357325  0.3046619308779909  0.2817203769707106  1.0000
  C   C35       1.0  0.7839951027100936  0.6952801900471073  0.7817731241929166  1.0000
  C   C36       1.0  0.5192973239578862  0.6953384247505667  0.7182738306645434  1.0000
  C   C37       1.0  0.3912606545647889  0.21892772831032667  0.2499459138814188  1.0000
  C   C38       1.0  0.6087331665918896  0.7810785648526064  0.7500490985266594  1.0000
  S   S1        1.0  0.5859091094683677  0.6774645249038257  0.1640728721674023  1.0000
  S   S2        1.0  0.7368774067732885  0.6776349135061679  0.33603073730400007  1.0000
  S   S3        1.0  0.4141658994700138  0.3224574573309198  0.835942385124646  1.0000
  S   S4        1.0  0.263120087798562  0.32235831785306596  0.663967918677649  1.0000
  S   S5        1.0  0.30332630590873344  0.5084451409603827  0.0711452615579375  1.0000
  S   S6        1.0  0.1884961443931203  0.50851327583149  0.4287530646931117  1.0000
  S   S7        1.0  0.696686951088097  0.4915694632639358  0.9288468461964143  1.0000
  S   S8        1.0  0.8114947442164321  0.49149895507736135  0.5712432824140663  1.0000
  N   N1        1.0  0.33517075694521736  0.9283032750216477  0.0916753177996341  1.0000
  N   N2        1.0  0.7370072763982664  0.9282220828976621  0.40853597511812717  1.0000
  N   N3        1.0  0.6648852405540566  0.0716305842980276  0.9083487747997053  1.0000
  N   N4        1.0  0.2630026145205946  0.0717699602622943  0.591461450833421  1.0000
  N   N5        1.0  0.20861762510193668  0.31021769186053655  0.9927041582447557  1.0000
  N   N6        1.0  0.48119690473352966  0.31000248912771877  0.5071856122229903  1.0000
  N   N7        1.0  0.791381117778954  0.6897850397858603  0.007297441780721697  1.0000
  N   N8        1.0  0.5187781712005518  0.6900180559090854  0.4928173033088541  1.0000
  N   N9        1.0  0.8520730336224245  0.9485736324946642  0.10539493715201331  1.0000
  N   N10       1.0  0.19933561117941428  0.9489752199117162  0.3946608306674478  1.0000
  N   N11       1.0  0.14792619250685146  0.05143978588687049  0.8946033790199266  1.0000
  N   N12       1.0  0.8006695903764154  0.05102038619785531  0.6053384598520779  1.0000
  N   N13       1.0  0.8738405158213779  0.18510573519503737  0.1424129335481439  1.0000
  N   N14       1.0  0.9409815166318012  0.18536531935565395  0.3575756587133582  1.0000
  N   N15       1.0  0.12615848077999903  0.8149053086238283  0.8575876493629053  1.0000
  N   N16       1.0  0.05900606704745569  0.8146243508659693  0.642428230850328  1.0000
  N   N17       1.0  0.9833205652773387  0.033353782003843  0.2500228182461655  1.0000
  N   N18       1.0  0.01668639282792138  0.9666501363609894  0.7499763023254502  1.0000
  N   N19       1.0  0.044301594511750864  0.7887435916488174  0.2026662140669586  1.0000
  N   N20       1.0  0.16779990241217732  0.7888864837264509  0.2973513364431852  1.0000
  N   N21       1.0  0.9556940568380411  0.21126507676297018  0.7973309375834177  1.0000
  N   N22       1.0  0.8321954829875937  0.21111387243745128  0.7026463874697555  1.0000
  N   N23       1.0  0.13787618339883778  0.4641590169028973  0.2175802654863048  1.0000
  N   N24       1.0  0.3993323297990086  0.4641094560112863  0.2824161653082342  1.0000
  N   N25       1.0  0.8621107783415171  0.535852026178233  0.782413095240763  1.0000
  N   N26       1.0  0.6006571298917579  0.5358909003494359  0.7175812839016799  1.0000
