data_image0
_chemical_formula_structural       Zn2H24C44Br4N6O8
_chemical_formula_sum              "Zn2 H24 C44 Br4 N6 O8"
_cell_length_a       10.977811398697725
_cell_length_b       16.00998802726285
_cell_length_c       17.281228539293746
_cell_angle_alpha    86.71141757948826
_cell_angle_beta     91.18496763122933
_cell_angle_gamma    91.9243340934357

_space_group_name_H-M_alt    "P 1"
_space_group_IT_number       1

loop_
  _space_group_symop_operation_xyz
  'x, y, z'

loop_
  _atom_site_type_symbol
  _atom_site_label
  _atom_site_symmetry_multiplicity
  _atom_site_fract_x
  _atom_site_fract_y
  _atom_site_fract_z
  _atom_site_occupancy
  Zn  Zn1       1.0  0.5070951436770984  0.5886080610946536  0.4976730288235842  1.0000
  Zn  Zn2       1.0  0.49287796183541155  0.4114327402942379  0.5022395512969029  1.0000
  H   H1        1.0  0.7311563909149968  0.14873848064663522  0.6712917066530579  1.0000
  H   H2        1.0  0.3172721305440618  0.7100095423653344  0.2844559037975642  1.0000
  H   H3        1.0  0.7750584573123191  0.4173527356392129  0.6511901538691021  1.0000
  H   H4        1.0  0.22511403053187004  0.5824118630760822  0.3489920854576312  1.0000
  H   H5        1.0  0.9650514216089263  0.2670335355404631  0.4969995094494025  1.0000
  H   H6        1.0  0.03480437403143102  0.7329748554664092  0.5028076148490046  1.0000
  H   H7        1.0  0.8725221960813915  0.13821581391345458  0.5612348918908907  1.0000
  H   H8        1.0  0.1274098540234334  0.8617126824613591  0.43845967952444204  1.0000
  H   H9        1.0  0.11528273251202854  0.378286925503268  0.5506520338586681  1.0000
  H   H10       1.0  0.8846972649732195  0.6216646163068732  0.4493891916557473  1.0000
  H   H11       1.0  0.5487171403122986  0.630590940635244  0.7515649896035655  1.0000
  H   H12       1.0  0.26900266678337204  0.8510143872134605  0.3285375200555052  1.0000
  H   H13       1.0  0.4526836805164081  0.3693635950348479  0.24838782053743097  1.0000
  H   H14       1.0  0.5445684408930945  0.6158299147532702  0.8974145722619298  1.0000
  H   H15       1.0  0.45822800942608666  0.3839551061639738  0.10253080588010022  1.0000
  H   H16       1.0  0.5295793954789262  0.6484777510705937  0.1134369167044582  1.0000
  H   H17       1.0  0.4735638320915002  0.3513353817305003  0.8864876321601189  1.0000
  H   H18       1.0  0.5228887143443118  0.6335766290881323  0.259671075236966  1.0000
  H   H19       1.0  0.47873761945236754  0.36639422061163884  0.7402313176337005  1.0000
  H   H20       1.0  0.608762752434224  0.9054005343899191  0.41491145116825834  1.0000
  H   H21       1.0  0.391251119280561  0.094652363057655  0.585050875472021  1.0000
  H   H22       1.0  0.6438325833412436  0.2999439233326767  0.43098848950666735  1.0000
  H   H23       1.0  0.3560141120746608  0.7001387846303543  0.5688927777512947  1.0000
  H   H24       1.0  0.6830647933348503  0.2896518938367763  0.7156423215388941  1.0000
  C   C1        1.0  0.4882053914517145  0.49190069997435165  0.3489106911431322  1.0000
  C   C2        1.0  0.5322305026503928  0.569871764193394  0.7819533909145875  1.0000
  C   C3        1.0  0.47279677317964536  0.4378444410018218  0.1376872097382744  1.0000
  C   C4        1.0  0.5298319591215376  0.5619572845792931  0.8622530504538306  1.0000
  C   C5        1.0  0.4957865780620026  0.5171125670048154  0.1002184587187358  1.0000
  C   C6        1.0  0.507279767634877  0.4826596465805152  0.8997348269889117  1.0000
  C   C7        1.0  0.5126122275636362  0.5878862710943764  0.1441201020503158  1.0000
  C   C8        1.0  0.4902340937569179  0.411932885945177  0.8558090291313577  1.0000
  C   C9        1.0  0.5088594453599455  0.5796128727999345  0.22453194342617883  1.0000
  C   C10       1.0  0.4930998318569877  0.42031764157544427  0.7753903141343059  1.0000
  C   C11       1.0  0.4395264934523625  0.22471070650265554  0.5548099668646245  1.0000
  C   C12       1.0  0.5123076060020253  0.5081789254613654  0.6510061492442247  1.0000
  C   C13       1.0  0.5604387557438815  0.7753405986524982  0.44514197749320067  1.0000
  C   C14       1.0  0.4471875411118019  0.13879915798403888  0.5498695664076794  1.0000
  C   C15       1.0  0.5527960050032875  0.8612587657779329  0.45008319962903437  1.0000
  C   C16       1.0  0.7360157875549547  0.5000884070326777  0.49875509380029825  1.0000
  C   C17       1.0  0.26394558480991753  0.49987085679158133  0.5012104590978057  1.0000
  C   C18       1.0  0.530124454069963  0.10900407039015651  0.49829821762896404  1.0000
  C   C19       1.0  0.46983960385566104  0.8910534616666935  0.5016429740855061  1.0000
  C   C20       1.0  0.6040190422468045  0.1671805458495896  0.45507845500942784  1.0000
  C   C21       1.0  0.39590666956139137  0.8328887214644779  0.5448273426725125  1.0000
  C   C22       1.0  0.5893796377571833  0.252276060246686  0.4633740882063791  1.0000
  C   C23       1.0  0.12757204571786224  0.5018076918775732  0.4969082291514512  1.0000
  C   C24       1.0  0.4105114892073517  0.7477887712385962  0.5365342267970874  1.0000
  C   C25       1.0  0.7447513145957956  0.2840482674852892  0.6676652064911224  1.0000
  C   C26       1.0  0.2554510102570404  0.7156974182803352  0.3323317132625263  1.0000
  C   C27       1.0  0.7966163270242176  0.35623942670326153  0.6313349718120025  1.0000
  C   C28       1.0  0.20346868661221154  0.6435815532883565  0.36871335584366705  1.0000
  C   C29       1.0  0.8765796846251421  0.35115722629878116  0.5695270646296678  1.0000
  C   C30       1.0  0.12341256159681538  0.6487563698347998  0.4304756925364899  1.0000
  C   C31       1.0  0.9037848697554196  0.2717240804924401  0.545365129490911  1.0000
  C   C32       1.0  0.09614179194652192  0.7282069181294162  0.45451335062626447  1.0000
  C   C33       1.0  0.8512218410951179  0.19932937264342598  0.5813802869497736  1.0000
  C   C34       1.0  0.8723737688546365  0.4981287774110754  0.5031210359699543  1.0000
  C   C35       1.0  0.14875848658126503  0.8005463295323664  0.4184167103698968  1.0000
  C   C36       1.0  0.7716402993070164  0.2052478693194715  0.6427513766777367  1.0000
  C   C37       1.0  0.22849029603560925  0.7945394996651985  0.35712343154076365  1.0000
  C   C38       1.0  0.06305416369313122  0.43113140795004756  0.52757429281602  1.0000
  C   C39       1.0  0.9369123337110921  0.568816116941541  0.472473500532729  1.0000
  C   C40       1.0  0.06407780057168111  0.5725923177464124  0.46788506470365127  1.0000
  C   C41       1.0  0.9358756937666898  0.4273518176810213  0.5321553729375526  1.0000
  C   C42       1.0  0.48827293176918835  0.5006375583024577  0.26212058369866054  1.0000
  C   C43       1.0  0.5132104062029371  0.4993436227688052  0.737812362820158  1.0000
  C   C44       1.0  0.46959847808488325  0.4300568022114745  0.21796999519560253  1.0000
  Br  Br1       1.0  0.672303879384238  0.7354877357046945  0.3752799052472683  1.0000
  Br  Br2       1.0  0.3277176905898572  0.26457096933533103  0.6247249469806988  1.0000
  Br  Br3       1.0  0.7173356472981781  0.1329864696777108  0.3837166565639337  1.0000
  Br  Br4       1.0  0.28257859786316436  0.8671494980297466  0.6161560388271071  1.0000
  N   N1        1.0  0.5036646008601764  0.5324726694800361  0.019188096251880896  1.0000
  N   N2        1.0  0.4996610665436165  0.4672633883661916  0.9807905425666095  1.0000
  N   N3        1.0  0.5075852176700267  0.28032577632230016  0.5120062094336861  1.0000
  N   N4        1.0  0.492316426441356  0.7197367700518171  0.4879190230310115  1.0000
  N   N5        1.0  0.5465280477182475  0.022761201260024698  0.49159843589584545  1.0000
  N   N6        1.0  0.45346129862179657  0.9772893190177782  0.5083367908956191  1.0000
  O   O1        1.0  0.49070489394038225  0.560065661009162  0.3839468483558265  1.0000
  O   O2        1.0  0.5093203160816203  0.4400068087070821  0.6159334137906357  1.0000
  O   O3        1.0  0.48619053055600864  0.41836387964234933  0.3809711845171507  1.0000
  O   O4        1.0  0.5140568597008227  0.5817230374168858  0.6189907160908987  1.0000
  O   O5        1.0  0.6894185434903762  0.5714501182473909  0.5031340630654597  1.0000
  O   O6        1.0  0.3104979300664469  0.4285044305493812  0.49670320995523554  1.0000
  O   O7        1.0  0.6775243575516684  0.4314738538266312  0.48924007029845756  1.0000
  O   O8        1.0  0.32247421221045164  0.5684467650170149  0.5107895192102917  1.0000
