data_image0
_chemical_formula_structural       Ni2H44C28N8O12
_chemical_formula_sum              "Ni2 H44 C28 N8 O12"
_cell_length_a       9.040646127701116
_cell_length_b       9.040676018426838
_cell_length_c       11.519626320529714
_cell_angle_alpha    69.49978439257171
_cell_angle_beta     69.50050500595165
_cell_angle_gamma    79.30702794546079

_space_group_name_H-M_alt    "P 1"
_space_group_IT_number       1

loop_
  _space_group_symop_operation_xyz
  'x, y, z'

loop_
  _atom_site_type_symbol
  _atom_site_label
  _atom_site_symmetry_multiplicity
  _atom_site_fract_x
  _atom_site_fract_y
  _atom_site_fract_z
  _atom_site_occupancy
  Ni  Ni1       1.0  0.4494374124753194  0.5505690493366939  0.7500025815755864  1.0000
  Ni  Ni2       1.0  0.5505582633650123  0.44943259323881785  0.24999933766270024  1.0000
  H   H1        1.0  0.9036178847217401  0.3939065583835415  0.4782186813315406  1.0000
  H   H2        1.0  0.6060524862494816  0.09636925135760067  0.021813137278890334  1.0000
  H   H3        1.0  0.09635884584487539  0.6060482969883623  0.5218132296509737  1.0000
  H   H4        1.0  0.39392669694704113  0.9036296640891237  0.9781998216524456  1.0000
  H   H5        1.0  0.8916302256590002  0.5981635005841427  0.4174660208860529  1.0000
  H   H6        1.0  0.4017941516085913  0.10836347096670099  0.08253200133048466  1.0000
  H   H7        1.0  0.10835534140067439  0.4017933087129322  0.5825396557154433  1.0000
  H   H8        1.0  0.5981838094380193  0.891640517454178  0.9174678047024117  1.0000
  H   H9        1.0  0.3554443049998497  0.7037352847107458  0.48828975281294623  1.0000
  H   H10       1.0  0.2962704569398227  0.6445663137477878  0.011715732933026869  1.0000
  H   H11       1.0  0.6445543676409713  0.29625676459465206  0.5117190798920533  1.0000
  H   H12       1.0  0.7037368464171861  0.355440420817949  0.9882740548454836  1.0000
  H   H13       1.0  0.4214439679511628  0.9006786150658497  0.7484404949413772  1.0000
  H   H14       1.0  0.09933975257664686  0.5785606822283427  0.7515582342099804  1.0000
  H   H15       1.0  0.5785718339549035  0.09932204229451709  0.25155735303149385  1.0000
  H   H16       1.0  0.9006568342243925  0.421445833521112  0.24843784973601404  1.0000
  H   H17       1.0  0.28050414809084856  0.13284419651009927  0.5793112414153043  1.0000
  H   H18       1.0  0.8671652579185151  0.71949807737154  0.9206843286670362  1.0000
  H   H19       1.0  0.7195222486249618  0.8671591222405367  0.42067710591412333  1.0000
  H   H20       1.0  0.1328292615576103  0.280502293086677  0.07932082282348318  1.0000
  H   H21       1.0  0.24030386187283878  0.9304216178858197  0.3482597055885749  1.0000
  H   H22       1.0  0.06956973920583921  0.7597069550423186  0.1517414705423406  1.0000
  H   H23       1.0  0.7597130229674889  0.0695815203179677  0.6517337486288568  1.0000
  H   H24       1.0  0.9304184167429171  0.2403005769123823  0.8482591324480924  1.0000
  H   H25       1.0  0.29209095931343393  0.11791592896364014  0.33012242157168004  1.0000
  H   H26       1.0  0.8820827009478052  0.7079163547150104  0.16986866746758275  1.0000
  H   H27       1.0  0.7079257999585594  0.8820870836314754  0.6698754399935183  1.0000
  H   H28       1.0  0.1179120464623722  0.29208552593015474  0.8301247448850974  1.0000
  H   H29       1.0  0.040577884287166896  0.15693864181081094  0.5016720912966974  1.0000
  H   H30       1.0  0.8430608959806065  0.9594312407488274  0.9983175855931774  1.0000
  H   H31       1.0  0.9594358057998206  0.8430596722888379  0.498325169424213  1.0000
  H   H32       1.0  0.156932646749091  0.04057060162689649  0.0016770160389754116  1.0000
  H   H33       1.0  0.007154842079963006  0.13004627094846202  0.3689261645871511  1.0000
  H   H34       1.0  0.8699473003674641  0.9928537849847242  0.13106511599848142  1.0000
  H   H35       1.0  0.9928626340220036  0.8699497656289876  0.6310689698321994  1.0000
  H   H36       1.0  0.13005066499866302  0.007151660794981802  0.868927414293033  1.0000
  H   H37       1.0  0.35730556807792624  0.41539839403217366  0.5507019709570571  1.0000
  H   H38       1.0  0.5845981960654355  0.6426923483952577  0.949301235305711  1.0000
  H   H39       1.0  0.6426768668778566  0.5845937475444457  0.44930147492171807  1.0000
  H   H40       1.0  0.41539521431734266  0.3573210165895091  0.0507017172841771  1.0000
  H   H41       1.0  0.4007885723429325  0.3129356754130228  0.6814505162309885  1.0000
  H   H42       1.0  0.6870645102343287  0.5992259585632382  0.8185474132202019  1.0000
  H   H43       1.0  0.599209982373786  0.68706138464902  0.3185475001743044  1.0000
  H   H44       1.0  0.3129252145881338  0.400789784430664  0.18145413979303274  1.0000
  C   C1        1.0  0.7880345938921424  0.5077837884081333  0.6245150577353726  1.0000
  C   C2        1.0  0.4922185766840741  0.21196337979934296  0.8754876468354098  1.0000
  C   C3        1.0  0.2119569781451957  0.49220944098063063  0.37549269738681806  1.0000
  C   C4        1.0  0.5077780565221843  0.7880406180109246  0.124514285995204  1.0000
  C   C5        1.0  0.9168724172968794  0.5000981688831772  0.4985877846564293  1.0000
  C   C6        1.0  0.49987448584742117  0.0831201501989938  0.0014203669861458533  1.0000
  C   C7        1.0  0.08310962748637245  0.4998689902189072  0.5014256834271152  1.0000
  C   C8        1.0  0.5001092725785766  0.9168838034734604  0.998581425875372  1.0000
  C   C9        1.0  0.3546073617292578  0.7865266255761723  0.5375711845858504  1.0000
  C   C10       1.0  0.2134786292891562  0.6454015651120742  0.962431823715427  1.0000
  C   C11       1.0  0.6454016584067614  0.21347040208480184  0.462429350347499  1.0000
  C   C12       1.0  0.7865204403027876  0.35460381845013694  0.03756304317482773  1.0000
  C   C13       1.0  0.3843771243408795  0.8938063480924825  0.6707748688988459  1.0000
  C   C14       1.0  0.10620795502398286  0.6156344321781404  0.8292229597549152  1.0000
  C   C15       1.0  0.6156431253152732  0.10619793779360259  0.32922002626383323  1.0000
  C   C16       1.0  0.8937907938234699  0.3843744770755039  0.17077194850392627  1.0000
  C   C17       1.0  0.3135011727930106  0.0088049267078674  0.5880708673920836  1.0000
  C   C18       1.0  0.9912072240333883  0.6865079724709631  0.9119222213064263  1.0000
  C   C19       1.0  0.6865204303145588  0.9911982640867405  0.41192135558567605  1.0000
  C   C20       1.0  0.008790689194349  0.3134961389739459  0.0880758778360615  1.0000
  C   C21       1.0  0.2248284433320009  0.0164182641761741  0.4000053683848677  1.0000
  C   C22       1.0  0.9835794849204119  0.7751820167229367  0.09998966798058016  1.0000
  C   C23       1.0  0.7751909726154907  0.9835825079925087  0.599988911749591  1.0000
  C   C24       1.0  0.016414964947891495  0.2248221306440641  0.9000067101829999  1.0000
  C   C25       1.0  0.050707208702292  0.0683631893165639  0.4530077838395599  1.0000
  C   C26       1.0  0.9316340032717535  0.9493045943088984  0.04698319327953021  1.0000
  C   C27       1.0  0.9493136824428348  0.931634045186655  0.5469870285859316  1.0000
  C   C28       1.0  0.06836408575164649  0.050699692988160905  0.9530087355760841  1.0000
  N   N1        1.0  0.40938677441749144  0.755834596872539  0.6380638576988603  1.0000
  N   N2        1.0  0.2441757718096937  0.5906222164962357  0.8619400242177663  1.0000
  N   N3        1.0  0.5906231045408531  0.24416596962757334  0.36193641079316313  1.0000
  N   N4        1.0  0.7558228301778697  0.4093891102096591  0.1380525610346696  1.0000
  N   N5        1.0  0.2961219381500512  0.9393220980490966  0.5045774866530408  1.0000
  N   N6        1.0  0.06068594772499128  0.7038875081808558  0.9954200243357222  1.0000
  N   N7        1.0  0.7038952172074316  0.0606774642197934  0.49541768913491074  1.0000
  N   N8        1.0  0.9393144231799724  0.29611544595507405  0.004577739220579203  1.0000
  O   O1        1.0  0.6447727155847789  0.5208112309066449  0.6183112407394944  1.0000
  O   O2        1.0  0.4791854580102991  0.35522479803738344  0.881695656759419  1.0000
  O   O3        1.0  0.35521807106017894  0.47917725091685537  0.3816979423272286  1.0000
  O   O4        1.0  0.5207957906000829  0.6447789786092456  0.11831204053925157  1.0000
  O   O5        1.0  0.8233006964488679  0.5028863171333524  0.7217459492109767  1.0000
  O   O6        1.0  0.4971452957334747  0.1767067898030064  0.7782443689313966  1.0000
  O   O7        1.0  0.1766927158449647  0.4971283319427469  0.27825319746704485  1.0000
  O   O8        1.0  0.5028756407714496  0.8233034272527318  0.22174881825310425  1.0000
  O   O9        1.0  0.32086380945320064  0.3898555039509759  0.6462946725364702  1.0000
  O   O10       1.0  0.6101420984588728  0.679143252129215  0.8537093260179632  1.0000
  O   O11       1.0  0.6791175976631862  0.6101212747166329  0.35371126646052886  1.0000
  O   O12       1.0  0.38986216856115863  0.3208795624372982  0.14629359702083633  1.0000
