data_image0
_chemical_formula_structural       Zr6H16C40N12O32
_chemical_formula_sum              "Zr6 H16 C40 N12 O32"
_cell_length_a       16.48843291259099
_cell_length_b       17.17883790309964
_cell_length_c       17.202798422775565
_cell_angle_alpha    71.25034747245391
_cell_angle_beta     89.95234815808091
_cell_angle_gamma    89.80801861372562

_space_group_name_H-M_alt    "P 1"
_space_group_IT_number       1

loop_
  _space_group_symop_operation_xyz
  'x, y, z'

loop_
  _atom_site_type_symbol
  _atom_site_label
  _atom_site_symmetry_multiplicity
  _atom_site_fract_x
  _atom_site_fract_y
  _atom_site_fract_z
  _atom_site_occupancy
  Zr  Zr1       1.0  0.1032317118809161  0.8992997421777176  0.10660549810925349  1.0000
  Zr  Zr2       1.0  0.8869732834395309  0.9081792885707359  0.09867278432731298  1.0000
  Zr  Zr3       1.0  0.11325576354244049  0.07734005563914083  0.9294824527116602  1.0000
  Zr  Zr4       1.0  0.8976068794420514  0.08503750537173721  0.9204064138580605  1.0000
  Zr  Zr5       1.0  0.0006970949867834993  0.9022669974622204  0.9250685463636756  1.0000
  Zr  Zr6       1.0  0.9998273858777436  0.0818418053044638  0.10334106401147379  1.0000
  H   H1        1.0  0.9989112927433655  0.9205003857190519  0.22471129385398572  1.0000
  H   H2        1.0  0.8283854588410833  0.9280424854584765  0.9400210134191697  1.0000
  H   H3        1.0  0.002453341141603  0.20433926248387735  0.9402219125359395  1.0000
  H   H4        1.0  0.17385784523040124  0.9186674448221623  0.9490202580697159  1.0000
  H   H5        1.0  0.7236208928257639  0.8931102129663415  0.07506233170649781  1.0000
  H   H6        1.0  0.7558227941679547  0.009381991281706801  0.0006687362015042999  1.0000
  H   H7        1.0  0.9020801391994624  0.1935193107634348  0.7692819473936866  1.0000
  H   H8        1.0  0.018149312448358004  0.1922431057588199  0.8117210767194507  1.0000
  H   H9        1.0  0.2710919914460774  0.09493695790472148  0.9542507423089219  1.0000
  H   H10       1.0  0.24464797109327918  0.978378966106817  0.029789485764823116  1.0000
  H   H11       1.0  0.09613576900624568  0.7477272126143789  0.2136392120366963  1.0000
  H   H12       1.0  0.9825413958972219  0.7906079330927157  0.21400262151494323  1.0000
  H   H13       1.0  0.10184332609417622  0.1741258957537468  0.7686522375856484  1.0000
  H   H14       1.0  0.26141841943362454  0.9386348474090555  0.12879221200584112  1.0000
  H   H15       1.0  0.8952056763040516  0.7941253119895819  0.2599405609035159  1.0000
  H   H16       1.0  0.7393303246224222  0.10841153863796651  0.9594516466266755  1.0000
  C   C1        1.0  0.1280472757852635  0.7585235799412474  0.01877646627339398  1.0000
  C   C2        1.0  0.8603136430147843  0.9985502415322144  0.23745026500245106  1.0000
  C   C3        1.0  0.8651374845518519  0.7663179386733959  0.010068337461227447  1.0000
  C   C4        1.0  0.1381764219409831  0.00021864213102420064  0.2380352029380219  1.0000
  C   C5        1.0  0.1425209654658914  0.21256028705475669  0.023374295655166605  1.0000
  C   C6        1.0  0.8736688394836492  0.9950333933860875  0.7808847771814912  1.0000
  C   C7        1.0  0.8622455173085087  0.21688639390647066  0.0215782822240058  1.0000
  C   C8        1.0  0.1329650729009018  0.9881767308531693  0.7855256421788257  1.0000
  C   C9        1.0  0.2602520617104958  0.9972224718002423  0.4456638561968448  1.0000
  C   C10       1.0  0.3774916532352107  0.9921770467738255  0.5152260435637075  1.0000
  C   C11       1.0  0.2572425331374149  0.9891920397436279  0.5794258596467259  1.0000
  C   C12       1.0  0.7413748994921363  0.9965381420508236  0.44648159550109073  1.0000
  C   C13       1.0  0.7445813296246654  0.9927642419251939  0.5789861414542657  1.0000
  C   C14       1.0  0.6242566729881673  0.9930605708328882  0.5159815142576534  1.0000
  C   C15       1.0  0.26024202825821163  0.4210481383688744  0.024398816467112307  1.0000
  C   C16       1.0  0.2556270388061109  0.5536113001314362  0.0208899225208867  1.0000
  C   C17       1.0  0.37661666251734965  0.49066813111382857  0.023110290099865014  1.0000
  C   C18       1.0  0.7409495462339137  0.4235448772142618  0.025067853704349784  1.0000
  C   C19       1.0  0.7429911979506159  0.5573977711409839  0.017464957259605285  1.0000
  C   C20       1.0  0.6232303490899298  0.49209400851589186  0.022860448048938137  1.0000
  C   C21       1.0  0.4630844249866115  0.49258716063127383  0.023427034302031316  1.0000
  C   C22       1.0  0.5367323577855458  0.4929604291332765  0.023494905870457192  1.0000
  C   C23       1.0  0.5377122464616164  0.9921730506661463  0.5175239061335901  1.0000
  C   C24       1.0  0.4640482044918031  0.9918785233410078  0.5168699186598715  1.0000
  C   C25       1.0  0.8294838064186364  0.9935470247349372  0.7088439080375935  1.0000
  C   C26       1.0  0.7900054861804123  0.9925280032831199  0.6495570048460592  1.0000
  C   C27       1.0  0.782797658722977  0.9985266866775363  0.37311350904043644  1.0000
  C   C28       1.0  0.8179045016053337  0.9996192672110665  0.3106510749960236  1.0000
  C   C29       1.0  0.1751424711046567  0.9872544687487449  0.7120235894656942  1.0000
  C   C30       1.0  0.2125369762322222  0.9871298450334082  0.651120352101202  1.0000
  C   C31       1.0  0.2184302352483485  0.0007029305062218011  0.3720354952674256  1.0000
  C   C32       1.0  0.18236073945185893  0.0021096989110631994  0.31000032923463283  1.0000
  C   C33       1.0  0.8181153242762207  0.28851707374911945  0.025147922482112485  1.0000
  C   C34       1.0  0.7828697871576225  0.3503644355744271  0.02638808101364286  1.0000
  C   C35       1.0  0.8235869701981784  0.6919501031354756  0.011172507051313113  1.0000
  C   C36       1.0  0.7870083882273989  0.6299148326113057  0.013490427500236974  1.0000
  C   C37       1.0  0.21967481450455753  0.34760987797768905  0.025314715894310807  1.0000
  C   C38       1.0  0.1853584973847475  0.2851676325484007  0.025203715645538714  1.0000
  C   C39       1.0  0.17114597596163614  0.6850454855505744  0.01910520349392198  1.0000
  C   C40       1.0  0.20991313525014021  0.6246254842074918  0.0195159164494427  1.0000
  N   N1        1.0  0.3419626623736036  0.9972626509743777  0.44315278094408217  1.0000
  N   N2        1.0  0.3388128808554711  0.9876786236696092  0.585573339355946  1.0000
  N   N3        1.0  0.21425639877264757  0.993547447742408  0.5115727879167693  1.0000
  N   N4        1.0  0.7874595170163515  0.9951703389380525  0.5115373450082856  1.0000
  N   N5        1.0  0.6630348786060409  0.9913430482109717  0.5854926509679929  1.0000
  N   N6        1.0  0.6596646593169737  0.9957465979315857  0.4445117596300321  1.0000
  N   N7        1.0  0.2134469754393464  0.48606933688253673  0.022534861738222407  1.0000
  N   N8        1.0  0.33712635386653034  0.5601481716826626  0.020956578590194425  1.0000
  N   N9        1.0  0.34197786826446475  0.4191296272669121  0.024901048825420023  1.0000
  N   N10       1.0  0.7864646881173982  0.4898053998791454  0.020858323028463154  1.0000
  N   N11       1.0  0.66134935190194  0.5628195339609476  0.017851113435455142  1.0000
  N   N12       1.0  0.6592672837787745  0.42034482629619424  0.026876496846973876  1.0000
  O   O1        1.0  0.1436732804189376  0.7852352849213561  0.07819558929168827  1.0000
  O   O2        1.0  0.07999151301663691  0.7897666874937173  0.9590187381340485  1.0000
  O   O3        1.0  0.8435614557339122  0.9389374503067388  0.21139980622998414  1.0000
  O   O4        1.0  0.9108356154513969  0.05622899824120961  0.2073207056403135  1.0000
  O   O5        1.0  0.8450396269337687  0.7962263119735057  0.06603150508802716  1.0000
  O   O6        1.0  0.9166802245395971  0.7949960175224078  0.9528063035520447  1.0000
  O   O7        1.0  0.15882809683455432  0.9441675774172396  0.20817166565591805  1.0000
  O   O8        1.0  0.0823185371680637  0.053705500594276104  0.212500974487746  1.0000
  O   O9        1.0  0.07085120973567169  0.7995467424946413  0.21176508611380032  1.0000
  O   O10       1.0  0.2380095802565663  0.9257988393159452  0.08234581267588946  1.0000
  O   O11       1.0  0.9182597905710138  0.7949508820472105  0.20763245102099148  1.0000
  O   O12       1.0  0.7628963247062401  0.935625987495534  0.07317359201750423  1.0000
  O   O13       1.0  0.9965655275318498  0.8806334325712372  0.05002851770174745  1.0000
  O   O14       1.0  0.9982772822197816  0.9421840872009497  0.16520450396266995  1.0000
  O   O15       1.0  0.1628368069323969  0.18327611400374622  0.9668544810454236  1.0000
  O   O16       1.0  0.08809613021954021  0.18583967966601725  0.07782147256141062  1.0000
  O   O17       1.0  0.8582896222661631  0.0554521441068445  0.8063564713543911  1.0000
  O   O18       1.0  0.9224429413783143  0.9356228517806785  0.8120634587187893  1.0000
  O   O19       1.0  0.8419773929421979  0.18773099648058184  0.9651559349698998  1.0000
  O   O20       1.0  0.9182032578672334  0.19086078733166537  0.07472183328641792  1.0000
  O   O21       1.0  0.1480928431017645  0.048637167687694216  0.8107318752105569  1.0000
  O   O22       1.0  0.0856870826220657  0.9280868093438955  0.818228833376743  1.0000
  O   O23       1.0  0.0820355152622199  0.1864347774309465  0.8168501898057556  1.0000
  O   O24       1.0  0.23733636122368298  0.04908862000348079  0.9528625599104146  1.0000
  O   O25       1.0  0.9286058944647166  0.19002175790863163  0.8207689286217814  1.0000
  O   O26       1.0  0.7628846449747613  0.06146527439292271  0.9473129951973505  1.0000
  O   O27       1.0  0.0036377302713930006  0.14465670265494174  0.961766234609982  1.0000
  O   O28       1.0  0.0039261785726481  0.0269430029923541  0.9039015223252562  1.0000
  O   O29       1.0  0.0883553173882703  0.027929975437316994  0.0535090763782122  1.0000
  O   O30       1.0  0.8778479071601453  0.9470957201961951  0.9584566088384036  1.0000
  O   O31       1.0  0.1246358376575216  0.9381972126045852  0.9678916435186053  1.0000
  O   O32       1.0  0.9103845990317866  0.03226233744462801  0.049763342482165705  1.0000
