data_image0
_chemical_formula_structural       K2H38C56S8O16
_chemical_formula_sum              "K2 H38 C56 S8 O16"
_cell_length_a       11.112699047714049
_cell_length_b       12.114593742845829
_cell_length_c       12.538295472503453
_cell_angle_alpha    65.64050467543399
_cell_angle_beta     64.36839784016257
_cell_angle_gamma    80.25442560910453

_space_group_name_H-M_alt    "P 1"
_space_group_IT_number       1

loop_
  _space_group_symop_operation_xyz
  'x, y, z'

loop_
  _atom_site_type_symbol
  _atom_site_label
  _atom_site_symmetry_multiplicity
  _atom_site_fract_x
  _atom_site_fract_y
  _atom_site_fract_z
  _atom_site_occupancy
  K   K1        1.0  0.102121466288466  0.7053426756429387  0.4697147748718748  1.0000
  K   K2        1.0  0.8978754545351251  0.29465080786108194  0.5302874849543568  1.0000
  H   H1        1.0  0.8730765361152139  0.4591819715707075  0.26413569808121184  1.0000
  H   H2        1.0  0.1269234599989133  0.5408178576336622  0.7358644374136458  1.0000
  H   H3        1.0  0.9480324783176144  0.45879557180794006  0.6601987387971561  1.0000
  H   H4        1.0  0.05196851730477899  0.541204258665701  0.33980180941451715  1.0000
  H   H5        1.0  0.6667250010718817  0.2618125941232917  0.8314630860398393  1.0000
  H   H6        1.0  0.3332749950422381  0.7381872350810781  0.1685370494550184  1.0000
  H   H7        1.0  0.6186237924832626  0.945393253404731  0.46484529936098795  1.0000
  H   H8        1.0  0.38137620505138875  0.05460657711571319  0.5351556326196982  1.0000
  H   H9        1.0  0.396257589105069  0.8511489113745013  0.5555856030234807  1.0000
  H   H10       1.0  0.6037424070090581  0.1488509178298685  0.44441453247137  1.0000
  H   H11       1.0  0.3787968387437389  0.6405671500546076  0.5747263916857078  1.0000
  H   H12       1.0  0.6212031573703883  0.3594326791497621  0.4252737438091499  1.0000
  H   H13       1.0  0.5889793380641778  0.5284772823082661  0.49809481022393937  1.0000
  H   H14       1.0  0.41102066921941127  0.4715234530687696  0.5019049587000665  1.0000
  H   H15       1.0  0.948544670454595  0.4160244825361091  0.9924851337894789  1.0000
  H   H16       1.0  0.051455338249525105  0.583976254157001  0.0075154316203552085  1.0000
  H   H17       1.0  0.9647222562893633  0.3216483367726823  0.8437801669752784  1.0000
  H   H18       1.0  0.0352777398247639  0.6783514924316876  0.15621996851957934  1.0000
  H   H19       1.0  0.9135976483261389  0.1016411798731554  0.9301198658330203  1.0000
  H   H20       1.0  0.08640235895745009  0.8983595555038733  0.06987990309097819  1.0000
  H   H21       1.0  0.8614685827538651  0.9752517451216249  0.1572656965260748  1.0000
  H   H22       1.0  0.13853041527251264  0.024748084129548403  0.8427348227378031  1.0000
  H   H23       1.0  0.5518428578340178  0.8104224493595497  0.8539793156807104  1.0000
  H   H24       1.0  0.4481581377883757  0.18957738111409836  0.14602123253095556  1.0000
  H   H25       1.0  0.32839448266993543  0.7291564665678079  0.9334159574402532  1.0000
  H   H26       1.0  0.6716055134441915  0.2708433626365618  0.0665841780546046  1.0000
  H   H27       1.0  0.30093940525956236  0.5361339670955587  0.9174551727088909  1.0000
  H   H28       1.0  0.6990616001117615  0.4638667682346664  0.08254421244609489  1.0000
  H   H29       1.0  0.504488394219635  0.42886527508610334  0.8200452090803336  1.0000
  H   H30       1.0  0.49551161164342267  0.5711354589748511  0.17995376335784388  1.0000
  H   H31       1.0  0.601942627088519  0.0250485183763587  0.11009516273788479  1.0000
  H   H32       1.0  0.3980573676050768  0.9749513095119297  0.8899041762711445  1.0000
  H   H33       1.0  0.5943834816631223  0.8167679300888294  0.2726202595171684  1.0000
  H   H34       1.0  0.40561651303046636  0.18323189779946605  0.7273790794918609  1.0000
  H   H35       1.0  0.6840439161390464  0.6446780984198314  0.20003671671265963  1.0000
  H   H36       1.0  0.31595608972401124  0.3553226356411158  0.7999622557255105  1.0000
  H   H37       1.0  0.7655456910708267  0.679182480519728  0.9710355468690888  1.0000
  H   H38       1.0  0.2344553017105113  0.320817347321757  0.028963408370920277  1.0000
  C   C1        1.0  0.8363300918524602  0.5967902098367759  0.3948765395631283  1.0000
  C   C2        1.0  0.1636689075944489  0.40320962073047895  0.6051247761865709  1.0000
  C   C3        1.0  0.7192292718915496  0.6719315972485447  0.43929864470331365  1.0000
  C   C4        1.0  0.28076972613483525  0.3280682320026287  0.560701874560557  1.0000
  C   C5        1.0  0.7287985293768955  0.7907814301582123  0.43052735956752713  1.0000
  C   C6        1.0  0.27120146673722456  0.20921839904615777  0.5694727759273304  1.0000
  C   C7        1.0  0.6111735133826884  0.8536146314825996  0.4725897879250596  1.0000
  C   C8        1.0  0.38882548606422057  0.14638519908465497  0.5274115278246395  1.0000
  C   C9        1.0  0.4864559977830112  0.8003451500751668  0.5239665156520202  1.0000
  C   C10       1.0  0.5135430002433735  0.1996546791760068  0.47603400361185044  1.0000
  C   C11       1.0  0.4761674196636676  0.6825459984640075  0.5344797751438147  1.0000
  C   C12       1.0  0.5238315909527103  0.3174547382759058  0.4655211740350325  1.0000
  C   C13       1.0  0.5922563705595253  0.6203454873106864  0.49172301765273113  1.0000
  C   C14       1.0  0.40774262888739093  0.37965434325656844  0.5082782980969682  1.0000
  C   C15       1.0  0.8771025429796923  0.1221738959381042  0.20551264427305657  1.0000
  C   C16       1.0  0.12289746288336541  0.8778268381228499  0.7944863281651137  1.0000
  C   C17       1.0  0.8968848106651707  0.24920933786206942  0.15807167067648448  1.0000
  C   C18       1.0  0.10311519519788702  0.7507913961988848  0.8419273017616856  1.0000
  C   C19       1.0  0.9301192365404845  0.31935886356011167  0.027550822331299747  1.0000
  C   C20       1.0  0.0698817688308395  0.6806418717701063  0.9724485628236861  1.0000
  C   C21       1.0  0.9389326779564727  0.267072506008354  0.9446798025965463  1.0000
  C   C22       1.0  0.0610673293271162  0.7329282293686747  0.05531996632745252  1.0000
  C   C23       1.0  0.9111187837336914  0.14337732199074077  0.9931591181719521  1.0000
  C   C24       1.0  0.08888122354989748  0.8566234133862878  0.0068406507520464965  1.0000
  C   C25       1.0  0.8808546216338514  0.07182511586908902  0.12162789457070729  1.0000
  C   C26       1.0  0.11914437639253352  0.9281747133820915  0.8783726246931636  1.0000
  C   C27       1.0  0.8783784690286254  0.3071111328548355  0.24642462302129764  1.0000
  C   C28       1.0  0.12162152566497039  0.6928886950334598  0.7535747159877316  1.0000
  C   C29       1.0  0.7533377132596968  0.484191042456132  0.7281438858333541  1.0000
  C   C30       1.0  0.24666329211163432  0.5158096928740863  0.27185549932163144  1.0000
  C   C31       1.0  0.642207809154229  0.5572513338965095  0.7830358945875913  1.0000
  C   C32       1.0  0.35779219812936  0.44274940148052616  0.21696387433640746  1.0000
  C   C33       1.0  0.6571653962136565  0.6670718655104365  0.7917640011724385  1.0000
  C   C34       1.0  0.3428355994087369  0.3329279649632042  0.2082365470392347  1.0000
  C   C35       1.0  0.5419408202220738  0.7265862780964838  0.8461473279622992  1.0000
  C   C36       1.0  0.45806017540031974  0.2734135523771641  0.15385322024937395  1.0000
  C   C37       1.0  0.415286939986423  0.680345950531688  0.8909913455080768  1.0000
  C   C38       1.0  0.5847140668054324  0.31965478611461146  0.10900883613274456  1.0000
  C   C39       1.0  0.39996675197824066  0.5723470967041209  0.8829257532897327  1.0000
  C   C40       1.0  0.6000342645625523  0.4276545447987629  0.11707326529440112  1.0000
  C   C41       1.0  0.5128949655859643  0.5126089400577029  0.8289494119051922  1.0000
  C   C42       1.0  0.487106039785367  0.4873917952725151  0.1710499732497937  1.0000
  C   C43       1.0  0.7307082766789676  0.8710970204983256  0.9098574347356059  1.0000
  C   C44       1.0  0.26929173060462114  0.1289037148787031  0.09014233418839265  1.0000
  C   C45       1.0  0.6856623044582834  0.9695588034430924  0.9506146529703084  1.0000
  C   C46       1.0  0.31433670331703206  0.030441930664665107  0.04938470323687477  1.0000
  C   C47       1.0  0.6366389501945235  0.9479932767940084  0.0813698536851177  1.0000
  C   C48       1.0  0.36336004641133  0.05200655114109051  0.9186298690929245  1.0000
  C   C49       1.0  0.6336531437665373  0.8321146778891447  0.17165763292298652  1.0000
  C   C50       1.0  0.3663458542598478  0.1678851513620359  0.8283428863408842  1.0000
  C   C51       1.0  0.6822871257309728  0.7358590359239585  0.13070044403751516  1.0000
  C   C52       1.0  0.3177128801320848  0.26414169813698857  0.869298528400655  1.0000
  C   C53       1.0  0.7290802690571497  0.754955400258858  0.0018696923170862852  1.0000
  C   C54       1.0  0.2709197368059079  0.24504533380208923  0.998129280121091  1.0000
  C   C55       1.0  0.6944754272603717  0.0937579801050106  0.8556581887938888  1.0000
  C   C56       1.0  0.3055245800232171  0.906242755272018  0.14434158013011011  1.0000
  S   S1        1.0  0.888619446033502  0.8583507898951196  0.36505917570886476  1.0000
  S   S2        1.0  0.11137956316235183  0.14164994552871948  0.6349409769841541  1.0000
  S   S3        1.0  0.8542713701270657  0.030719550438533392  0.36678706435248637  1.0000
  S   S4        1.0  0.1457286259870614  0.9692802787658437  0.6332130711423716  1.0000
  S   S5        1.0  0.8177768776911519  0.7270478759536231  0.7397148283062478  1.0000
  S   S6        1.0  0.18222412768017196  0.27295285937660196  0.2602845568487381  1.0000
  S   S7        1.0  0.7832487249925463  0.8977113700781557  0.7449001566030303  1.0000
  S   S8        1.0  0.21675127112158074  0.10228845912621415  0.25509997889182756  1.0000
  O   O1        1.0  0.8175179773497874  0.5062422798545897  0.37713739082831654  1.0000
  O   O2        1.0  0.18248302802154373  0.4937584554756356  0.6228619943266691  1.0000
  O   O3        1.0  0.9510431150292362  0.6252697395014124  0.37907626690953583  1.0000
  O   O4        1.0  0.048954878001531206  0.3747291875721501  0.6209273921516922  1.0000
  O   O5        1.0  0.8473497634979099  0.24704529043908244  0.3626651782416557  1.0000
  O   O6        1.0  0.15265023119568608  0.7529545374492057  0.6373341607673735  1.0000
  O   O7        1.0  0.8940083714991546  0.4273873014009197  0.19430129534769916  1.0000
  O   O8        1.0  0.1059916231944413  0.5726125264873688  0.8056980436613298  1.0000
  O   O9        1.0  0.7348510538566869  0.39081164155831516  0.7171061426278481  1.0000
  O   O10       1.0  0.26514895342690176  0.6091890938187136  0.28289362629615056  1.0000
  O   O11       1.0  0.8750158023929799  0.5226241909051196  0.6900882128517835  1.0000
  O   O12       1.0  0.12498419372114711  0.4773756382992502  0.30991192264306716  1.0000
  O   O13       1.0  0.7481157197295829  0.116488054633642  0.738834172771412  1.0000
  O   O14       1.0  0.251884263794544  0.8835108670819946  0.2611655328084693  1.0000
  O   O15       1.0  0.6439273118316962  0.17951387655708123  0.9037415540849665  1.0000
  O   O16       1.0  0.3560726828618995  0.8204859513312143  0.09625778492406314  1.0000
