data_image0
_chemical_formula_structural       Al2H18C48N12O36
_chemical_formula_sum              "Al2 H18 C48 N12 O36"
_cell_length_a       4.14740203501073
_cell_length_b       28.908057279702355
_cell_length_c       28.908038267770024
_cell_angle_alpha    120.00013071820983
_cell_angle_beta     89.99978286150339
_cell_angle_gamma    89.99999211329205

_space_group_name_H-M_alt    "P 1"
_space_group_IT_number       1

loop_
  _space_group_symop_operation_xyz
  'x, y, z'

loop_
  _atom_site_type_symbol
  _atom_site_label
  _atom_site_symmetry_multiplicity
  _atom_site_fract_x
  _atom_site_fract_y
  _atom_site_fract_z
  _atom_site_occupancy
  Al  Al1       1.0  0.00016932528136950003  0.5000006511170342  0.4999996719825858  1.0000
  Al  Al2       1.0  0.0001699616729525  0.16666779336781457  0.8333322763520313  1.0000
  H   H1        1.0  0.5117552999533643  0.23005781942634237  0.6440319658473328  1.0000
  H   H2        1.0  0.4895706810814531  0.37488554666590806  0.7981271436371813  1.0000
  H   H3        1.0  0.4896006474319634  0.29176814872393214  0.53518508908369  1.0000
  H   H4        1.0  0.5117570396975708  0.4365932172474345  0.689283591892611  1.0000
  H   H5        1.0  0.49918009104931127  0.3845645611829129  0.7218381105467203  1.0000
  H   H6        1.0  0.4992056756429548  0.28208634863597853  0.6114741292738516  1.0000
  H   H7        1.0  0.5117461536106874  0.9139772321332273  0.769942252772516  1.0000
  H   H8        1.0  0.48957752226857576  0.9232434511567648  0.6251141191555833  1.0000
  H   H9        1.0  0.4895813404068435  0.7434188277379125  0.7082320902890376  1.0000
  H   H10       1.0  0.5117513090475612  0.7526925699039851  0.5634074775808671  1.0000
  H   H11       1.0  0.49918128536400275  0.8372748697429699  0.6154351426919646  1.0000
  H   H12       1.0  0.49917995970317713  0.829390864568815  0.7179145187726306  1.0000
  H   H13       1.0  0.5117504285374254  0.35596843207006407  0.08602445821484393  1.0000
  H   H14       1.0  0.4895680505252357  0.20187276946396077  0.07675570947441196  1.0000
  H   H15       1.0  0.4895969558644068  0.46481468378515006  0.25658128359947346  1.0000
  H   H16       1.0  0.511753177949963  0.3107164054683125  0.24730751466589845  1.0000
  H   H17       1.0  0.49917774029486833  0.2781609860854389  0.16272436084594938  1.0000
  H   H18       1.0  0.49919688201703843  0.3885253863752212  0.17060955084431126  1.0000
  C   C1        1.0  0.5000351307259763  0.4629035370530519  0.4182663486013781  1.0000
  C   C2        1.0  0.5000335928915689  0.45536478874853975  0.5370968999529424  1.0000
  C   C3        1.0  0.5000358545153817  0.5817336741170539  0.5446355485453155  1.0000
  C   C4        1.0  0.5000206880731568  0.21129416970535453  0.7962245865276999  1.0000
  C   C5        1.0  0.5000280707905348  0.08493318327102659  0.7887050211619383  1.0000
  C   C6        1.0  0.5000191500739319  0.20377587398301952  0.915067202252416  1.0000
  C   C7        1.0  0.4997678576115094  0.24459407752367224  0.7689471952696394  1.0000
  C   C8        1.0  0.4955418523136146  0.22175664806599843  0.7128265058632053  1.0000
  C   C9        1.0  0.5034796678059196  0.2517509738530851  0.6874813726539558  1.0000
  C   C10       1.0  0.499872184041678  0.30778070193304086  0.717051490871782  1.0000
  C   C11       1.0  0.4967224915465068  0.33158262204356265  0.7728448870882474  1.0000
  C   C12       1.0  0.5045318920299665  0.30087838896978525  0.7975508106069569  1.0000
  C   C13       1.0  0.499674766927477  0.3417177405604905  0.6930742901860754  1.0000
  C   C14       1.0  0.4996851035188854  0.32493395360619104  0.6402399321270877  1.0000
  C   C15       1.0  0.4967469443978061  0.33507329224799076  0.5604699614436157  1.0000
  C   C16       1.0  0.49987588122738913  0.3588745192550606  0.6162626634450633  1.0000
  C   C17       1.0  0.5034849633070094  0.41490239490713793  0.6458353217853983  1.0000
  C   C18       1.0  0.4955526028487612  0.44489537934076406  0.6204908472257529  1.0000
  C   C19       1.0  0.49978972690828993  0.4220621136290604  0.5643715239965417  1.0000
  C   C20       1.0  0.5045545492641567  0.3657809279410528  0.535768236659507  1.0000
  C   C21       1.0  0.49978017918586193  0.02435583717424122  0.7554045357118753  1.0000
  C   C22       1.0  0.49555274463024557  0.9910724181793854  0.7782421047639191  1.0000
  C   C23       1.0  0.5034737773268603  0.9357321421451275  0.7482482017710907  1.0000
  C   C24       1.0  0.4998626150636696  0.9092738115501363  0.6922185957129443  1.0000
  C   C25       1.0  0.49672359594645604  0.9412641740181017  0.6684169376874607  1.0000
  C   C26       1.0  0.504540116806048  0.9966731557943193  0.6991218415019419  1.0000
  C   C27       1.0  0.49966054242076297  0.8513591080773966  0.6582825866186468  1.0000
  C   C28       1.0  0.4996651618472113  0.815307624638372  0.6750660758848995  1.0000
  C   C29       1.0  0.49673337422117914  0.7253980628436952  0.6649272299988669  1.0000
  C   C30       1.0  0.4998633398212249  0.7573900609932309  0.641126008229257  1.0000
  C   C31       1.0  0.5034807991398437  0.730935441438483  0.5850989136167258  1.0000
  C   C32       1.0  0.4955581785130079  0.6755973511443827  0.5551056014133877  1.0000
  C   C33       1.0  0.4997918718983669  0.6423117513407279  0.5779387624043937  1.0000
  C   C34       1.0  0.5045483256869615  0.6699901835706755  0.6342198309708564  1.0000
  C   C35       1.0  0.4997651828389424  0.23105152927337985  0.9756440949831315  1.0000
  C   C36       1.0  0.49554371980205775  0.2871730969021513  0.008927955451170488  1.0000
  C   C37       1.0  0.503478079767966  0.31251893537247355  0.06426847342096662  1.0000
  C   C38       1.0  0.4998682602832361  0.282947301151232  0.09072612868563824  1.0000
  C   C39       1.0  0.4967149164401619  0.22715482073831336  0.058734593770260766  1.0000
  C   C40       1.0  0.5045205310403347  0.20245154375068353  0.00332643232219709  1.0000
  C   C41       1.0  0.4996697853268587  0.3069250588080692  0.14864062969992628  1.0000
  C   C42       1.0  0.4996789407740466  0.3597598762444107  0.18469264328702206  1.0000
  C   C43       1.0  0.4967457862757882  0.4395304470796546  0.27460180909711335  1.0000
  C   C44       1.0  0.49987348289830186  0.38373741976854353  0.24261012561056827  1.0000
  C   C45       1.0  0.5034850516258942  0.3541647071519947  0.2690647040065812  1.0000
  C   C46       1.0  0.49556370257266036  0.3795098177588231  0.3244024997241297  1.0000
  C   C47       1.0  0.4997948126370133  0.43562868073856015  0.35768865717856363  1.0000
  C   C48       1.0  0.5045571770801729  0.4642314848588072  0.3300101252053694  1.0000
  N   N1        1.0  0.5146024725739766  0.33340172358341413  0.8570235049178976  1.0000
  N   N2        1.0  0.48541072470352015  0.16297894599663468  0.6748787222918295  1.0000
  N   N3        1.0  0.48541079827055716  0.5036761452689192  0.6584424971232962  1.0000
  N   N4        1.0  0.5146074097144009  0.3332579495702603  0.4762930989572211  1.0000
  N   N5        1.0  0.5146074799552025  0.023623722305138956  0.6665973272749425  1.0000
  N   N6        1.0  0.48541591748819013  0.011901342646339996  0.8370199086817393  1.0000
  N   N7        1.0  0.4854200720711646  0.654768234463127  0.4963241847990858  1.0000
  N   N8        1.0  0.5146048131644676  0.6430371663550575  0.6667436595660305  1.0000
  N   N9        1.0  0.5145865360075136  0.1429759356891865  0.9763757223829755  1.0000
  N   N10       1.0  0.4854138300809934  0.3251220019825499  0.9880984487081363  1.0000
  N   N11       1.0  0.4854197485136496  0.3415578821738237  0.3452311866095101  1.0000
  N   N12       1.0  0.5146088790997823  0.5237068217528391  0.35696276747631833  1.0000
  O   O1        1.0  0.7397352486239938  0.5577756087754367  0.5499495150023606  1.0000
  O   O2        1.0  0.7397294389541287  0.49217597380359035  0.44222541882091804  1.0000
  O   O3        1.0  0.7397286055597904  0.45005131156640493  0.5078246302310134  1.0000
  O   O4        1.0  0.2607177651162545  0.560020341007487  0.5142879758846064  1.0000
  O   O5        1.0  0.2607125655236899  0.48571217842321385  0.5457312432928704  1.0000
  O   O6        1.0  0.26071394973361345  0.45426893196093937  0.4399791564677074  1.0000
  O   O7        1.0  0.7397237481979816  0.17450396553387307  0.8911121704355907  1.0000
  O   O8        1.0  0.7397245818186775  0.2166109320804854  0.8254960622050619  1.0000
  O   O9        1.0  0.7397299942551855  0.10888902384819237  0.7833895439674521  1.0000
  O   O10       1.0  0.26070816976969985  0.21240716888539887  0.8933503700307809  1.0000
  O   O11       1.0  0.2607115876785785  0.10664934014988621  0.8190535051126134  1.0000
  O   O12       1.0  0.26071196521643  0.18094527782290035  0.7875920212043043  1.0000
  O   O13       1.0  0.7221875453295111  0.32261670998169495  0.8805474597602513  1.0000
  O   O14       1.0  0.3200249615220372  0.370819367916873  0.8775089829149252  1.0000
  O   O15       1.0  0.27844975644114817  0.13673353131386545  0.6820471999543329  1.0000
  O   O16       1.0  0.6787274189098228  0.14606967870003743  0.6372776767694078  1.0000
  O   O17       1.0  0.27844517215284986  0.5299199664702885  0.6512717003622371  1.0000
  O   O18       1.0  0.6787096253895655  0.5205848289215282  0.6960452872075676  1.0000
  O   O19       1.0  0.7221689722585722  0.3440461149856234  0.45276782862403314  1.0000
  O   O20       1.0  0.32002804943930846  0.29584122097818993  0.4558090050183594  1.0000
  O   O21       1.0  0.7221854659702628  0.05793438122061891  0.677383406848186  1.0000
  O   O22       1.0  0.3200355643220476  0.006690094957797093  0.6291792991601781  1.0000
  O   O23       1.0  0.2784522662558332  0.04531535453592999  0.8632656404171328  1.0000
  O   O24       1.0  0.6787266744436877  0.9912083823708717  0.8539287188740731  1.0000
  O   O25       1.0  0.2784619511644165  0.6213532530927496  0.4700803529157369  1.0000
  O   O26       1.0  0.6787220156459455  0.6754629650905671  0.4794165062134398  1.0000
  O   O27       1.0  0.7221686401697411  0.6087245487358146  0.6559551483726834  1.0000
  O   O28       1.0  0.32002709094978604  0.6599702330500109  0.7041603970263922  1.0000
  O   O29       1.0  0.7221651304959238  0.1194514570683936  0.9420655461240841  1.0000
  O   O30       1.0  0.3200090947348926  0.12249198171618089  0.9933092377063917  1.0000
  O   O31       1.0  0.27845820255968334  0.3179522912247351  0.9546836350881804  1.0000
  O   O32       1.0  0.6787258353958237  0.36272333970273246  0.00879130799121702  1.0000
  O   O33       1.0  0.27845601506929535  0.34872936600701376  0.3786458493710256  1.0000
  O   O34       1.0  0.6787145316401038  0.3039541524126292  0.32453605643202366  1.0000
  O   O35       1.0  0.7221720975779035  0.5472322017623626  0.3912745705257096  1.0000
  O   O36       1.0  0.32002462675153975  0.5441911458238592  0.3400304900072584  1.0000
