data_image0
_chemical_formula_structural       Cd2H40C52S4N8O4
_chemical_formula_sum              "Cd2 H40 C52 S4 N8 O4"
_cell_length_a       10.593562314536022
_cell_length_b       10.593541430070005
_cell_length_c       11.431158394251575
_cell_angle_alpha    81.77495256818028
_cell_angle_beta     81.77481901911156
_cell_angle_gamma    82.77634622364401

_space_group_name_H-M_alt    "P 1"
_space_group_IT_number       1

loop_
  _space_group_symop_operation_xyz
  'x, y, z'

loop_
  _atom_site_type_symbol
  _atom_site_label
  _atom_site_symmetry_multiplicity
  _atom_site_fract_x
  _atom_site_fract_y
  _atom_site_fract_z
  _atom_site_occupancy
  Cd  Cd1       1.0  0.5000014486734444  0.5000006929268112  0.499997332522149  1.0000
  Cd  Cd2       1.0  0.49999906266415195  0.49999878331102127  2.822631727502928e-07  1.0000
  H   H1        1.0  0.2003790807124516  0.4786523364029735  0.054652323720759476  1.0000
  H   H2        1.0  0.4786547322943163  0.20037738922410148  0.5546530145062932  1.0000
  H   H3        1.0  0.7996250901383917  0.5213461726806019  0.9453486765916638  1.0000
  H   H4        1.0  0.5213446728920273  0.7996210957927375  0.4453477433214417  1.0000
  H   H5        1.0  0.3937332792529133  0.7869329192935623  0.8959500054409801  1.0000
  H   H6        1.0  0.7869352538993651  0.39373201708777844  0.39595090150424284  1.0000
  H   H7        1.0  0.6062677100210153  0.21306845513095152  0.10404753741372019  1.0000
  H   H8        1.0  0.2130660577653885  0.6062664777678038  0.6040496033403997  1.0000
  H   H9        1.0  0.9856320419586949  0.6089520916975105  0.041148281550704276  1.0000
  H   H10       1.0  0.6089556034887167  0.9856303708650819  0.5411496055569173  1.0000
  H   H11       1.0  0.0143704378724863  0.39104448836482675  0.9588540714623407  1.0000
  H   H12       1.0  0.3910447544053142  0.014368118541000303  0.4588519007217045  1.0000
  H   H13       1.0  0.9804841710079868  0.8390067621101667  0.9492192269479958  1.0000
  H   H14       1.0  0.83901018258598  0.9804824655142145  0.4492198027792469  1.0000
  H   H15       1.0  0.019515342173491493  0.16099076358047887  0.050781643267285397  1.0000
  H   H16       1.0  0.16099102055212458  0.019516988137432602  0.5507814646202789  1.0000
  H   H17       1.0  0.22366979862051287  0.023354237432272405  0.9326774139716465  1.0000
  H   H18       1.0  0.02335470398297451  0.2236695036059048  0.4326773891226098  1.0000
  H   H19       1.0  0.7763263138046528  0.9766480690709545  0.06732502366542548  1.0000
  H   H20       1.0  0.9766466082133005  0.7763289917797993  0.5673222407795963  1.0000
  H   H21       1.0  0.25956998419033545  0.9808019293869636  0.7850453314847957  1.0000
  H   H22       1.0  0.9808029340274089  0.2595710242771717  0.2850474565197203  1.0000
  H   H23       1.0  0.7404271905322162  0.019199423769691706  0.2149553421634067  1.0000
  H   H24       1.0  0.01919519446586549  0.740430334328977  0.7149522156945026  1.0000
  H   H25       1.0  0.23118213455530423  0.20221224217029748  0.786043354307161  1.0000
  H   H26       1.0  0.20221762569987325  0.23117989546818762  0.2860436068845403  1.0000
  H   H27       1.0  0.7688173786261739  0.7977852835203482  0.21395751590812037  1.0000
  H   H28       1.0  0.7977835779697457  0.7688195587135811  0.7139567855725488  1.0000
  H   H29       1.0  0.7985856851698189  0.32357780357408944  0.6581296986726102  1.0000
  H   H30       1.0  0.3235743783173247  0.7985830609486514  0.1581325731862577  1.0000
  H   H31       1.0  0.20141530410410266  0.6764235708504247  0.3418678441820902  1.0000
  H   H32       1.0  0.6764231193275803  0.20141541316919395  0.84187018750945  1.0000
  H   H33       1.0  0.9565829508815183  0.4818900161726278  0.6209666707413035  1.0000
  H   H34       1.0  0.481889136490011  0.9565743916927475  0.12096911752060893  1.0000
  H   H35       1.0  0.043419099626738976  0.5181104038450642  0.3790308580093936  1.0000
  H   H36       1.0  0.5181096378479707  0.04342120883578102  0.8790347287886178  1.0000
  H   H37       1.0  0.1779701111621748  0.41681904422806326  0.6819929883770754  1.0000
  H   H38       1.0  0.4168252268092515  0.17796565947651294  0.18199310728916632  1.0000
  H   H39       1.0  0.8220313100922781  0.5831784928916904  0.3180050040278104  1.0000
  H   H40       1.0  0.5831770380947032  0.8220328402984338  0.8180072710639197  1.0000
  C   C1        1.0  0.19222522014573673  0.5787427476476383  0.014913653989111661  1.0000
  C   C2        1.0  0.5787454849420187  0.1922255414383401  0.5149121549398572  1.0000
  C   C3        1.0  0.807779795949173  0.4212567256814952  0.9850871074442085  1.0000
  C   C4        1.0  0.4212563490444551  0.8077767967016103  0.4850860239781838  1.0000
  C   C5        1.0  0.3006647521631081  0.7514796071634963  0.9266800716686846  1.0000
  C   C6        1.0  0.7514816293392386  0.3006643446843925  0.42668170204970585  1.0000
  C   C7        1.0  0.6993345455596298  0.24851983770965097  0.07331969882907428  1.0000
  C   C8        1.0  0.24851872855479223  0.6993341447216893  0.573319804228916  1.0000
  C   C9        1.0  0.07418062707416338  0.6511126888155375  0.006366661298528685  1.0000
  C   C10       1.0  0.6511154196789661  0.07418025809773351  0.5063667761199184  1.0000
  C   C11       1.0  0.9258215293031427  0.348886769755481  0.9936344796094473  1.0000
  C   C12       1.0  0.34888673669833276  0.9258192004732851  0.49363436478805783  1.0000
  C   C13       1.0  0.18669123222795747  0.8318864375541467  0.9167131124244607  1.0000
  C   C14       1.0  0.8318894399648399  0.18669098669459325  0.416714359569781  1.0000
  C   C15       1.0  0.8133078489729967  0.16811492544125173  0.0832873082406422  1.0000
  C   C16       1.0  0.1681135621880543  0.8133094366521052  0.5832856675166697  1.0000
  C   C17       1.0  0.07115963010343754  0.7793229760631708  0.9565926656313624  1.0000
  C   C18       1.0  0.7793226501819959  0.07115774897055621  0.45659274317885234  1.0000
  C   C19       1.0  0.9288417895564506  0.22067455946621817  0.043407951600819665  1.0000
  C   C20       1.0  0.2206751725113491  0.9288378482289662  0.5434086047946282  1.0000
  C   C21       1.0  0.1910330976245476  0.9709499926992748  0.8673620747858237  1.0000
  C   C22       1.0  0.9709523925519502  0.19103422780297316  0.36736393355940333  1.0000
  C   C23       1.0  0.8089644010833935  0.02904848247882091  0.1326389360250175  1.0000
  C   C24       1.0  0.029047012634400442  0.8089642572138663  0.6326368242683316  1.0000
  C   C25       1.0  0.04587947770557579  0.13937031620699974  0.7790397633590161  1.0000
  C   C26       1.0  0.13937103381538662  0.045879264914191316  0.2790393431621467  1.0000
  C   C27       1.0  0.9541187593143478  0.8606300836030841  0.22095914630031635  1.0000
  C   C28       1.0  0.860628047917089  0.954122098611329  0.7209602025605265  1.0000
  C   C29       1.0  0.9233985934638581  0.17130635937741098  0.7403729433394518  1.0000
  C   C30       1.0  0.17130689394818427  0.9233966944363065  0.24037290630545974  1.0000
  C   C31       1.0  0.07660228675189268  0.8286959733130461  0.25962623701256865  1.0000
  C   C32       1.0  0.8286913425402247  0.07660370484365592  0.7596268782963094  1.0000
  C   C33       1.0  0.1370940052930436  0.22712952852258195  0.7561509361680834  1.0000
  C   C34       1.0  0.22713408980101235  0.13709256182924892  0.2561536743553461  1.0000
  C   C35       1.0  0.8629063547270732  0.7728689630039869  0.24384707034080577  1.0000
  C   C36       1.0  0.7728672213322195  0.862905932496212  0.7438477054317263  1.0000
  C   C37       1.0  0.893602063286913  0.29636775567563234  0.6859312638512948  1.0000
  C   C38       1.0  0.29636642387985995  0.8935948655918724  0.1859302379126646  1.0000
  C   C39       1.0  0.10639807914837009  0.7036326529129584  0.3140691427098048  1.0000
  C   C40       1.0  0.7036333063549307  0.1064007425066364  0.814069107192843  1.0000
  C   C41       1.0  0.9831923916249746  0.38585200437275813  0.664839092600822  1.0000
  C   C42       1.0  0.3858529282147386  0.9831880036244062  0.16484002249809035  1.0000
  C   C43       1.0  0.016808921102821686  0.6141464915430676  0.3351596623589544  1.0000
  C   C44       1.0  0.6141464769716122  0.016810481392433005  0.8351607353296516  1.0000
  C   C45       1.0  0.1052355533709033  0.350118758800143  0.698565100865217  1.0000
  C   C46       1.0  0.3501214978446185  0.10523291152239272  0.1985680526434805  1.0000
  C   C47       1.0  0.894765867352035  0.6498787777894891  0.3014337664820985  1.0000
  C   C48       1.0  0.6498788600494123  0.8947655778836963  0.8014334536351413  1.0000
  C   C49       1.0  0.36332024739603247  0.41100599346940936  0.28651699804415637  1.0000
  C   C50       1.0  0.4110047813590753  0.3633145096470544  0.7865215994603079  1.0000
  C   C51       1.0  0.6366787236836942  0.5889963267316959  0.7134868100031256  1.0000
  C   C52       1.0  0.5889891027283768  0.6366906671164899  0.21347725422749866  1.0000
  S   S1        1.0  0.29988447498590887  0.3975722688842468  0.4258058658392089  1.0000
  S   S2        1.0  0.3975718139804627  0.2998822158594266  0.9258045994565693  1.0000
  S   S3        1.0  0.7001134337964457  0.60243100466343  0.5741997061969428  1.0000
  S   S4        1.0  0.602426208643763  0.7001201041934025  0.07419146060037457  1.0000
  N   N1        1.0  0.3035297187228849  0.6283084668270792  0.9747951403131129  1.0000
  N   N2        1.0  0.6283116962153058  0.3035291649220256  0.4747950317565497  1.0000
  N   N3        1.0  0.696471377483128  0.37169194721100507  0.025204264814000493  1.0000
  N   N4        1.0  0.37168877020537383  0.6964683656879915  0.5252057119671818  1.0000
  N   N5        1.0  0.4085323869959866  0.41718607296196814  0.18533428367024382  1.0000
  N   N6        1.0  0.417189016018412  0.40853322117585844  0.6853296424100535  1.0000
  N   N7        1.0  0.5914693358062166  0.5828172213234384  0.81466903251485  1.0000
  N   N8        1.0  0.5828103752346435  0.5914739074671403  0.31466210295632646  1.0000
  O   O1        1.0  0.0649510477910766  0.021178165936078103  0.8435529278927874  1.0000
  O   O2        1.0  0.021180359137957794  0.06495144319026741  0.3435532715550877  1.0000
  O   O3        1.0  0.9350463429217369  0.9788212685681972  0.1564479705305075  1.0000
  O   O4        1.0  0.9788197838288537  0.935048965928438  0.6564462600635751  1.0000
