data_image0
_chemical_formula_structural       Cd2H32C44N4O12
_chemical_formula_sum              "Cd2 H32 C44 N4 O12"
_cell_length_a       8.106025304737294
_cell_length_b       10.907979079579823
_cell_length_c       11.97685613919034
_cell_angle_alpha    66.05938251759991
_cell_angle_beta     85.10504482736418
_cell_angle_gamma    90.27756665917984

_space_group_name_H-M_alt    "P 1"
_space_group_IT_number       1

loop_
  _space_group_symop_operation_xyz
  'x, y, z'

loop_
  _atom_site_type_symbol
  _atom_site_label
  _atom_site_symmetry_multiplicity
  _atom_site_fract_x
  _atom_site_fract_y
  _atom_site_fract_z
  _atom_site_occupancy
  Cd  Cd1       1.0  0.5277942473220919  0.09685181822786863  0.8290462261701208  1.0000
  Cd  Cd2       1.0  0.4721730701720261  0.9031425294438836  0.17094298432105143  1.0000
  H   H1        1.0  0.1701970649375255  0.3399048496418119  0.1842983478624304  1.0000
  H   H2        1.0  0.8298101085145789  0.660088754006857  0.8157195728526289  1.0000
  H   H3        1.0  0.8503988813366946  0.8792266911734574  0.7839182469560555  1.0000
  H   H4        1.0  0.14958844381329334  0.12076780790504674  0.21609138137090153  1.0000
  H   H5        1.0  0.27806172147113273  0.2383835273228669  0.9668838867462454  1.0000
  H   H6        1.0  0.7219135007490536  0.7616199022734023  0.03310646961772796  1.0000
  H   H7        1.0  0.08695279556751963  0.43196202852629995  0.9120751064708371  1.0000
  H   H8        1.0  0.913035185099254  0.5680494782948032  0.08791062493768458  1.0000
  H   H9        1.0  0.051441287613350505  0.5674295593019495  0.6912964448424005  1.0000
  H   H10       1.0  0.9485772230208696  0.43259814410571823  0.3086863912746479  1.0000
  H   H11       1.0  0.1284178127606239  0.6110518924703714  0.4687132609355017  1.0000
  H   H12       1.0  0.8716130414446966  0.38897485801572884  0.5312700025211469  1.0000
  H   H13       1.0  0.2783579687985238  0.5461643032101762  0.315974319833586  1.0000
  H   H14       1.0  0.7216750979997998  0.45385644158088223  0.6840135444353946  1.0000
  H   H15       1.0  0.47169753506781115  0.3899989144605841  0.26749136227203957  1.0000
  H   H16       1.0  0.5283352526667926  0.6100158092805972  0.7324995923802007  1.0000
  H   H17       1.0  0.63830944626082  0.1842679851619522  0.3430173239734557  1.0000
  H   H18       1.0  0.36169642806008545  0.8157275616419996  0.6569824204063083  1.0000
  H   H19       1.0  0.6576180328625798  0.0638028383092362  0.5703175261197089  1.0000
  H   H20       1.0  0.3423487680359329  0.9361784975600429  0.42968824257901866  1.0000
  H   H21       1.0  0.15775180140398962  0.6954063680300352  0.9437008244294844  1.0000
  H   H22       1.0  0.8422355417163704  0.3045640116742447  0.056309419040225385  1.0000
  H   H23       1.0  0.2201170731858682  0.6929528366152695  0.08329244188600873  1.0000
  H   H24       1.0  0.7798775930105677  0.30704165710515957  0.9167067158023556  1.0000
  H   H25       1.0  0.5789019590596638  0.73776890687639  0.8670000476382781  1.0000
  H   H26       1.0  0.42109652213334675  0.2622266252879727  0.13300433329781916  1.0000
  H   H27       1.0  0.10101243023899538  0.1827787371096008  0.6630355659283608  1.0000
  H   H28       1.0  0.8989872843447274  0.8172128553578233  0.3369910774186378  1.0000
  H   H29       1.0  0.10677335042360882  0.011857891580419302  0.7675952276489537  1.0000
  H   H30       1.0  0.893206775043879  0.9881366671355566  0.23244070668272337  1.0000
  H   H31       1.0  0.1107635032958711  0.22894599539147012  0.4549149984317111  1.0000
  H   H32       1.0  0.8892558673659607  0.7710426565386969  0.5451098548935108  1.0000
  C   C1        1.0  0.25956756838231604  0.3010150901837464  0.8716166331972913  1.0000
  C   C2        1.0  0.7404128610241828  0.6989933843308053  0.12837319635839614  1.0000
  C   C3        1.0  0.15299529863656863  0.40873752592842305  0.840542947151185  1.0000
  C   C4        1.0  0.8470026995171696  0.591276033140048  0.15944307301737123  1.0000
  C   C5        1.0  0.1336232650253493  0.4835425191077862  0.7182106036909841  1.0000
  C   C6        1.0  0.8663889104161201  0.5164821482435116  0.28177375202646715  1.0000
  C   C7        1.0  0.220133703035593  0.45098920771395995  0.6269860769941572  1.0000
  C   C8        1.0  0.7798809268615656  0.5490354607081188  0.37299562195075714  1.0000
  C   C9        1.0  0.2061721469865176  0.5245014857514364  0.4986341454810627  1.0000
  C   C10       1.0  0.7938559588189804  0.4755192369003893  0.5013531982507473  1.0000
  C   C11       1.0  0.29023916446571  0.48869295377225114  0.41338615419535774  1.0000
  C   C12       1.0  0.7097951407207717  0.5113277958394136  0.5866016318478344  1.0000
  C   C13       1.0  0.3940507391266835  0.3758252637980704  0.45007642787387425  1.0000
  C   C14       1.0  0.6059721117418492  0.6241894099510292  0.5499118188233821  1.0000
  C   C15       1.0  0.48030132434372064  0.3333973386527235  0.3654317596177704  1.0000
  C   C16       1.0  0.5197175471770379  0.6666113052982967  0.6345614790207534  1.0000
  C   C17       1.0  0.5742108833378695  0.220829288833798  0.40674317484657496  1.0000
  C   C18       1.0  0.4257913787600812  0.7791682543340386  0.5932568853365652  1.0000
  C   C19       1.0  0.5844603069864649  0.15291563289208204  0.533785776421297  1.0000
  C   C20       1.0  0.41552200075845047  0.8470798080362983  0.46621128704681775  1.0000
  C   C21       1.0  0.41255663810284915  0.30099388927114035  0.5766443388132457  1.0000
  C   C22       1.0  0.5874473578796326  0.6990146911189827  0.4233481716540907  1.0000
  C   C23       1.0  0.32523055598381484  0.3403643142254681  0.666712678510379  1.0000
  C   C24       1.0  0.6747736713117335  0.6596492832300883  0.3332771177308515  1.0000
  C   C25       1.0  0.3426727256769552  0.8464631480803249  0.920013329421728  1.0000
  C   C26       1.0  0.6573054390356248  0.1535262002001687  0.0799703903005664  1.0000
  C   C27       1.0  0.2652486448168716  0.7067916027071706  0.9895285751711922  1.0000
  C   C28       1.0  0.7347393444920343  0.2931928242089441  0.010473901777352494  1.0000
  C   C29       1.0  0.38829805942980755  0.6015067881467575  0.9939308922716914  1.0000
  C   C30       1.0  0.6117003591321294  0.3984877343195379  0.0060721979409237205  1.0000
  C   C31       1.0  0.5438843808033342  0.6331624601223069  0.9264816942177205  1.0000
  C   C32       1.0  0.4561151074647612  0.36682805979723554  0.07352532271870156  1.0000
  C   C33       1.0  0.34429391052525926  0.4660712233378634  0.06820687012352512  1.0000
  C   C34       1.0  0.6557081245904256  0.5339203187777671  0.9318021145251264  1.0000
  C   C35       1.0  0.8672295258967962  0.09756310734294261  0.7613870006155422  1.0000
  C   C36       1.0  0.1327556703905017  0.9024403865294701  0.23861023090503142  1.0000
  C   C37       1.0  0.033791485845348704  0.08536251534483341  0.699572765185451  1.0000
  C   C38       1.0  0.9662069680296029  0.9146290637315532  0.3004514560663766  1.0000
  C   C39       1.0  0.013843334195648501  0.04084718920901051  0.5971630713780769  1.0000
  C   C40       1.0  0.9861784103009797  0.9591394615366656  0.4028615443695642  1.0000
  C   C41       1.0  0.05995027818561741  0.12856704134954103  0.4751956332793483  1.0000
  C   C42       1.0  0.9400811421031818  0.8714146308955578  0.5248310708880979  1.0000
  C   C43       1.0  0.951711543108459  0.910618517836774  0.621404823667646  1.0000
  C   C44       1.0  0.048313740430423004  0.08936413714654631  0.3786227289118996  1.0000
  N   N1        1.0  0.34332363954656125  0.268719723648097  0.7874757233595416  1.0000
  N   N2        1.0  0.656664124687552  0.7312867718212035  0.2125143891557285  1.0000
  N   N3        1.0  0.5076682375570131  0.19254503209292306  0.6154444077149746  1.0000
  N   N4        1.0  0.49231660215507134  0.8074514253179291  0.3845529565847341  1.0000
  O   O1        1.0  0.3387920874086491  0.906385466722945  0.8059827680509243  1.0000
  O   O2        1.0  0.6612167535938411  0.0935738530781762  0.19400020123172368  1.0000
  O   O3        1.0  0.4199919201804009  0.8995294604455853  0.9810700428089092  1.0000
  O   O4        1.0  0.5799403913196528  0.10048382313307513  0.01891428924412249  1.0000
  O   O5        1.0  0.8172937944401966  0.20905478474429637  0.7539722312799242  1.0000
  O   O6        1.0  0.18269753548759837  0.7909467395463  0.2460295286276376  1.0000
  O   O7        1.0  0.7754830940158542  0.9873001767616078  0.8168424068238377  1.0000
  O   O8        1.0  0.22448337764496532  0.012703187665515306  0.18313932927710397  1.0000
  O   O9        1.0  0.19123111425233225  0.43792884904615914  0.13336937916172778  1.0000
  O   O10       1.0  0.8087708296928398  0.5620597011137962  0.8666465680406501  1.0000
  O   O11       1.0  0.9004569986267088  0.8219261688049715  0.739648726976284  1.0000
  O   O12       1.0  0.09955618009434634  0.17806245902216486  0.26037651747788  1.0000
