data_image0
_chemical_formula_structural       Mn3H8C12N14O4
_chemical_formula_sum              "Mn3 H8 C12 N14 O4"
_cell_length_a       6.700689751566459
_cell_length_b       7.652414195131059
_cell_length_c       9.631780193042795
_cell_angle_alpha    104.26615710756083
_cell_angle_beta     97.27525754824926
_cell_angle_gamma    97.42435794615706

_space_group_name_H-M_alt    "P 1"
_space_group_IT_number       1

loop_
  _space_group_symop_operation_xyz
  'x, y, z'

loop_
  _atom_site_type_symbol
  _atom_site_label
  _atom_site_symmetry_multiplicity
  _atom_site_fract_x
  _atom_site_fract_y
  _atom_site_fract_z
  _atom_site_occupancy
  Mn  Mn1       1.0  1.6042968553974172e-06  2.770282968399915e-06  0.499998209873425  1.0000
  Mn  Mn2       1.0  0.6380304461591778  0.5168714205596177  0.3669377399638448  1.0000
  Mn  Mn3       1.0  0.3619674613354107  0.4831367255619272  0.6330649089941076  1.0000
  H   H1        1.0  0.5812658652351175  0.8945056413699677  0.6652569272435969  1.0000
  H   H2        1.0  0.4187369212758726  0.10548874953335745  0.33474045436462774  1.0000
  H   H3        1.0  0.556706966111193  0.5681900792553877  0.9487547296788533  1.0000
  H   H4        1.0  0.4433008638633424  0.4318070078082813  0.05124365897032847  1.0000
  H   H5        1.0  0.8562900351461166  0.12907359234720425  0.11339343701589397  1.0000
  H   H6        1.0  0.14372353344657543  0.8709220755701212  0.8866052401649895  1.0000
  H   H7        1.0  0.775860447966309  0.1600804300132453  0.858640421512746  1.0000
  H   H8        1.0  0.22414655571500938  0.8399125599961939  0.14135814206258607  1.0000
  C   C1        1.0  0.7487680029496034  0.8159110255812937  0.2000049312885253  1.0000
  C   C2        1.0  0.2512300814474671  0.18409026497849373  0.7999953867027827  1.0000
  C   C3        1.0  0.6190484495586048  0.8836011837178436  0.7755449799200775  1.0000
  C   C4        1.0  0.38095158253182154  0.11639460582092205  0.22445343862031564  1.0000
  C   C5        1.0  0.7114966872854254  0.8454833347751817  0.05190612016471618  1.0000
  C   C6        1.0  0.28850188205524313  0.1545124570220224  0.9480900794764011  1.0000
  C   C7        1.0  0.6061209528450462  0.7027198360108359  0.935027834372363  1.0000
  C   C8        1.0  0.39388054199514505  0.29727595126949785  0.06497280306730598  1.0000
  C   C9        1.0  0.7749538168800996  0.014132458860778708  0.0250283457103677  1.0000
  C   C10       1.0  0.22504452268353262  0.9858619548118814  0.9749654915347107  1.0000
  C   C11       1.0  0.7285869726813557  0.03212935814534752  0.884904824306126  1.0000
  C   C12       1.0  0.2714172961454154  0.9678650251682019  0.11509373875647809  1.0000
  N   N1        1.0  0.8738670914156546  0.7398811561523718  0.5322074114683844  1.0000
  N   N2        1.0  0.1261306653742906  0.2601187829395926  0.46779573135135877  1.0000
  N   N3        1.0  0.08664765056370528  0.6150475124667454  0.6856326698213664  1.0000
  N   N4        1.0  0.9133541464940861  0.38495788129310443  0.3143739859321357  1.0000
  N   N5        1.0  0.690758901154588  0.24610586346552316  0.550277340408229  1.0000
  N   N6        1.0  0.30923692750802456  0.7538995713161188  0.4497266644175255  1.0000
  N   N7        1.0  0.6098609557368776  0.3751634555929827  0.53976508118064  1.0000
  N   N8        1.0  0.39014387128236194  0.6248268497332817  0.4602400254869821  1.0000
  N   N9        1.0  0.7663516667323053  0.11802269918267437  0.5585457570134622  1.0000
  N   N10       1.0  0.23364061371673736  0.8819950837774901  0.44145818444078333  1.0000
  N   N11       1.0  0.558433756412292  0.72033065817201  0.7999181245642005  1.0000
  N   N12       1.0  0.44156910253926174  0.2796719610862723  0.20008291296181108  1.0000
  N   N13       1.0  0.9836011472773548  0.6783093361920367  0.6096319585742407  1.0000
  N   N14       1.0  0.01639861008050052  0.3216933355652147  0.390373978157271  1.0000
  O   O1        1.0  0.6552368375810929  0.6697188366258476  0.2189879285734335  1.0000
  O   O2        1.0  0.3447607285638624  0.33027971367888415  0.7810107769604783  1.0000
  O   O3        1.0  0.8715084542231182  0.9421525962876773  0.2961923282883346  1.0000
  O   O4        1.0  0.1284892039284244  0.05785417704066732  0.703808995718468  1.0000
