data_image0
_chemical_formula_structural       Ag2H32C36N6O8
_chemical_formula_sum              "Ag2 H32 C36 N6 O8"
_cell_length_a       7.514282536453118
_cell_length_b       8.240140949041947
_cell_length_c       13.737703042730367
_cell_angle_alpha    106.77173827846757
_cell_angle_beta     94.36476537678362
_cell_angle_gamma    94.08219963729366

_space_group_name_H-M_alt    "P 1"
_space_group_IT_number       1

loop_
  _space_group_symop_operation_xyz
  'x, y, z'

loop_
  _atom_site_type_symbol
  _atom_site_label
  _atom_site_symmetry_multiplicity
  _atom_site_fract_x
  _atom_site_fract_y
  _atom_site_fract_z
  _atom_site_occupancy
  Ag  Ag1       1.0  0.3284424834878408  0.9898478244131823  0.5487573863351684  1.0000
  Ag  Ag2       1.0  0.671562964950944  0.010150185080149799  0.4512417040318723  1.0000
  H   H1        1.0  0.7118654441911547  0.3739938203676019  0.2465431723123714  1.0000
  H   H2        1.0  0.2881362791327007  0.6260067572977235  0.7534561832827861  1.0000
  H   H3        1.0  0.5783012059199281  0.4880249195338635  0.18581269955616617  1.0000
  H   H4        1.0  0.4216957587801177  0.5119693030802565  0.8141882364877657  1.0000
  H   H5        1.0  0.49043031219967775  0.7339068293513406  0.6552277417214967  1.0000
  H   H6        1.0  0.509581156727606  0.26609626304069417  0.3447666967172438  1.0000
  H   H7        1.0  0.6662064114048079  0.7552444740770454  0.8219470812100552  1.0000
  H   H8        1.0  0.33379927454949865  0.24475482158864986  0.17804787570278788  1.0000
  H   H9        1.0  0.7648519966076678  0.039455021579435395  0.943641199253676  1.0000
  H   H10       1.0  0.23514705906092812  0.9605455701426634  0.056358029914861246  1.0000
  H   H11       1.0  0.5010566496808337  0.2592444833844  0.7279537587307486  1.0000
  H   H12       1.0  0.49894389455462124  0.7407573769575534  0.27204503427041976  1.0000
  H   H13       1.0  0.691855487370127  0.4420168498210161  0.8594940591970397  1.0000
  H   H14       1.0  0.30813061146357523  0.5579876286055664  0.14050667376988454  1.0000
  H   H15       1.0  0.643423474938203  0.21909326597994294  0.06027469539588989  1.0000
  H   H16       1.0  0.3565748732552407  0.7809009559202664  0.9397241234172423  1.0000
  H   H17       1.0  0.8773656183453726  0.2787783756925536  0.0899604890858754  1.0000
  H   H18       1.0  0.12263376335694433  0.7212247694308545  0.9100370145065994  1.0000
  H   H19       1.0  0.19893349566930854  0.31271769428315827  0.5227102276499875  1.0000
  H   H20       1.0  0.8010763761998518  0.6872726353120058  0.4772913850396704  1.0000
  H   H21       1.0  0.021778008806613496  0.4149707647005271  0.3957124864685681  1.0000
  H   H22       1.0  0.978230079918852  0.585028483231177  0.6042942259061304  1.0000
  H   H23       1.0  0.8898278926194721  0.19984096922503625  0.23072752618048037  1.0000
  H   H24       1.0  0.11017563449164675  0.800164685061418  0.7692764364375789  1.0000
  H   H25       1.0  0.10508165022466902  0.8097018447088684  0.3443956416952076  1.0000
  H   H26       1.0  0.894918341274874  0.19029492145943286  0.6556022415698661  1.0000
  H   H27       1.0  0.8858747854141031  0.9249747629746068  0.11452705853456989  1.0000
  H   H28       1.0  0.11411675380358591  0.07503095667217959  0.8854756083490113  1.0000
  H   H29       1.0  0.9883554564211183  0.5492919862965451  0.23540347475555018  1.0000
  H   H30       1.0  0.011642055272908203  0.4507060737864208  0.7645923290728261  1.0000
  H   H31       1.0  0.831571971104083  0.677424291702387  0.3012256192998066  1.0000
  H   H32       1.0  0.16842829676342322  0.32257502155273704  0.6987727188333108  1.0000
  C   C1        1.0  0.7954438500220109  0.6127972618751373  0.04039360146547472  1.0000
  C   C2        1.0  0.20453807603431076  0.38720595988354484  0.9596081680569026  1.0000
  C   C3        1.0  0.7126924589698406  0.4442297233889363  0.1898241608965847  1.0000
  C   C4        1.0  0.28730642540426043  0.5557695905800983  0.8101762944673323  1.0000
  C   C5        1.0  0.5306609617159667  0.8566778887292656  0.7121237578080155  1.0000
  C   C6        1.0  0.46934870916597754  0.14332138374643935  0.2878721155594519  1.0000
  C   C7        1.0  0.6286358715186255  0.8699843295981324  0.8048433327443191  1.0000
  C   C8        1.0  0.3713687569760112  0.1300175201827827  0.19515201582325395  1.0000
  C   C9        1.0  0.68232209627449  0.0302665706627536  0.8733247655428398  1.0000
  C   C10       1.0  0.3176781715930161  0.9697327425923702  0.1266735725902777  1.0000
  C   C11       1.0  0.6381450556027347  0.1770684980060082  0.8475879526120023  1.0000
  C   C12       1.0  0.36184883604982343  0.822933399582716  0.15240979750792152  1.0000
  C   C13       1.0  0.537751318374042  0.15067862738674626  0.7526452339757695  1.0000
  C   C14       1.0  0.4622516005934686  0.8493206697067706  0.24735395739867266  1.0000
  C   C15       1.0  0.6931163292115201  0.3534538210171759  0.9054350395527989  1.0000
  C   C16       1.0  0.30688054531670167  0.6465518705160562  0.09456788018401605  1.0000
  C   C17       1.0  0.7431629787136063  0.42454209172353785  0.006805800512246709  1.0000
  C   C18       1.0  0.2568284885411317  0.5754623627991363  0.9931937316785092  1.0000
  C   C19       1.0  0.7453498631403621  0.3293195989064515  0.08518097630717139  1.0000
  C   C20       1.0  0.25464500319559147  0.6706797340429276  0.9148200162315232  1.0000
  C   C21       1.0  0.13213513425041162  0.223459031450254  0.45282185903725747  1.0000
  C   C22       1.0  0.8678724845154168  0.7765351328319313  0.5471803095278459  1.0000
  C   C23       1.0  0.03346707158721071  0.27939228236110136  0.38103457633313537  1.0000
  C   C24       1.0  0.9665400424548666  0.7206095302099482  0.6189688936227922  1.0000
  C   C25       1.0  0.961148973469456  0.160368195288541  0.29072797874793815  1.0000
  C   C26       1.0  0.038858124017359295  0.839633615177682  0.7092762180226869  1.0000
  C   C27       1.0  0.9794763288699004  0.985900141128873  0.2743441567263289  1.0000
  C   C28       1.0  0.02052258861471051  0.014099177049814702  0.7256548450081934  1.0000
  C   C29       1.0  0.07943065806498593  0.9407690015659754  0.35171465007134367  1.0000
  C   C30       1.0  0.9205734565461727  0.05922901495574001  0.6482843770823832  1.0000
  C   C31       1.0  0.9062571038360334  0.8677111272249006  0.17669954443349664  1.0000
  C   C32       1.0  0.09374444819332693  0.13228817268735332  0.8233010373570478  1.0000
  C   C33       1.0  0.8570416113745767  0.6979092442360865  0.15106447901290207  1.0000
  C   C34       1.0  0.1429522306122095  0.30209264703815825  0.8489354515511279  1.0000
  C   C35       1.0  0.8554606511396302  0.5953451368031608  0.22544656999838958  1.0000
  C   C36       1.0  0.14453684399914835  0.40465292117498564  0.7745499606446911  1.0000
  N   N1        1.0  0.34756741486577175  0.6066880464509198  0.3932022103965521  1.0000
  N   N2        1.0  0.6524407566359758  0.39331121200491737  0.6068008679046384  1.0000
  N   N3        1.0  0.4844644121187117  0.99612898764029  0.6871321451507271  1.0000
  N   N4        1.0  0.5155416718322813  0.003874126550819301  0.31286422087888605  1.0000
  N   N5        1.0  0.1564305888177131  0.0575571402864981  0.4375303148971952  1.0000
  N   N6        1.0  0.8435717774138853  0.9424370626333668  0.5624679667411598  1.0000
  O   O1        1.0  0.2885515195671787  0.5165259724542253  0.30355087769402184  1.0000
  O   O2        1.0  0.71145728744677  0.4834783906993891  0.6964494762697342  1.0000
  O   O3        1.0  0.23703050417691438  0.6642833650183778  0.45813612715188157  1.0000
  O   O4        1.0  0.7629762118684839  0.33571462902725807  0.5418659336872764  1.0000
  O   O5        1.0  0.5146610063920536  0.6425587734021434  0.4180932779654184  1.0000
  O   O6        1.0  0.4853456765428278  0.3574392164338461  0.5819102365031412  1.0000
  O   O7        1.0  0.7918338218516893  0.6960830406034474  0.9777906644223148  1.0000
  O   O8        1.0  0.20813327736145484  0.303918982819269  0.022210909134358317  1.0000
