data_image0
_chemical_formula_structural       HgH8C12N6Cl2
_chemical_formula_sum              "Hg1 H8 C12 N6 Cl2"
_cell_length_a       7.112347344257174
_cell_length_b       7.380209755404263
_cell_length_c       7.99424754756117
_cell_angle_alpha    115.04577293126661
_cell_angle_beta     96.82398123146112
_cell_angle_gamma    105.75058906565091

_space_group_name_H-M_alt    "P 1"
_space_group_IT_number       1

loop_
  _space_group_symop_operation_xyz
  'x, y, z'

loop_
  _atom_site_type_symbol
  _atom_site_label
  _atom_site_symmetry_multiplicity
  _atom_site_fract_x
  _atom_site_fract_y
  _atom_site_fract_z
  _atom_site_occupancy
  Hg  Hg1       1.0  0.4999961173657255  0.9999957127742931  0.49999798415083063  1.0000
  H   H1        1.0  0.9891575576507204  0.7649201269987741  0.47236997888234117  1.0000
  H   H2        1.0  0.01084011585583511  0.2350806919379593  0.5276360353870474  1.0000
  H   H3        1.0  0.6961862038013392  0.4220859380408084  0.3390646897619263  1.0000
  H   H4        1.0  0.3038232509534211  0.5779083920284193  0.6609347070849552  1.0000
  H   H5        1.0  0.7089318957462112  0.09215756043182209  0.0650574438477705  1.0000
  H   H6        1.0  0.2910712676341161  0.9078432971195695  0.9349415527835774  1.0000
  H   H7        1.0  0.013750868999231594  0.1259475580805614  0.937273371780698  1.0000
  H   H8        1.0  0.9862453684831248  0.874053292060509  0.06273127980954038  1.0000
  C   C1        1.0  0.9922164597784543  0.6194377833103388  0.3556859045113542  1.0000
  C   C2        1.0  0.007781718653880902  0.3805646697200302  0.6443183132164807  1.0000
  C   C3        1.0  0.8268366427647749  0.4272537029377547  0.279929814245243  1.0000
  C   C4        1.0  0.17317317287469788  0.5727503633563699  0.7200660526777513  1.0000
  C   C5        1.0  0.8343211198113352  0.24522365346563643  0.1295593958162087  1.0000
  C   C6        1.0  0.16567899107825204  0.7547723983819806  0.8704386404187832  1.0000
  C   C7        1.0  0.005098478331554219  0.2617141205524902  0.059528678630343335  1.0000
  C   C8        1.0  0.9949114898417194  0.738289847682438  0.9404746693054309  1.0000
  C   C9        1.0  0.1650156813677981  0.45979496424845223  0.14620836984848049  1.0000
  C   C10       1.0  0.8349790946680642  0.5402059334401558  0.8537936722271483  1.0000
  C   C11       1.0  0.34550440460116494  0.4825059270328112  0.07188831287938073  1.0000
  C   C12       1.0  0.6544903460124016  0.5174949869989972  0.9281124823607811  1.0000
  N   N1        1.0  0.15857611580512548  0.6360731727659894  0.2926871951907728  1.0000
  N   N2        1.0  0.8414273551290563  0.3639324711818475  0.7073162706559516  1.0000
  N   N3        1.0  0.48850259699500487  0.6791263356700269  0.14081973076309853  1.0000
  N   N4        1.0  0.5114897331650994  0.3208713250356395  0.8591845417164734  1.0000
  N   N5        1.0  0.35558009132088125  0.3027606149337672  0.9317031517642179  1.0000
  N   N6        1.0  0.6444108028150238  0.6972370769762294  0.06829975803620429  1.0000
  Cl  Cl1       1.0  0.353030174127305  0.18530914165776832  0.37297036773858855  1.0000
  Cl  Cl2       1.0  0.6469712965195669  0.8146869280151137  0.6270252906691739  1.0000
