data_image0
_chemical_formula_structural       V4Co2H16C20N4O12
_chemical_formula_sum              "V4 Co2 H16 C20 N4 O12"
_cell_length_a       8.118172185057887
_cell_length_b       8.508959130854858
_cell_length_c       10.087465484186856
_cell_angle_alpha    87.20695572254077
_cell_angle_beta     76.03043269263671
_cell_angle_gamma    75.17881978283135

_space_group_name_H-M_alt    "P 1"
_space_group_IT_number       1

loop_
  _space_group_symop_operation_xyz
  'x, y, z'

loop_
  _atom_site_type_symbol
  _atom_site_label
  _atom_site_symmetry_multiplicity
  _atom_site_fract_x
  _atom_site_fract_y
  _atom_site_fract_z
  _atom_site_occupancy
  V   V1        1.0  0.23098453986182227  0.7309188100543196  0.5306651131464193  1.0000
  V   V2        1.0  0.7690159871355534  0.26908224703031175  0.4693375677215671  1.0000
  V   V3        1.0  0.6287439924310689  0.5908979805361978  0.2989485491855676  1.0000
  V   V4        1.0  0.3712606722601635  0.40910185743926053  0.7010513948923605  1.0000
  Co  Co1       1.0  0.8419483868763752  0.8379395991949108  0.4429070432326014  1.0000
  Co  Co2       1.0  0.1580540697340638  0.16205902250661094  0.557093382814607  1.0000
  H   H1        1.0  0.7864602117159408  0.5944871845613803  0.6711173895647352  1.0000
  H   H2        1.0  0.21354379295840425  0.40551509105412004  0.3288855532390827  1.0000
  H   H3        1.0  0.5691979775156925  0.5815264835701865  0.8914891286449422  1.0000
  H   H4        1.0  0.43080437538296223  0.41848187505120643  0.10851585946404901  1.0000
  H   H5        1.0  0.3095744442733163  0.0808920843313956  0.8288957073527998  1.0000
  H   H6        1.0  0.6904203941296815  0.9191065197942687  0.17109827289665705  1.0000
  H   H7        1.0  0.5334831670177065  0.0706460884086013  0.611961047966176  1.0000
  H   H8        1.0  0.46651167107011565  0.9293525136999319  0.3880319410997331  1.0000
  H   H9        1.0  0.2539190610801683  0.5890193205984458  0.9840145059589248  1.0000
  H   H10       1.0  0.7460827345678493  0.4109817326917308  0.01598594526351602  1.0000
  H   H11       1.0  0.021283446228132195  0.6096326999503247  0.19960527770637537  1.0000
  H   H12       1.0  0.9787231490216968  0.3903647086934113  0.8003953851014317  1.0000
  H   H13       1.0  0.03714346933489309  0.07800090377140378  0.27702532071778313  1.0000
  H   H14       1.0  0.9628577176793696  0.9219977156731786  0.7229743614243206  1.0000
  H   H15       1.0  0.26591729222465676  0.08061747284754257  0.06472434112718872  1.0000
  H   H16       1.0  0.7340794256689946  0.9193835754491599  0.935275116841929  1.0000
  C   C1        1.0  0.6782445691371208  0.6991584213704057  0.7106117941450311  1.0000
  C   C2        1.0  0.3217533663392302  0.30084749663459576  0.2893901931683089  1.0000
  C   C3        1.0  0.5563160448505825  0.6928193329397416  0.8327933093059561  1.0000
  C   C4        1.0  0.4436866895972287  0.30718293638457067  0.16720690722564774  1.0000
  C   C5        1.0  0.4189688969813331  0.8306085793321143  0.8795041560940718  1.0000
  C   C6        1.0  0.581027768268484  0.1693973323816991  0.12049510494705373  1.0000
  C   C7        1.0  0.4126611618716324  0.9699236912493417  0.7994014225435252  1.0000
  C   C8        1.0  0.5873374846895486  0.03007491561286459  0.20059280705415022  1.0000
  C   C9        1.0  0.5376531106716768  0.9655555786399502  0.6778098645472215  1.0000
  C   C10       1.0  0.4623401285994646  0.03444424507448929  0.3221863579354079  1.0000
  C   C11       1.0  0.28282780962743465  0.8329939349690035  0.006614537967820405  1.0000
  C   C12       1.0  0.7171669783379783  0.16700954669367013  0.9933861836385208  1.0000
  C   C13       1.0  0.21174689008834952  0.6994500031456921  0.04694298855862663  1.0000
  C   C14       1.0  0.7882565043763421  0.30054982853858536  0.9530542292470869  1.0000
  C   C15       1.0  0.08124145466363339  0.7103360969470741  0.16674358491940924  1.0000
  C   C16       1.0  0.9187626026545529  0.28966131525130834  0.8332595548124008  1.0000
  C   C17       1.0  0.08760801813495084  0.9722154880042168  0.20915684268270246  1.0000
  C   C18       1.0  0.9123845623800335  0.027786781418775792  0.7908463432600287  1.0000
  C   C19       1.0  0.21623073164526832  0.9726810522544296  0.09021787717302493  1.0000
  C   C20       1.0  0.7837736009888516  0.027319991429727998  0.9097771235747559  1.0000
  N   N1        1.0  0.6690834897318182  0.8336086248929033  0.6331993139858982  1.0000
  N   N2        1.0  0.3309180271332862  0.16638877472309596  0.36679837320148323  1.0000
  N   N3        1.0  0.019654718509187277  0.8438906119563326  0.24805986155374882  1.0000
  N   N4        1.0  0.9803474069896794  0.1561092215052611  0.7519385947139627  1.0000
  O   O1        1.0  0.036488965376904055  0.7142864085606815  0.5098954489417623  1.0000
  O   O2        1.0  0.9635158039716529  0.28570369854628547  0.4901029066250474  1.0000
  O   O3        1.0  0.7815804556857413  0.07051342137976488  0.44910351415767025  1.0000
  O   O4        1.0  0.21841405444230597  0.9294864126601181  0.5508974169642828  1.0000
  O   O5        1.0  0.7335943944069714  0.7000011453155607  0.36964830485967337  1.0000
  O   O6        1.0  0.2664087234810708  0.2999950468144305  0.6303530871958574  1.0000
  O   O7        1.0  0.3969604770283368  0.6463008098813245  0.38471920765960743  1.0000
  O   O8        1.0  0.6030429716560946  0.35369416847147045  0.6152831629918725  1.0000
  O   O9        1.0  0.6517752400909274  0.6323465776193868  0.13700462290827892  1.0000
  O   O10       1.0  0.3482243474763039  0.36765325939685306  0.8629963102834427  1.0000
  O   O11       1.0  0.2789908211853955  0.622946792248058  0.6790683408767821  1.0000
  O   O12       1.0  0.7210122437436154  0.3770542612819199  0.32093186306720883  1.0000
