data_image0
_chemical_formula_structural       Na4H40C40S4N4O16
_chemical_formula_sum              "Na4 H40 C40 S4 N4 O16"
_cell_length_a       6.519268399012569
_cell_length_b       10.359781121186062
_cell_length_c       16.663193946621252
_cell_angle_alpha    97.44585800798232
_cell_angle_beta     90.00020024156883
_cell_angle_gamma    90.00008330201531

_space_group_name_H-M_alt    "P 1"
_space_group_IT_number       1

loop_
  _space_group_symop_operation_xyz
  'x, y, z'

loop_
  _atom_site_type_symbol
  _atom_site_label
  _atom_site_symmetry_multiplicity
  _atom_site_fract_x
  _atom_site_fract_y
  _atom_site_fract_z
  _atom_site_occupancy
  Na  Na1       1.0  0.2921071302339939  0.10014041149449329  0.4746781300075825  1.0000
  Na  Na2       1.0  0.7921086037853157  0.39985980308839697  0.5253214989714794  1.0000
  Na  Na3       1.0  0.7078880883952932  0.8998582776900079  0.525320891533106  1.0000
  Na  Na4       1.0  0.2078866148536278  0.6001398529855849  0.47467940219367233  1.0000
  H   H1        1.0  0.774746842670595  0.16141914815111852  0.3849965905861696  1.0000
  H   H2        1.0  0.2747487377790208  0.33858006783083994  0.6150041334195537  1.0000
  H   H3        1.0  0.22525297772015304  0.8385824504886018  0.6150056700448733  1.0000
  H   H4        1.0  0.7252480147598702  0.6614137517710789  0.3849950891453703  1.0000
  H   H5        1.0  0.942664051838186  0.0890406277601485  0.31430801582087053  1.0000
  H   H6        1.0  0.44266522435964356  0.4109607378992593  0.6856925104137235  1.0000
  H   H7        1.0  0.05733270073211119  0.9109629134407274  0.6856956042705139  1.0000
  H   H8        1.0  0.5573315281629618  0.5890330948786868  0.31430311247166304  1.0000
  H   H9        1.0  0.934303636544591  0.11141080855909281  0.18002192662044791  1.0000
  H   H10       1.0  0.434307506064023  0.38859249626890613  0.8199781471597732  1.0000
  H   H11       1.0  0.06569618384672539  0.8885859161051218  0.8199817349269057  1.0000
  H   H12       1.0  0.565696916039279  0.6114032790766047  0.18001883519372092  1.0000
  H   H13       1.0  0.7889357167173614  0.21746369265206764  0.0680955178255118  1.0000
  H   H14       1.0  0.288929611499583  0.2825442993709685  0.9319065446833152  1.0000
  H   H15       1.0  0.21107944281062876  0.7825349877603215  0.93190590351594  1.0000
  H   H16       1.0  0.7110717428020052  0.7174602262901786  0.06809415546313602  1.0000
  H   H17       1.0  0.5354854240008464  0.3535558957074727  0.0161447418452951  1.0000
  H   H18       1.0  0.0354733316023896  0.14644985327444  0.9838549950653506  1.0000
  H   H19       1.0  0.4645358711752862  0.6464418178190955  0.9838547998761273  1.0000
  H   H20       1.0  0.9645188192143266  0.8535575950097112  0.0161453444819415  1.0000
  H   H21       1.0  0.22623778991370364  0.49680284426897015  0.03535580489586472  1.0000
  H   H22       1.0  0.7262284980936045  0.0032021612297583987  0.9646435278843344  1.0000
  H   H23       1.0  0.7737819713371293  0.5031948780406951  0.9646413370380957  1.0000
  H   H24       1.0  0.27376365274272985  0.9968091699843598  0.035360130534669985  1.0000
  H   H25       1.0  0.07168278491320018  0.5445402966035998  0.17330645728154084  1.0000
  H   H26       1.0  0.5716717798595852  0.9554635210588176  0.826691718570878  1.0000
  H   H27       1.0  0.9283369763358564  0.4554632753550719  0.8266887635742112  1.0000
  H   H28       1.0  0.4283173031402896  0.044542942765978914  0.17331154092245535  1.0000
  H   H29       1.0  0.2167869017984501  0.453316335288541  0.28806076128950764  1.0000
  H   H30       1.0  0.7167830940959375  0.04668573849470901  0.711938318485949  1.0000
  H   H31       1.0  0.7832205881431449  0.5466872300747951  0.711936259397149  1.0000
  H   H32       1.0  0.2832151923773338  0.953313913189099  0.2880637825746036  1.0000
  H   H33       1.0  0.3686086769483837  0.0171951467172065  0.6357907310208974  1.0000
  H   H34       1.0  0.868610421705675  0.4828051592240569  0.3642090084877055  1.0000
  H   H35       1.0  0.6313865416890464  0.9828035358792777  0.36421009035956337  1.0000
  H   H36       1.0  0.13138939867300792  0.5171974238731849  0.6357903321950789  1.0000
  H   H37       1.0  0.5317681300920185  0.1258442671957312  0.6164487952745648  1.0000
  H   H38       1.0  0.031771081306438  0.37415466301347783  0.3835503777833652  1.0000
  H   H39       1.0  0.4682270885272999  0.8741515059482836  0.3835487870188673  1.0000
  H   H40       1.0  0.9682256712611447  0.6258488803834011  0.6164526423614307  1.0000
  C   C1        1.0  0.5505680031625815  0.28317753357438147  0.2846134901126548  1.0000
  C   C2        1.0  0.0505659174997817  0.2168233594496273  0.7153876695128221  1.0000
  C   C3        1.0  0.44943028329920753  0.7168182285914354  0.7153870919159433  1.0000
  C   C4        1.0  0.9494339028801092  0.7831782479741138  0.28461219133185284  1.0000
  C   C5        1.0  0.7165987337080678  0.1967730013416044  0.2697465797371593  1.0000
  C   C6        1.0  0.21659852097499047  0.30322907221908224  0.730252499769023  1.0000
  C   C7        1.0  0.2833995527606632  0.8032237299097035  0.7302552819693136  1.0000
  C   C8        1.0  0.78339976547354  0.6967686500777648  0.2697446421494193  1.0000
  C   C9        1.0  0.8021171468744367  0.17592792516615668  0.19010517089479614  1.0000
  C   C10       1.0  0.3021115689770255  0.3240732726479862  0.8098951522729084  1.0000
  C   C11       1.0  0.19788727525600788  0.8240678282193129  0.8098978109245963  1.0000
  C   C12       1.0  0.6978867174679094  0.675927376669371  0.19010042915984127  1.0000
  C   C13       1.0  0.7214637148874203  0.23450697395121983  0.12837373154473405  1.0000
  C   C14       1.0  0.2214570235080942  0.26550094188834816  0.871627033587018  1.0000
  C   C15       1.0  0.2785453089866863  0.7654907285879987  0.8716288099007774  1.0000
  C   C16       1.0  0.7785381951344943  0.7345045594426339  0.12837314639310193  1.0000
  C   C17       1.0  0.5480579077070189  0.31779075108517674  0.14053094720284076  1.0000
  C   C18       1.0  0.048052443132831996  0.18221598639225792  0.8594688876619901  1.0000
  C   C19       1.0  0.45194958224058007  0.6822079359106397  0.8594686742933038  1.0000
  C   C20       1.0  0.9519412416007353  0.8177895105458005  0.1405324922101983  1.0000
  C   C21       1.0  0.46234100619547286  0.37448460895125635  0.07533289860150921  1.0000
  C   C22       1.0  0.9623362434677388  0.12551970722335434  0.9246660955723488  1.0000
  C   C23       1.0  0.537671085478884  0.6255121420723386  0.9246635635956297  1.0000
  C   C24       1.0  0.037660509095928794  0.8744848140430295  0.07533580446395402  1.0000
  C   C25       1.0  0.2920367634017609  0.4542037347401546  0.08607332591108022  1.0000
  C   C26       1.0  0.7920271131006231  0.0458052410495426  0.9139270210204987  1.0000
  C   C27       1.0  0.7079768622054629  0.545797874887832  0.9139259349969822  1.0000
  C   C28       1.0  0.20796196990649915  0.9542041410117434  0.08607707777349562  1.0000
  C   C29       1.0  0.20487092458034079  0.48074718343195133  0.16388687932674634  1.0000
  C   C30       1.0  0.704858972939661  0.0192587700263616  0.8361125023653958  1.0000
  C   C31       1.0  0.7951473027554598  0.5192554128523099  0.8361088616897947  1.0000
  C   C32       1.0  0.2951331778999702  0.9807476850162475  0.16389315691650816  1.0000
  C   C33       1.0  0.2868757574072376  0.42802566428891003  0.22899340412396196  1.0000
  C   C34       1.0  0.7868725444065419  0.07197844234587342  0.7710053365390126  1.0000
  C   C35       1.0  0.7131317325370716  0.5719778988784228  0.7710042165092762  1.0000
  C   C36       1.0  0.21312267424356426  0.9280231540950937  0.22899752403529314  1.0000
  C   C37       1.0  0.4601680682481727  0.343711562578875  0.22004944010751618  1.0000
  C   C38       1.0  0.9601651356941046  0.15629177532839833  0.779950071090106  1.0000
  C   C39       1.0  0.5398378877783472  0.6562881044815398  0.7799484613324453  1.0000
  C   C40       1.0  0.03983161686925029  0.8437107967869867  0.2200522693234107  1.0000
  S   S1        1.0  0.4373717336404681  0.3163031674987097  0.3822449575589318  1.0000
  S   S2        1.0  0.9373719989382536  0.18369624268906656  0.61775600140588  1.0000
  S   S3        1.0  0.5626204171611207  0.6836945460104574  0.6177545841414374  1.0000
  S   S4        1.0  0.06262475362025552  0.8163014598428263  0.3822465400307637  1.0000
  N   N1        1.0  0.799295299421125  0.12525330434917947  0.32595308363494274  1.0000
  N   N2        1.0  0.299293212986548  0.3747440005792058  0.6740457164263348  1.0000
  N   N3        1.0  0.20070605487227766  0.8747424556224676  0.6740480983424676  1.0000
  N   N4        1.0  0.7007142769375181  0.6252517813561482  0.3259494660896039  1.0000
  O   O1        1.0  0.23098344210799837  0.25617168601029777  0.3753595237359591  1.0000
  O   O2        1.0  0.7309839119826762  0.24382261910504618  0.6246383383296037  1.0000
  O   O3        1.0  0.7690087086751729  0.7438211688953873  0.6246372192545951  1.0000
  O   O4        1.0  0.2690113066474993  0.7561731452549482  0.37536164375018904  1.0000
  O   O5        1.0  0.4495654582283919  0.0500768947992896  0.5928436959095508  1.0000
  O   O6        1.0  0.949570581928505  0.44992155867164757  0.4071566009449727  1.0000
  O   O7        1.0  0.5504282264819054  0.9499188739517949  0.4071550862759566  1.0000
  O   O8        1.0  0.05042770454810609  0.550081989118155  0.5928452193077477  1.0000
  O   O9        1.0  0.43118571726544264  0.4582086440345493  0.40273137188869884  1.0000
  O   O10       1.0  0.9311869952732719  0.0417897852889837  0.5972694983545993  1.0000
  O   O11       1.0  0.5688033656960769  0.5417871291057992  0.5972662104002995  1.0000
  O   O12       1.0  0.06880822335961768  0.958205976875007  0.4027310836717818  1.0000
  O   O13       1.0  0.5628399945388624  0.25524060465060233  0.4411671325946999  1.0000
  O   O14       1.0  0.06283655731473908  0.24475738479132766  0.5588332054596921  1.0000
  O   O15       1.0  0.4371536901868253  0.7447580757489618  0.5588342887312409  1.0000
  O   O16       1.0  0.9371586613085015  0.7552374104831756  0.4411654969422259  1.0000
