data_image0
_chemical_formula_structural       Zn4H44C81I6N20O
_chemical_formula_sum              "Zn4 H44 C81 I6 N20 O1"
_cell_length_a       19.00038600180499
_cell_length_b       19.553431466181166
_cell_length_c       20.187029378668264
_cell_angle_alpha    109.11737944888405
_cell_angle_beta     104.68191468198697
_cell_angle_gamma    112.21009817877108

_space_group_name_H-M_alt    "P 1"
_space_group_IT_number       1

loop_
  _space_group_symop_operation_xyz
  'x, y, z'

loop_
  _atom_site_type_symbol
  _atom_site_label
  _atom_site_symmetry_multiplicity
  _atom_site_fract_x
  _atom_site_fract_y
  _atom_site_fract_z
  _atom_site_occupancy
  Zn  Zn1       1.0  0.1082260810314395  0.10273481964627962  0.49038220587985376  1.0000
  Zn  Zn2       1.0  0.8762137802302732  0.8860378061459072  0.49203398557976613  1.0000
  Zn  Zn3       1.0  0.0011918049701333396  0.8967421082640851  0.4070833466256329  1.0000
  Zn  Zn4       1.0  0.9914139398535511  0.090351811297019  0.5882604245867709  1.0000
  H   H1        1.0  0.18290591462391595  0.12418874401286216  0.357284590679768  1.0000
  H   H2        1.0  0.8096795264752359  0.6899537111744889  0.4695860049772588  1.0000
  H   H3        1.0  0.13145196255154426  0.8650116260846302  0.5146284388113567  1.0000
  H   H4        1.0  0.14193137793289165  0.11315447458411398  0.7283896140679429  1.0000
  H   H5        1.0  0.9851590722489618  0.8418640895172799  0.6073471442019877  1.0000
  H   H6        1.0  0.277956722490778  0.1355321530544202  0.6158457025086077  1.0000
  H   H7        1.0  0.10707108566336387  0.2810405050407637  0.7349562323195256  1.0000
  H   H8        1.0  0.9981567949682814  0.7189271315128207  0.3811009125739059  1.0000
  H   H9        1.0  0.03897738167798068  0.6590696754094763  0.47799520673146373  1.0000
  H   H10       1.0  0.7682269413941256  0.5226099425099946  0.38422425465220994  1.0000
  H   H11       1.0  0.693861829913331  0.3753512343277166  0.3618646385214389  1.0000
  H   H12       1.0  0.7121189698901913  0.8586350105647609  0.5317298228697137  1.0000
  H   H13       1.0  0.6976858362628845  0.2505999166462729  0.35918916514231086  1.0000
  H   H14       1.0  0.05245318463913402  0.3228864652322229  0.48473370707937835  1.0000
  H   H15       1.0  0.12604900159820426  0.4692881863739089  0.5124329348021559  1.0000
  H   H16       1.0  0.12146465338243213  0.5937694512790087  0.5107692568787453  1.0000
  H   H17       1.0  0.2563592796500698  0.8627111499685751  0.5519714653487636  1.0000
  H   H18       1.0  0.3963278034896902  0.13300226483715244  0.6810075983903088  1.0000
  H   H19       1.0  0.5517419800939933  0.20910313828973406  0.7412325460314049  1.0000
  H   H20       1.0  0.7513686803035355  0.13029037334370486  0.6930022824724416  1.0000
  H   H21       1.0  0.8949290617004306  0.898130802300933  0.2553403068783165  1.0000
  H   H22       1.0  0.6107536282693927  0.8599550662854296  0.5699635060347741  1.0000
  H   H23       1.0  0.4632288519159998  0.7831354673173081  0.5466422661525666  1.0000
  H   H24       1.0  0.33182953262481607  0.78332875701507  0.5405018215750484  1.0000
  H   H25       1.0  0.47491643466353367  0.5778281468191934  0.8491651826009982  1.0000
  H   H26       1.0  0.37425114210855526  0.43812023757510576  0.7335275788291111  1.0000
  H   H27       1.0  0.6279285318104825  0.76129300519829  0.23236329940586106  1.0000
  H   H28       1.0  0.2808780919375876  0.5617153028406107  0.9263226219985152  1.0000
  H   H29       1.0  0.506619515408971  0.6791377374330948  0.10166298308532601  1.0000
  H   H30       1.0  0.8552863660506702  0.1243031657723606  0.4984725133576759  1.0000
  H   H31       1.0  0.17813103672106215  0.4237696707459547  0.8089434214216097  1.0000
  H   H32       1.0  0.2314097658490084  0.10210406814616849  0.8231105056586042  1.0000
  H   H33       1.0  0.2786638556432877  0.11335232466181107  0.9549297592265941  1.0000
  H   H34       1.0  0.14403014964342728  0.055014877704103085  0.08395490072819456  1.0000
  H   H35       1.0  0.11753861731473589  0.06896127042359979  0.20163354128421665  1.0000
  H   H36       1.0  0.03402935100367432  0.847219026111965  0.7319629171184798  1.0000
  H   H37       1.0  0.08565226878599905  0.8580036690696528  0.8630938685911356  1.0000
  H   H38       1.0  0.7227179681974291  0.8796586013871416  0.3632809901198042  1.0000
  H   H39       1.0  0.8642064485286837  0.12885595561578359  0.667385500892024  1.0000
  H   H40       1.0  0.04802418336872431  0.8538249362391636  0.2559411034835929  1.0000
  H   H41       1.0  0.2664172488815524  0.309025106969834  0.6143682298627053  1.0000
  H   H42       1.0  0.9675630299273693  0.19931963631573513  0.31719126741618436  1.0000
  H   H43       1.0  0.9906479305550917  0.11711445239640739  0.280362203893496  1.0000
  H   H44       1.0  0.06934551630516948  0.22488523712377878  0.3187336741812955  1.0000
  C   C1        1.0  0.14549140961360513  0.05895296326843179  0.34261286818825437  1.0000
  C   C2        1.0  0.7589936121787274  0.9944815158032724  0.6103192891520092  1.0000
  C   C3        1.0  0.7801768121211408  0.8805904126185878  0.2779641221740829  1.0000
  C   C4        1.0  0.931591649435525  0.1749063041273899  0.43930919625850595  1.0000
  C   C5        1.0  0.21857646286667173  0.28851543151094455  0.6348052988103203  1.0000
  C   C6        1.0  0.8559450531912346  0.708880858447962  0.4471470953769623  1.0000
  C   C7        1.0  0.15623218806866374  0.9314375620268364  0.5331552901309561  1.0000
  C   C8        1.0  0.09649635008614149  0.0472969930162606  0.6886257441574697  1.0000
  C   C9        1.0  0.015836686967425212  0.9089763431776772  0.6274152220303503  1.0000
  C   C10       1.0  0.23064753136781488  0.06937357231097249  0.5851925661162836  1.0000
  C   C11       1.0  0.13676783402898  0.274527214094249  0.6956436396489065  1.0000
  C   C12       1.0  0.7599595099946367  0.924578585481967  0.5620451571345195  1.0000
  C   C13       1.0  0.9534394306122066  0.7249353037189862  0.40374341193718494  1.0000
  C   C14       1.0  0.21182578583655237  0.3338806301977185  0.7010337472404654  1.0000
  C   C15       1.0  0.9030468176664926  0.6722140093579441  0.42641549153640296  1.0000
  C   C16       1.0  0.23845082499479997  0.9998335807822374  0.5827631657427401  1.0000
  C   C17       1.0  0.08552801432053764  0.975767643506458  0.6973100906821439  1.0000
  C   C18       1.0  0.9804554447630521  0.6012719045079036  0.45725786014386194  1.0000
  C   C19       1.0  0.9033041277528677  0.5986070811012707  0.42977925342780976  1.0000
  C   C20       1.0  0.8285540604059634  0.525394795458382  0.406161010885391  1.0000
  C   C21       1.0  0.8294985019783141  0.4542727854393504  0.4073543093803947  1.0000
  C   C22       1.0  0.9080529956227181  0.45680098871687846  0.43394734983187516  1.0000
  C   C23       1.0  0.8628537093295705  0.8965146567315327  0.2927393976415755  1.0000
  C   C24       1.0  0.9845945911935843  0.532286484000906  0.46030669981657685  1.0000
  C   C25       1.0  0.7542085776048991  0.37764339098126226  0.3813265182089933  1.0000
  C   C26       1.0  0.7562954423085343  0.30803011139002473  0.3798402474040257  1.0000
  C   C27       1.0  0.8339955765333401  0.3079960118267734  0.4051479086670822  1.0000
  C   C28       1.0  0.9104956005106855  0.3848789948934978  0.4337246041319031  1.0000
  C   C29       1.0  0.9900013047718232  0.3896116240781353  0.46158844660802584  1.0000
  C   C30       1.0  0.0659524458597715  0.46677557641768164  0.49010608327814226  1.0000
  C   C31       1.0  0.06340623883312449  0.5352678327957605  0.48924455397553834  1.0000
  C   C32       1.0  0.8397929850075201  0.23730092470163555  0.4035309851723665  1.0000
  C   C33       1.0  0.9181943901247392  0.24199624344225867  0.432501758875304  1.0000
  C   C34       1.0  0.902598332687738  0.1285144032527725  0.47658696703606984  1.0000
  C   C35       1.0  0.9917308083618079  0.31879722448735487  0.46125330113088814  1.0000
  C   C36       1.0  0.3161063472437177  0.9219438707611685  0.5866974824299471  1.0000
  C   C37       1.0  0.3162986890816624  0.9981768797414715  0.6120297118270553  1.0000
  C   C38       1.0  0.39432963160314216  0.07308231748707779  0.6583171974555737  1.0000
  C   C39       1.0  0.4707115184059347  0.07364577433194337  0.6719678648748512  1.0000
  C   C40       1.0  0.4695833285202368  0.9963523405270392  0.6395570356630527  1.0000
  C   C41       1.0  0.3909210555213106  0.9194038128833667  0.5994624437603374  1.0000
  C   C42       1.0  0.5503866810086606  0.15022673375204218  0.7133643500397823  1.0000
  C   C43       1.0  0.6228326001551634  0.14999850716241522  0.7157304984866424  1.0000
  C   C44       1.0  0.6233459525435734  0.07376486722564116  0.677550194514026  1.0000
  C   C45       1.0  0.7746086368080894  0.8856993867315806  0.3476207948631537  1.0000
  C   C46       1.0  0.5450620591483283  0.996579413797924  0.6425823309162761  1.0000
  C   C47       1.0  0.5424755981392974  0.9189247938481981  0.6058876867699322  1.0000
  C   C48       1.0  0.464007339997515  0.8421729952780196  0.5720161210532451  1.0000
  C   C49       1.0  0.3914037553722876  0.8422857183164677  0.5687036148474642  1.0000
  C   C50       1.0  0.6933239582239137  0.07111399398372238  0.6691321836144792  1.0000
  C   C51       1.0  0.6892544678272114  0.9952165041078442  0.6280617645184132  1.0000
  C   C52       1.0  0.6146146835040083  0.9198309611344582  0.5999701413892633  1.0000
  C   C53       1.0  0.26901456745921587  0.4194793901552103  0.7634497767544556  1.0000
  C   C54       1.0  0.24316412701597295  0.456832888598761  0.8175727588948188  1.0000
  C   C55       1.0  0.2997373516342988  0.5340469098358581  0.8827315041572344  1.0000
  C   C56       1.0  0.9944514205583698  0.15753261197707494  0.42725840639268126  1.0000
  C   C57       1.0  0.3839634816334792  0.5776814498443554  0.8951197943019902  1.0000
  C   C58       1.0  0.40948622873089124  0.543549418372663  0.839041137034584  1.0000
  C   C59       1.0  0.35281605229218366  0.4656877025784566  0.7746926342661307  1.0000
  C   C60       1.0  0.6461119217940449  0.8203088871224505  0.06951369650527524  1.0000
  C   C61       1.0  0.7131826537881948  0.8689303190713531  0.1440881310546868  1.0000
  C   C62       1.0  0.5721249754652575  0.7499319517484152  0.05363277504991252  1.0000
  C   C63       1.0  0.7092723009935185  0.846363181602868  0.2036435937954974  1.0000
  C   C64       1.0  0.6319585684133812  0.7795621891153671  0.18732450194512737  1.0000
  C   C65       1.0  0.5646381316667257  0.7330508862224714  0.11479290941111459  1.0000
  C   C66       1.0  0.1514273636893931  0.9796480356371614  0.21558594723027352  1.0000
  C   C67       1.0  0.8374106815645276  0.06219074803173899  0.6309073882821962  1.0000
  C   C68       1.0  0.18098970161481975  0.9253139824635139  0.18537750244556123  1.0000
  C   C69       1.0  0.1915225027592129  0.9143470690903541  0.11709680208139854  1.0000
  C   C70       1.0  0.17707277593827792  0.960783645292743  0.08006443870736024  1.0000
  C   C71       1.0  0.15465219527525417  0.01970628046412769  0.11350777701025547  1.0000
  C   C72       1.0  0.1408755260364316  0.027594542658853492  0.17905090115908703  1.0000
  C   C73       1.0  0.2261617303840069  0.055045210036062976  0.9049171709352133  1.0000
  C   C74       1.0  0.19895459371212348  0.048451804523907085  0.8314326823762382  1.0000
  C   C75       1.0  0.18395056795689857  0.9871138779413328  0.9171161281749814  1.0000
  C   C76       1.0  0.12679041048605175  0.9750877482948608  0.7683728025044085  1.0000
  C   C77       1.0  0.08937063384247047  0.9050111413722558  0.7800740700374997  1.0000
  C   C78       1.0  0.0776500106733521  0.9210329952159667  0.29146772940729426  1.0000
  C   C79       1.0  0.11745652578613876  0.9104284946550222  0.8530023014027672  1.0000
  C   C80       1.0  0.12808680950476503  0.9862546583024707  0.28020359962878394  1.0000
  C   C81       1.0  0.016693797220987985  0.1820976118974187  0.3243199734565464  1.0000
  I   I1        1.0  0.7283539931611287  0.12005579140512879  0.3528715555781046  1.0000
  I   I2        1.0  0.7362212237097125  0.2668337187614114  0.7756044404569519  1.0000
  I   I3        1.0  0.8199010776517496  0.9788153679579207  0.16977777237763517  1.0000
  I   I4        1.0  0.6463991420198383  0.8474194405746543  0.9771015936381597  1.0000
  I   I5        1.0  0.23479821184992028  0.835805484022181  0.06711949570781416  1.0000
  I   I6        1.0  0.21526643649690394  0.8655224507085676  0.24712088436256588  1.0000
  N   N1        1.0  0.10951649888984599  0.0384064118977676  0.3878903716725332  1.0000
  N   N2        1.0  0.8770512834017978  0.7780702475346145  0.4379519951406577  1.0000
  N   N3        1.0  0.10501647071761494  0.9586495449691268  0.5075611904674486  1.0000
  N   N4        1.0  0.0371719756850553  0.02417849045555439  0.6201015618784707  1.0000
  N   N5        1.0  0.9878886013775484  0.9393110162197613  0.5823696489622702  1.0000
  N   N6        1.0  0.15077576046297034  0.04343727815220429  0.5396257919583716  1.0000
  N   N7        1.0  0.10221872904997295  0.20080022872900827  0.6320633862321896  1.0000
  N   N8        1.0  0.9374200156122612  0.7877576323198523  0.410401385767386  1.0000
  N   N9        1.0  0.4386821178693834  0.6489365821256355  0.9677963619866782  1.0000
  N   N10       1.0  0.5128898983352101  0.6924380698596619  0.9763881217203259  1.0000
  N   N11       1.0  0.17607536369022347  0.941669732162033  0.006342510445200548  1.0000
  N   N12       1.0  0.8325882402703115  0.9487309184971264  0.5548383464075779  1.0000
  N   N13       1.0  0.2041093369542821  0.004699448306553199  0.994792039562526  1.0000
  N   N14       1.0  0.9015939641658547  0.9083247895286914  0.36465628029687  1.0000
  N   N15       1.0  0.9451759294679363  0.0880841608079734  0.4863712182751882  1.0000
  N   N16       1.0  0.8475471094623969  0.9020893061280258  0.3984072572232333  1.0000
  N   N17       1.0  0.0007228762724337877  0.10460637629051207  0.45413051558673334  1.0000
  N   N18       1.0  0.8811066773878906  0.03452312011191339  0.5976715956279859  1.0000
  N   N19       1.0  0.06692994429143777  0.9524193741569531  0.35554037411038986  1.0000
  N   N20       1.0  0.15308708391899725  0.2094720434279437  0.5938858834720049  1.0000
  O   O1        1.0  0.05111331695666614  0.190505221964436  0.4008082922411233  1.0000
