data_image0
_chemical_formula_structural       Zn4H52C48S4N12O24
_chemical_formula_sum              "Zn4 H52 C48 S4 N12 O24"
_cell_length_a       6.658256443
_cell_length_b       10.281940839885625
_cell_length_c       21.795
_cell_angle_alpha    93.93676283151875
_cell_angle_beta     90.0
_cell_angle_gamma    90.0

_space_group_name_H-M_alt    "P 1"
_space_group_IT_number       1

loop_
  _space_group_symop_operation_xyz
  'x, y, z'

loop_
  _atom_site_type_symbol
  _atom_site_label
  _atom_site_symmetry_multiplicity
  _atom_site_fract_x
  _atom_site_fract_y
  _atom_site_fract_z
  _atom_site_occupancy
  Zn  Zn1       1.0  0.8010610654096129  0.4266315618395282  0.846445694537721  1.0000
  Zn  Zn2       1.0  0.3010562926135734  0.0733674677655998  0.6535554440255995  1.0000
  Zn  Zn3       1.0  0.1989409707090175  0.5733684471293614  0.15355435163484543  1.0000
  Zn  Zn4       1.0  0.6989412378209892  0.9266315663239766  0.34644502939276833  1.0000
  H   H1        1.0  0.7230751836032854  0.5393646564936248  0.019803323883003505  1.0000
  H   H2        1.0  0.22307491649132066  0.9606363318390263  0.4801979240029723  1.0000
  H   H3        1.0  0.276925350620651  0.4606373022338984  0.9801967854396524  1.0000
  H   H4        1.0  0.7769271196273166  0.0393617273712294  0.5198029766611755  1.0000
  H   H5        1.0  0.015012939326645403  0.249175254338617  0.7980631132353936  1.0000
  H   H6        1.0  0.5150117045439232  0.250823775266511  0.7019366488654344  1.0000
  H   H7        1.0  0.9849875948972981  0.7508247546302727  0.2019364741163514  1.0000
  H   H8        1.0  0.4849873277853264  0.7491752588230581  0.29806244809043403  1.0000
  H   H9        1.0  0.8447526838521284  0.2646875340575292  0.7445889351619216  1.0000
  H   H10       1.0  0.34475091484546994  0.2353114955475988  0.7554117445805704  1.0000
  H   H11       1.0  0.15524935226650174  0.7353124749113604  0.25541111101065184  1.0000
  H   H12       1.0  0.6552481174837794  0.7646875385419776  0.24458735237530504  1.0000
  H   H13       1.0  0.8055156850617566  0.4576190758632492  0.7168675540014533  1.0000
  H   H14       1.0  0.305513916055098  0.0423799537418716  0.783132666920203  1.0000
  H   H15       1.0  0.19448334726749295  0.5423809331056404  0.28313203335029163  1.0000
  H   H16       1.0  0.6944836143794648  0.9576181054683771  0.21686639846062408  1.0000
  H   H17       1.0  0.7989298768437365  0.6215079878860266  0.6395874891138646  1.0000
  H   H18       1.0  0.2989311116264588  0.8784939753259451  0.8604133315263313  1.0000
  H   H19       1.0  0.201067653590826  0.3784949457208171  0.36041265178383963  1.0000
  H   H20       1.0  0.7010679207027979  0.1215060336429445  0.1395862558254137  1.0000
  H   H21       1.0  0.7939661148914966  0.8619970674951603  0.6767617899478111  1.0000
  H   H22       1.0  0.29396734967421884  0.6380058705961318  0.8232399799090759  1.0000
  H   H23       1.0  0.20603291743775293  0.1380068409910038  0.3232393001665913  1.0000
  H   H24       1.0  0.7060301807603437  0.3619941383727578  0.17676006626349053  1.0000
  H   H25       1.0  0.7981639105515584  0.025254248750535196  0.7594217596691807  1.0000
  H   H26       1.0  0.2981666472289675  0.4747457557339061  0.7405784928275239  1.0000
  H   H27       1.0  0.20183361988299714  0.9747477099769952  0.24057789083264683  1.0000
  H   H28       1.0  0.701830883205588  0.5252523034763427  0.259421490194967  1.0000
  H   H29       1.0  0.7868681605840069  0.0911297689520367  0.8719196837040928  1.0000
  H   H30       1.0  0.2868708972614158  0.4088702355324044  0.6280814864342689  1.0000
  H   H31       1.0  0.2131293698505559  0.9088702400168527  0.12808082128930923  1.0000
  H   H32       1.0  0.7131296369625277  0.5911287985571647  0.3719185281632634  1.0000
  H   H33       1.0  0.7737791483559421  0.919362866123862  0.946413781151108  1.0000
  H   H34       1.0  0.27377587745458953  0.5806371473294759  0.5535874351598267  1.0000
  H   H35       1.0  0.22622288776268826  0.080635193086394  0.05358666069221132  1.0000
  H   H36       1.0  0.7262246567693539  0.419363836518734  0.4464131014086164  1.0000
  H   H37       1.0  0.7611437083244256  0.7252517203425269  0.9764387780297669  1.0000
  H   H38       1.0  0.261140437423073  0.7747482931108038  0.523562438281175  1.0000
  H   H39       1.0  0.2388583277942118  0.2747482886263626  0.023562644605299006  1.0000
  H   H40       1.0  0.7388570930114897  0.225249766099445  0.476435709457995  1.0000
  H   H41       1.0  0.7163016385489487  0.3472422645224142  0.0702593316903517  1.0000
  H   H42       1.0  0.21630587712105154  0.152757739962027  0.4297413796271742  1.0000
  H   H43       1.0  0.2836943899909201  0.6527577444464754  0.9297407144822217  1.0000
  H   H44       1.0  0.7836946571028918  0.8472432438861759  0.5702586981204406  1.0000
  H   H45       1.0  0.8574782375650828  0.2136925717764342  0.0353020388637404  1.0000
  H   H46       1.0  0.3574854799265666  0.2863093824666478  0.46469873560387503  1.0000
  H   H47       1.0  0.14251628908009917  0.7863103618304094  0.9646985608547852  1.0000
  H   H48       1.0  0.6425165561920637  0.7136916013815622  0.5353018009645754  1.0000
  H   H49       1.0  0.5960824780446218  0.22233000253998364  0.021237219289879802  1.0000
  H   H50       1.0  0.0960852147220308  0.27767000194445757  0.47876257438598924  1.0000
  H   H51       1.0  0.4039165542846278  0.7776709813082192  0.978761940816071  1.0000
  H   H52       1.0  0.9039168213965993  0.7223280572657913  0.5212378674573304  1.0000
  C   C1        1.0  0.8014125087671999  0.5607301116419308  0.7321993830621382  1.0000
  C   C2        1.0  0.3014137435499222  0.9392708766907274  0.7678009471821808  1.0000
  C   C3        1.0  0.1985910292461242  0.4392708722062793  0.26780069468547657  1.0000
  C   C4        1.0  0.6985897944634021  0.060729132278162  0.23219818134872847  1.0000
  C   C5        1.0  0.7983486435984943  0.6540787059232898  0.6881679905197091  1.0000
  C   C6        1.0  0.2983498783812167  0.8459222824093615  0.8118332573662743  1.0000
  C   C7        1.0  0.20164888683606116  0.3459232528042335  0.3118325776237826  1.0000
  C   C8        1.0  0.7016491539480327  0.1540777265595281  0.18816632998547086  1.0000
  C   C9        1.0  0.7967671484893586  0.7838341683609471  0.7081531159266703  1.0000
  C   C10       1.0  0.2967713870614546  0.7161677948510244  0.7918486223551755  1.0000
  C   C11       1.0  0.20323038194520396  0.2161687652458966  0.2918474837918552  1.0000
  C   C12       1.0  0.7032261433731011  0.2838312392385518  0.20815139224235685  1.0000
  C   C13       1.0  0.7949243237040664  0.8190429098345788  0.7721432163121946  1.0000
  C   C14       1.0  0.2949240565920945  0.6809600282567132  0.7278590123655277  1.0000
  C   C15       1.0  0.2050777124145711  0.1809609986515852  0.22785741498137924  1.0000
  C   C16       1.0  0.7050749757371549  0.3190399807121764  0.27214149262787407  1.0000
  C   C17       1.0  0.7931821258630336  0.9524512450793451  0.7933464469311887  1.0000
  C   C18       1.0  0.29318035685637517  0.547549743253306  0.7066557185964515  1.0000
  C   C19       1.0  0.20681991025559657  0.04755168852749849  0.20665461160817242  1.0000
  C   C20       1.0  0.7068201773675684  0.4524492908362632  0.2933447548219092  1.0000
  C   C21       1.0  0.7875410094053664  0.9886368156303007  0.8554007617874932  1.0000
  C   C22       1.0  0.2875437460827755  0.5113622229437169  0.6446004229484005  1.0000
  C   C23       1.0  0.212459524818577  0.0113622184592757  0.1445987939892106  1.0000
  C   C24       1.0  0.7124597919305489  0.488635836266532  0.35540047771574734  1.0000
  C   C25       1.0  0.7816190386405639  0.8909344103116865  0.8972269052772434  1.0000
  C   C26       1.0  0.281620273423286  0.6090646282623311  0.6027747382794788  1.0000
  C   C27       1.0  0.21838299747806644  0.10906462377788269  0.10277356814111732  1.0000
  C   C28       1.0  0.7183817626953515  0.3909334309479249  0.39722616238466923  1.0000
  C   C29       1.0  0.7841407198259844  0.7573408479963674  0.8794143260082593  1.0000
  C   C30       1.0  0.284137448924632  0.7426591654569705  0.620586431481847  1.0000
  C   C31       1.0  0.21585831250327206  0.2426611107311629  0.1205857833143966  1.0000
  C   C32       1.0  0.7158600815099305  0.2573379188739651  0.37941306114476714  1.0000
  C   C33       1.0  0.793493018063977  0.718337876214413  0.8145919985563809  1.0000
  C   C34       1.0  0.2934912490573183  0.7816621372389179  0.6854092177545541  1.0000
  C   C35       1.0  0.20650751615995946  0.2816631076337899  0.1854085380120623  1.0000
  C   C36       1.0  0.7065062813772445  0.2183368968506514  0.31459033802214986  1.0000
  C   C37       1.0  0.7728029168070876  0.6746632827373276  0.9305286640321384  1.0000
  C   C38       1.0  0.27279814401104835  0.8253357558366899  0.5694729795245907  1.0000
  C   C39       1.0  0.22720062120622944  0.3253386759902028  0.06947282175300981  1.0000
  C   C40       1.0  0.7272023902128951  0.1746603536149252  0.43052602270615387  1.0000
  C   C41       1.0  0.7691818487081933  0.3518748910448081  0.9722084127649637  1.0000
  C   C42       1.0  0.2691830834909156  0.1481270631982738  0.5277919028818233  1.0000
  C   C43       1.0  0.23081718362105622  0.6481270676827222  0.02779077891603521  1.0000
  C   C44       1.0  0.7308189526277149  0.8518719708912953  0.4722085705365374  1.0000
  C   C45       1.0  0.73263474330858  0.2811162003360081  0.02894897995390981  1.0000
  C   C46       1.0  0.23263898188068313  0.2188867287863872  0.4710518260887541  1.0000
  C   C47       1.0  0.2673612852312885  0.7188867332708354  0.9710507021229592  1.0000
  C   C48       1.0  0.7673630542379543  0.7811132801825025  0.5289486789046551  1.0000
  S   S1        1.0  0.304645820923966  0.36388930376828194  0.8630586585139851  1.0000
  S   S2        1.0  0.8046445861412439  0.1361077760782052  0.6369424168992525  1.0000
  S   S3        1.0  0.6953562151946714  0.636108755441974  0.13694040686684164  1.0000
  S   S4        1.0  0.19535444618800574  0.8638902831320436  0.3630589425857309  1.0000
  N   N1        1.0  0.7994630494588792  0.59012467285892  0.7927862123396423  1.0000
  N   N2        1.0  0.2994657861362882  0.909875340594418  0.7072136275088001  1.0000
  N   N3        1.0  0.2005374847650643  0.40987631098928995  0.2072134065871438  1.0000
  N   N4        1.0  0.7005347480876551  0.0901236934951584  0.2927854694470683  1.0000
  N   N5        1.0  0.7742402300259388  0.5485099993822117  0.9262302932862526  1.0000
  N   N6        1.0  0.274238461019273  0.9514900140711262  0.5737704642038539  1.0000
  N   N7        1.0  0.22576030419800472  0.4514929342246319  0.07376938879061612  1.0000
  N   N8        1.0  0.7257620732046632  0.048506095380489  0.42622991448938313  1.0000
  N   N9        1.0  0.7565358954138406  0.4844399556789156  0.9784093367081116  1.0000
  N   N10       1.0  0.2565356283018758  0.015559073926212396  0.5215918018552088  1.0000
  N   N11       1.0  0.24346163502071513  0.5155610281692944  0.021590741039503307  1.0000
  N   N12       1.0  0.7434634040273809  0.9844399601633568  0.4784091303839801  1.0000
  O   O1        1.0  0.8084173456038783  0.2929697579719032  0.9216380167386903  1.0000
  O   O2        1.0  0.3084170784919138  0.20702829675390427  0.5783630902495889  1.0000
  O   O3        1.0  0.1915906980935134  0.7070312258763067  0.0783625198297599  1.0000
  O   O4        1.0  0.691590965205485  0.7929687875770312  0.42163686119785393  1.0000
  O   O5        1.0  0.4866919782590885  0.4183333890788816  0.8338520826344579  1.0000
  O   O6        1.0  0.9866862377922986  0.0816636907676056  0.6661508280621009  1.0000
  O   O7        1.0  0.513310057859542  0.5816656450106876  0.16614701432141035  1.0000
  O   O8        1.0  0.013308288852883304  0.9183343684426432  0.3338523667062034  1.0000
  O   O9        1.0  0.3433120997319322  0.3391127458839023  0.9282653552447614  1.0000
  O   O10       1.0  0.8433168725279787  0.1608853088419053  0.571736210564346  1.0000
  O   O11       1.0  0.6566899363866983  0.6608872630849872  0.0717342321069765  1.0000
  O   O12       1.0  0.15668816738003954  0.8391137252476639  0.42826518049567863  1.0000
  O   O13       1.0  0.24845543486676294  0.2389088002335455  0.8269698715339117  1.0000
  O   O14       1.0  0.7484557019787348  0.2610902293715824  0.6730298905669159  1.0000
  O   O15       1.0  0.7515435974624867  0.7610902338560308  0.17302968424278484  1.0000
  O   O16       1.0  0.2515433303505148  0.7389088047179868  0.3269701240306162  1.0000
  O   O17       1.0  0.13885016414048582  0.4607445389589557  0.8590798182262492  1.0000
  O   O18       1.0  0.6388474274630769  0.03925351576685189  0.6409199122995375  1.0000
  O   O19       1.0  0.8611533738728385  0.5392544951306135  0.14091927872962637  1.0000
  O   O20       1.0  0.3611501029714859  0.9607445434433968  0.3590796119021178  1.0000
  O   O21       1.0  0.8708571154684182  0.2693533064767593  0.789864623167162  1.0000
  O   O22       1.0  0.3708568483564464  0.23064474824904826  0.710135566179453  1.0000
  O   O23       1.0  0.1291434187555183  0.7306457276128171  0.21013539143037013  1.0000
  O   O24       1.0  0.6291421839728033  0.7693542858405209  0.2898635307764152  1.0000
