data_image0
_chemical_formula_structural       P4H18Pb5C28O20
_chemical_formula_sum              "P4 H18 Pb5 C28 O20"
_cell_length_a       9.917638296184952
_cell_length_b       10.293343500877862
_cell_length_c       9.8331917614239
_cell_angle_alpha    91.57256953993382
_cell_angle_beta     118.46623754250807
_cell_angle_gamma    92.63909099157894

_space_group_name_H-M_alt    "P 1"
_space_group_IT_number       1

loop_
  _space_group_symop_operation_xyz
  'x, y, z'

loop_
  _atom_site_type_symbol
  _atom_site_label
  _atom_site_symmetry_multiplicity
  _atom_site_fract_x
  _atom_site_fract_y
  _atom_site_fract_z
  _atom_site_occupancy
  P   P1        1.0  0.6868534764201685  0.43944143532849744  0.8742548823673532  1.0000
  P   P2        1.0  0.2786753499534456  0.5292019765697448  0.07741827893870828  1.0000
  P   P3        1.0  0.8137521915577749  0.3542874389517365  0.45496381308972633  1.0000
  P   P4        1.0  0.09714962115500471  0.6659083589593069  0.5060320717724737  1.0000
  H   H1        1.0  0.9164997969876013  0.8596123152893967  0.021090980406704422  1.0000
  H   H2        1.0  0.5560689748627752  0.2779369531492648  0.030367199418975612  1.0000
  H   H3        1.0  0.5745090725544628  0.04304196627809629  0.08994868233267525  1.0000
  H   H4        1.0  0.8411251698468833  0.9921115180332765  0.8546504450882749  1.0000
  H   H5        1.0  0.8202441546982727  0.22416606617559862  0.7921234748213807  1.0000
  H   H6        1.0  0.1720211352317308  0.7175655660991255  0.2353884787603846  1.0000
  H   H7        1.0  0.13809684043787485  0.956196733432819  0.21034007581479133  1.0000
  H   H8        1.0  0.34176881443636387  0.7245330024351447  0.9044211760988788  1.0000
  H   H9        1.0  0.29534547428661284  0.9523191653054042  0.8676798208096345  1.0000
  H   H10       1.0  0.5337925156322215  0.18597531471938572  0.27501033828848886  1.0000
  H   H11       1.0  0.47358824445991127  0.9479743831959697  0.28193612623653047  1.0000
  H   H12       1.0  0.9160277233467655  0.9213927762914197  0.6782029076380882  1.0000
  H   H13       1.0  0.9817681260732912  0.15603904881530184  0.6652655716723785  1.0000
  H   H14       1.0  0.9452809448598388  0.9037152218462059  0.3994146860260628  1.0000
  H   H15       1.0  0.03767880218692451  0.1328273348149125  0.4028258954737964  1.0000
  H   H16       1.0  0.5045878987442122  0.0219482048869182  0.6238775418572614  1.0000
  H   H17       1.0  0.41414959207276075  0.7945868919409522  0.6332619917613371  1.0000
  H   H18       1.0  0.30272610855860194  0.12110190619613802  0.9139491433918537  1.0000
  Pb  Pb1       1.0  0.4966474772461994  0.5032034973724963  0.5053680984529832  1.0000
  Pb  Pb2       1.0  0.03928137025896921  0.39665927580100657  0.22743154143457642  1.0000
  Pb  Pb3       1.0  0.6908286005002324  0.5891267788114548  0.2171709556992312  1.0000
  Pb  Pb4       1.0  0.935737413616792  0.5920890788886908  0.7361007964746591  1.0000
  Pb  Pb5       1.0  0.26511752890674967  0.4102223984838817  0.7613914010763381  1.0000
  C   C1        1.0  0.6867135155794915  0.26604711824582955  0.9058284864424737  1.0000
  C   C2        1.0  0.6153021576727724  0.21448683213760233  0.9883685063993682  1.0000
  C   C3        1.0  0.625532076956624  0.08415175523922613  0.022855328242734216  1.0000
  C   C4        1.0  0.7106062017474103  0.0036993129067113013  0.9791775347643465  1.0000
  C   C5        1.0  0.7806086077938305  0.054498134694348714  0.8958674097953364  1.0000
  C   C6        1.0  0.767641751898644  0.1845283314457049  0.8585164902268829  1.0000
  C   C7        1.0  0.7241351851039327  0.867546262556481  0.026467140678619227  1.0000
  C   C8        1.0  0.2597259306906921  0.7046918951092708  0.07172430816246586  1.0000
  C   C9        1.0  0.1993425355250338  0.7701351777325841  0.1557361333169496  1.0000
  C   C10       1.0  0.1771264352049684  0.9026920618024976  0.13969952636083602  1.0000
  C   C11       1.0  0.21183267187058874  0.9716016756800555  0.03745256937698118  1.0000
  C   C12       1.0  0.26903353008808034  0.9050408011629544  0.9513820461699183  1.0000
  C   C13       1.0  0.2949102647179771  0.7735446410654847  0.9702572279801275  1.0000
  C   C14       1.0  0.19452682556615739  0.11412603033382143  0.032768703157614675  1.0000
  C   C15       1.0  0.7632024126850467  0.18563364258171333  0.4674332889106552  1.0000
  C   C16       1.0  0.6191452694977856  0.12686627181345503  0.36046318749964007  1.0000
  C   C17       1.0  0.5842594025374767  0.9950601646549302  0.3652801429937895  1.0000
  C   C18       1.0  0.6898419683069221  0.920881206672732  0.48108003281326006  1.0000
  C   C19       1.0  0.8327465385698646  0.9797716857623302  0.5896529629754141  1.0000
  C   C20       1.0  0.8698706902290072  0.11052288032344393  0.5815744136626648  1.0000
  C   C21       1.0  0.6473628279774745  0.7810625031864478  0.4905824662757539  1.0000
  C   C22       1.0  0.17216360184841767  0.8327664651417807  0.513964535845119  1.0000
  C   C23       1.0  0.06789339487768593  0.9295154054168437  0.44870710955652987  1.0000
  C   C24       1.0  0.11974475259312103  0.0580131344637991  0.45020602886688016  1.0000
  C   C25       1.0  0.27730911479790893  0.091905563029357  0.5119816902608536  1.0000
  C   C26       1.0  0.3823186473264003  0.9952708987728801  0.5762456627860929  1.0000
  C   C27       1.0  0.33052348752291033  0.8675567490906743  0.5795135262033212  1.0000
  C   C28       1.0  0.33115522182106355  0.22947027398678443  0.5067539167760557  1.0000
  O   O1        1.0  0.7970685745459888  0.5055795171263782  0.03455006592090367  1.0000
  O   O2        1.0  0.7456951356953142  0.45675709049227464  0.7553983499081199  1.0000
  O   O3        1.0  0.5214921829443427  0.4815134548240821  0.8056646605641262  1.0000
  O   O4        1.0  0.6331313062484156  0.8124031895509987  0.0617902548765343  1.0000
  O   O5        1.0  0.8423239556562693  0.802554045888428  0.034737149371345394  1.0000
  O   O6        1.0  0.13035714744715682  0.47121498871899803  0.9343392992148696  1.0000
  O   O7        1.0  0.4170123258014585  0.5013118393410708  0.051992694763434606  1.0000
  O   O8        1.0  0.28896412309317304  0.48233030571699237  0.22812422732828716  1.0000
  O   O9        1.0  0.2510556224352812  0.1808783299005867  0.9502046509048014  1.0000
  O   O10       1.0  0.135741781135323  0.17293094710700532  0.09823793203364059  1.0000
  O   O11       1.0  0.952861433009737  0.39761024300523934  0.6136190319571639  1.0000
  O   O12       1.0  0.6748039535725425  0.43757849316862263  0.4184380497119307  1.0000
  O   O13       1.0  0.8484278610932564  0.3630639107027848  0.3186754885666616  1.0000
  O   O14       1.0  0.6918593524548414  0.7381532862118976  0.6249201676589422  1.0000
  O   O15       1.0  0.5661727432577094  0.7120203957376888  0.3647718990366826  1.0000
  O   O16       1.0  0.11435562087669382  0.5921072545167477  0.37765067760302173  1.0000
  O   O17       1.0  0.19752888408816457  0.6141014644755387  0.6688762321578494  1.0000
  O   O18       1.0  0.9293740297938199  0.6730742619606503  0.47277473822435184  1.0000
  O   O19       1.0  0.2373473692482762  0.3197077027248127  0.48928749537788724  1.0000
  O   O20       1.0  0.4629794737078897  0.25318161483368584  0.5209433564394176  1.0000
