data_image0
_chemical_formula_structural       Er4H32C24O40
_chemical_formula_sum              "Er4 H32 C24 O40"
_cell_length_a       10.37638288694307
_cell_length_b       10.711934521557867
_cell_length_c       10.711935657313708
_cell_angle_alpha    70.58065366413925
_cell_angle_beta     61.03085910715427
_cell_angle_gamma    61.03085301505071

_space_group_name_H-M_alt    "P 1"
_space_group_IT_number       1

loop_
  _space_group_symop_operation_xyz
  'x, y, z'

loop_
  _atom_site_type_symbol
  _atom_site_label
  _atom_site_symmetry_multiplicity
  _atom_site_fract_x
  _atom_site_fract_y
  _atom_site_fract_z
  _atom_site_occupancy
  Er  Er1       1.0  0.25290371490807234  0.6188644343983966  0.8788167400048008  1.0000
  Er  Er2       1.0  0.7505870258733579  0.38113681894101575  0.12118347953940399  1.0000
  Er  Er3       1.0  0.25058943038704484  0.12118077192425865  0.38113571218791253  1.0000
  Er  Er4       1.0  0.7529051635009052  0.8788171295258066  0.6188655804758413  1.0000
  H   H1        1.0  0.5599119062586695  0.5537533047399138  0.8839747987626865  1.0000
  H   H2        1.0  0.9976433335896929  0.4462460270894438  0.1160268944761711  1.0000
  H   H3        1.0  0.49764142216771756  0.11602467561827007  0.4462483559072935  1.0000
  H   H4        1.0  0.059912344758686224  0.8839747596769956  0.5537534826821329  1.0000
  H   H5        1.0  0.6079885734334954  0.4480302168662147  0.7829616886820715  1.0000
  H   H6        1.0  0.8389821311464517  0.5519722590591554  0.2170379903067143  1.0000
  H   H7        1.0  0.3389824420159544  0.21703549259557772  0.5519725902048691  1.0000
  H   H8        1.0  0.10798959064035785  0.7829630785171985  0.44802938269217657  1.0000
  H   H9        1.0  0.19289373941322197  0.7658430963867175  0.11232410500428357  1.0000
  H   H10       1.0  0.071059114635041  0.2341559390238999  0.8876748638050599  1.0000
  H   H11       1.0  0.5710597262974632  0.887674033120561  0.2341560506967895  1.0000
  H   H12       1.0  0.6928955352646398  0.11232396601076292  0.7658427719605356  1.0000
  H   H13       1.0  0.4815104126426066  0.3138175763403552  0.17054780815360707  1.0000
  H   H14       1.0  0.9658731239060501  0.6861827302221853  0.8294507924697639  1.0000
  H   H15       1.0  0.46587316071430956  0.8294524523444695  0.6861822555324648  1.0000
  H   H16       1.0  0.9815108417416311  0.17054678289220254  0.3138174201712117  1.0000
  H   H17       1.0  0.89835078511625  0.8251240158587124  0.0009747458631466  1.0000
  H   H18       1.0  0.724449968255726  0.1748734922828348  0.999030094129388  1.0000
  H   H19       1.0  0.22445010926014666  0.9990288071205384  0.17487402631116564  1.0000
  H   H20       1.0  0.3983511620479661  0.0009759561986868595  0.8251245091652349  1.0000
  H   H21       1.0  0.11053133269354717  0.6313433992313547  0.30723489033778145  1.0000
  H   H22       1.0  0.0491069379333241  0.36865742828018  0.6927642074043375  1.0000
  H   H23       1.0  0.5491068428273564  0.692764651601216  0.36865886443735  1.0000
  H   H24       1.0  0.6105323145205546  0.3072343447294016  0.6313422384726478  1.0000
  H   H25       1.0  0.32555074967491754  0.43390292863530533  0.3714111098926479  1.0000
  H   H26       1.0  0.13086451645737193  0.5660948318914478  0.6285865467762335  1.0000
  H   H27       1.0  0.6308635364665135  0.6285883986449221  0.5660959757068652  1.0000
  H   H28       1.0  0.8255518020885686  0.37141126255517065  0.4339004613326054  1.0000
  H   H29       1.0  0.9534421692018569  0.032839187686221044  0.8493396488821645  1.0000
  H   H30       1.0  0.835623171785947  0.9671582814042523  0.1506671400246091  1.0000
  H   H31       1.0  0.33562209908986784  0.1506672568441516  0.9671591245841638  1.0000
  H   H32       1.0  0.453442713280495  0.8493392307115286  0.032838133320524286  1.0000
  C   C1        1.0  0.1754678933115059  0.45887064814967715  0.2041566754486794  1.0000
  C   C2        1.0  0.8384953438878573  0.5411298429724384  0.7958435306519432  1.0000
  C   C3        1.0  0.33849315869082364  0.7958476036582028  0.5411270691421065  1.0000
  C   C4        1.0  0.6754699637695294  0.20415250809971033  0.45887206063316194  1.0000
  C   C5        1.0  0.21571262847823647  0.5700440373066868  0.22061689230871906  1.0000
  C   C6        1.0  0.006372422533019132  0.4299551036667424  0.7793832037226877  1.0000
  C   C7        1.0  0.5063726974839324  0.7793832770359899  0.42995548054170735  1.0000
  C   C8        1.0  0.7157147638184683  0.22061603749648354  0.5700423183756199  1.0000
  C   C9        1.0  0.35913741615421196  0.4961787076273935  0.26401406080214673  1.0000
  C   C10       1.0  0.11932951478523542  0.5038202475194211  0.7359846459608689  1.0000
  C   C11       1.0  0.619328206262729  0.7359864249688924  0.5038220953464929  1.0000
  C   C12       1.0  0.8591372763067182  0.26401363594963795  0.4961775431070095  1.0000
  C   C13       1.0  0.4041902294412338  0.6087820724641658  0.2732168025184832  1.0000
  C   C14       1.0  0.28618993448621666  0.39121514831607834  0.7267816439553626  1.0000
  C   C15       1.0  0.7861889816996593  0.7267830102444464  0.3912148974982869  1.0000
  C   C16       1.0  0.9041932441279811  0.2732170446232444  0.6087791021444886  1.0000
  C   C17       1.0  0.1777860904391203  0.9545716315686974  0.8629175090094988  1.0000
  C   C18       1.0  0.9952760729390207  0.04543021696353804  0.13708357995457726  1.0000
  C   C19       1.0  0.4952762550319392  0.13708278795742504  0.045430594739904996  1.0000
  C   C20       1.0  0.6777868401607702  0.8629169179230869  0.9545726443847753  1.0000
  C   C21       1.0  0.005515275677623848  0.9639397223324833  0.929757193954522  1.0000
  C   C22       1.0  0.8992117693065323  0.036058436198395244  0.07024637155068798  1.0000
  C   C23       1.0  0.399212227135706  0.07024617290604594  0.036059513113272594  1.0000
  C   C24       1.0  0.5055145897511223  0.9297574451941055  0.963938677076186  1.0000
  O   O1        1.0  0.5140075265560995  0.5283241205716961  0.838296204944413  1.0000
  O   O2        1.0  0.8806317544064867  0.47167476494676197  0.16170461087425278  1.0000
  O   O3        1.0  0.3806320676174976  0.16170217670415346  0.4716769844710881  1.0000
  O   O4        1.0  0.01400935987770425  0.8382965002834625  0.5283239764260584  1.0000
  O   O5        1.0  0.1743560804514176  0.46540997570915704  0.08320912515239338  1.0000
  O   O6        1.0  0.7229735544049164  0.5345915535502782  0.9167923002788712  1.0000
  O   O7        1.0  0.22297445314561068  0.9167913196864176  0.5345909783275715  1.0000
  O   O8        1.0  0.6743575195790754  0.0832084824587227  0.4654093696190386  1.0000
  O   O9        1.0  0.1494674890750716  0.3647001209091272  0.3101243230027677  1.0000
  O   O10       1.0  0.824290355233316  0.6353004281429336  0.6898748562487711  1.0000
  O   O11       1.0  0.3242887385388615  0.6898726230100464  0.6353034504000519  1.0000
  O   O12       1.0  0.6494672379823854  0.31012478320945996  0.36469680215738254  1.0000
  O   O13       1.0  0.2462843726307042  0.6650202837458251  0.0890303699974382  1.0000
  O   O14       1.0  0.0003332889270879721  0.3349804674678367  0.9109686214547635  1.0000
  O   O15       1.0  0.5003321404067832  0.9109682738696633  0.33498010822611224  1.0000
  O   O16       1.0  0.7462847751175518  0.08903068173559359  0.6650198124264718  1.0000
  O   O17       1.0  0.49688270867421386  0.401867824364494  0.16301708836683557  1.0000
  O   O18       1.0  0.061765246056495644  0.5981327127655546  0.8369815218315678  1.0000
  O   O19       1.0  0.561766058167301  0.8369812950996046  0.5981319842986536  1.0000
  O   O20       1.0  0.9968836031373131  0.16301609867193897  0.40186755394082496  1.0000
  O   O21       1.0  0.5523183670587599  0.5884761790193095  0.2115712990097478  1.0000
  O   O22       1.0  0.3523653661607327  0.4115235140541528  0.7884301158648909  1.0000
  O   O23       1.0  0.8523655159023492  0.7884278421024077  0.4115234055008514  1.0000
  O   O24       1.0  0.05231716798626001  0.2115724044202452  0.5884769338498828  1.0000
  O   O25       1.0  0.29470491552685746  0.7135830146154234  0.3396239598348599  1.0000
  O   O26       1.0  0.34791120687024346  0.2864166137267078  0.6603756230368986  1.0000
  O   O27       1.0  0.8479084797317782  0.6603780088891397  0.286415703824673  1.0000
  O   O28       1.0  0.7947014065969282  0.33962700992744027  0.7135837384194871  1.0000
  O   O29       1.0  0.2896924727118343  0.8336333993478321  0.82467156416277  1.0000
  O   O30       1.0  0.9480014580793679  0.1663650285816799  0.17532729093435506  1.0000
  O   O31       1.0  0.4480002438754696  0.1753272890478569  0.16636605462303322  1.0000
  O   O32       1.0  0.7896922836392547  0.8246719331825572  0.8336338771572969  1.0000
  O   O33       1.0  0.2024145581514105  0.06403068816127444  0.8485753909609811  1.0000
  O   O34       1.0  0.11502332687866364  0.9359690115505827  0.15142458909919299  1.0000
  O   O35       1.0  0.615023464927674  0.15142290970895525  0.9359704951366865  1.0000
  O   O36       1.0  0.7024141427535396  0.8485751329069658  0.0640293382421078  1.0000
  O   O37       1.0  0.010508343041557736  0.8226355981145232  0.9535683477432144  1.0000
  O   O38       1.0  0.7867113502453761  0.17736098782758336  0.046436423707234595  1.0000
  O   O39       1.0  0.2867113944443603  0.04643513809455874  0.17736214017250518  1.0000
  O   O40       1.0  0.5105078370933068  0.9535699473094184  0.8226361825705552  1.0000
