data_image0
_chemical_formula_structural       ZnH26C34N10O10
_chemical_formula_sum              "Zn1 H26 C34 N10 O10"
_cell_length_a       7.668967772793413
_cell_length_b       9.92475244278364
_cell_length_c       11.716459566930627
_cell_angle_alpha    110.76653640791835
_cell_angle_beta     89.76859143771931
_cell_angle_gamma    98.12400808949063

_space_group_name_H-M_alt    "P 1"
_space_group_IT_number       1

loop_
  _space_group_symop_operation_xyz
  'x, y, z'

loop_
  _atom_site_type_symbol
  _atom_site_label
  _atom_site_symmetry_multiplicity
  _atom_site_fract_x
  _atom_site_fract_y
  _atom_site_fract_z
  _atom_site_occupancy
  Zn  Zn1       1.0  0.4999988977451651  0.9999984596602333  0.9999984861210581  1.0000
  H   H1        1.0  0.9827120661810229  0.7955347782207483  0.3575576824704214  1.0000
  H   H2        1.0  0.0172901250794837  0.20446651096228416  0.6424397782451693  1.0000
  H   H3        1.0  0.4415044653990636  0.7538417570622615  0.7678283857827709  1.0000
  H   H4        1.0  0.5585007464999023  0.24615412402571477  0.2321666029543294  1.0000
  H   H5        1.0  0.6944889443100595  0.8074813813036956  0.09499919088492705  1.0000
  H   H6        1.0  0.3055065169509845  0.19251875297248228  0.905001340722265  1.0000
  H   H7        1.0  0.8394076768576115  0.04581313487876319  0.1045073549930464  1.0000
  H   H8        1.0  0.16059658105417907  0.9541849141196155  0.8954899894563441  1.0000
  H   H9        1.0  0.8408316143709058  0.19057623723754347  0.0790774048301017  1.0000
  H   H10       1.0  0.1591690724125527  0.8094239529098817  0.9209231417191647  1.0000
  H   H11       1.0  0.29876933620587215  0.683512963078563  0.6051172566163459  1.0000
  H   H12       1.0  0.701229834416168  0.31649373419952553  0.39488267607774225  1.0000
  H   H13       1.0  0.16379272475988674  0.87305737689028  0.5560281381242405  1.0000
  H   H14       1.0  0.836210021370441  0.1269471780645119  0.4439677386113559  1.0000
  H   H15       1.0  0.0795555641485777  0.3556339287597865  0.289837989907852  1.0000
  H   H16       1.0  0.9204415558864911  0.6443684013624136  0.7101649048826673  1.0000
  H   H17       1.0  0.6368051875249279  0.3843776511002872  0.807577499480175  1.0000
  H   H18       1.0  0.36319233600745104  0.6156192441654939  0.19242376971943292  1.0000
  H   H19       1.0  0.47781520862364607  0.4872445860596741  0.6794021843411501  1.0000
  H   H20       1.0  0.5221862428104417  0.512752348761019  0.3205973883477711  1.0000
  H   H21       1.0  0.5879341204390017  0.7808249118899013  0.3434022484361279  1.0000
  H   H22       1.0  0.41206786396516293  0.2191752945738585  0.6566000095658923  1.0000
  H   H23       1.0  0.27802163569720767  0.4036781292984699  0.4777634757539175  1.0000
  H   H24       1.0  0.7219764339450949  0.5963220340875922  0.5222379171829274  1.0000
  H   H25       1.0  0.754545185462867  0.3030635267851808  0.9384283296675165  1.0000
  H   H26       1.0  0.24545269922283816  0.696935548010295  0.06157359126266479  1.0000
  C   C1        1.0  0.21568669188211942  0.654971168530679  0.5223421319362133  1.0000
  C   C2        1.0  0.7843117520533482  0.345031170862292  0.477657351155358  1.0000
  C   C3        1.0  0.14094778533475963  0.7599430207179412  0.4942866435614803  1.0000
  C   C4        1.0  0.8590545821224611  0.24005935940419929  0.50571199687802  1.0000
  C   C5        1.0  0.04004799937459322  0.717183740898122  0.3856597382739509  1.0000
  C   C6        1.0  0.9599519315181341  0.28281970222750624  0.614340074418422  1.0000
  C   C7        1.0  0.013813495765511245  0.5699489260559647  0.3090135483637796  1.0000
  C   C8        1.0  0.9861851243666637  0.4300545042761145  0.6909871144516943  1.0000
  C   C9        1.0  0.09255772903574672  0.4714991499888939  0.345178907125451  1.0000
  C   C10       1.0  0.9074405211832188  0.528502103162012  0.654822811676688  1.0000
  C   C11       1.0  0.9134695300540229  0.5245523453447731  0.19278126677998134  1.0000
  C   C12       1.0  0.08652853958828641  0.475447818041289  0.8072201261568637  1.0000
  C   C13       1.0  0.7725961468429148  0.5377764859281271  0.0424274473153474  1.0000
  C   C14       1.0  0.2274017422227318  0.4622225876930842  0.957573619756211  1.0000
  C   C15       1.0  0.6808214066910948  0.5894679753479012  0.961100908786996  1.0000
  C   C16       1.0  0.31917613874102113  0.41052891404657293  0.0388960911195184  1.0000
  C   C17       1.0  0.6167547237464533  0.49838231411874995  0.8430079477481272  1.0000
  C   C18       1.0  0.38324132596849836  0.5016134738915882  0.1569904302748171  1.0000
  C   C19       1.0  0.5284969592157369  0.55554796671467  0.7714999995127556  1.0000
  C   C20       1.0  0.4715035557509567  0.4444511313193831  0.22849851345398522  1.0000
  C   C21       1.0  0.5063454822816523  0.701248935730426  0.8192445151931906  1.0000
  C   C22       1.0  0.4936572930528201  0.29874800836103793  0.18075164579677516  1.0000
  C   C23       1.0  0.6506282132293608  0.7345303354473743  0.0026920056785897564  1.0000
  C   C24       1.0  0.34937081478007315  0.26546765885402124  0.9973061776873494  1.0000
  C   C25       1.0  0.41814761635436787  0.9287189269343304  0.2390460242260701  1.0000
  C   C26       1.0  0.5818491337674986  0.0712812260067039  0.7609579265511146  1.0000
  C   C27       1.0  0.45817606045858383  0.9690471806525524  0.3747548994051684  1.0000
  C   C28       1.0  0.541828360510074  0.030951962807719707  0.6252461863439862  1.0000
  C   C29       1.0  0.547882842029587  0.8771857381402697  0.4118448544414904  1.0000
  C   C30       1.0  0.4521208230483397  0.12281665829820552  0.5881554974507638  1.0000
  C   C31       1.0  0.40973773901291116  0.09374459666753408  0.4645469885004587  1.0000
  C   C32       1.0  0.5902657279685714  0.9062567147031472  0.535456452960986  1.0000
  C   C33       1.0  0.31248993495390925  0.19465021787106454  0.42868197377220707  1.0000
  C   C34       1.0  0.6875089343785988  0.8053466807941804  0.571311614435352  1.0000
  N   N1        1.0  0.5648385470619176  0.7887071173501141  0.9333593647632767  1.0000
  N   N2        1.0  0.4351617873281128  0.2112908909190949  0.06663882233817732  1.0000
  N   N3        1.0  0.8449665913135151  0.6205419538816346  0.15345355407485073  1.0000
  N   N4        1.0  0.1550327890893399  0.3794582222979771  0.8465469887389007  1.0000
  N   N5        1.0  0.885512239423875  0.3865201782524751  0.11169378188877493  1.0000
  N   N6        1.0  0.11448713221908241  0.6134800002756577  0.888308468642208  1.0000
  N   N7        1.0  0.7967169733727032  0.3976076843330176  0.016966915563955406  1.0000
  N   N8        1.0  0.20328109188965027  0.6023924802273088  0.9830353312315125  1.0000
  N   N9        1.0  0.19167147369357457  0.5141412381765706  0.4490762308665098  1.0000
  N   N10       1.0  0.8083247098741071  0.4858632551589891  0.5509256042018293  1.0000
  O   O1        1.0  0.5098399413217437  0.0048162058371162  0.18624316311549904  1.0000
  O   O2        1.0  0.49015497820932563  0.9951806591445161  0.8137563908958397  1.0000
  O   O3        1.0  0.3055788605273051  0.8166512509154915  0.1898419645941871  1.0000
  O   O4        1.0  0.6944139704527504  0.18334886012210924  0.8101619749764454  1.0000
  O   O5        1.0  0.209900397978636  0.1524976250395724  0.3379609921567734  1.0000
  O   O6        1.0  0.7901172542328825  0.8475027513864434  0.6620430183887009  1.0000
  O   O7        1.0  0.3499659654494919  0.33243729902480373  0.504481430870584  1.0000
  O   O8        1.0  0.6500347213339664  0.6675628911226212  0.4955191156786825  1.0000
  O   O9        1.0  0.7943124797637611  0.08426977896548489  0.04667684958965881  1.0000
  O   O10       1.0  0.20568784586637887  0.9157282316522455  0.9533230452290341  1.0000
