data_image0
_chemical_formula_structural       Ag8H24C44N12O16F12
_chemical_formula_sum              "Ag8 H24 C44 N12 O16 F12"
_cell_length_a       7.298015435
_cell_length_b       10.942225745160574
_cell_length_c       17.0967
_cell_angle_alpha    90.0
_cell_angle_beta     90.0
_cell_angle_gamma    91.99317487071765

_space_group_name_H-M_alt    "P 1"
_space_group_IT_number       1

loop_
  _space_group_symop_operation_xyz
  'x, y, z'

loop_
  _atom_site_type_symbol
  _atom_site_label
  _atom_site_symmetry_multiplicity
  _atom_site_fract_x
  _atom_site_fract_y
  _atom_site_fract_z
  _atom_site_occupancy
  Ag  Ag1       1.0  0.4626119916594362  0.7430836854801725  0.1483180964747604  1.0000
  Ag  Ag2       1.0  0.03740015560340741  0.2569185595715595  0.6483163417501601  1.0000
  Ag  Ag3       1.0  0.5373951304763409  0.25692130290389054  0.8516854129744331  1.0000
  Ag  Ag4       1.0  0.9626024743357463  0.7430791132596184  0.3516859978826332  1.0000
  Ag  Ag5       1.0  0.2740816993984083  0.0073374995444198  0.8285692560552607  1.0000
  Ag  Ag6       1.0  0.2259194382939924  0.9926638310632043  0.3285680862388674  1.0000
  Ag  Ag7       1.0  0.7259120415200118  0.9926473710692106  0.1714289892201393  1.0000
  Ag  Ag8       1.0  0.7740781875656354  0.0073429862090818995  0.6714307439447396  1.0000
  H   H1        1.0  0.11034777285046003  0.1603880103556961  0.1014651950376404  1.0000
  H   H2        1.0  0.3896530787243933  0.8396078335872658  0.6014657799458405  1.0000
  H   H3        1.0  0.889638271203637  0.8396069191431579  0.8985266162475796  1.0000
  H   H4        1.0  0.6103469538024839  0.1603925825762502  0.3985348049623597  1.0000
  H   H5        1.0  0.4794491587560259  0.7485173123860774  0.32146964033994874  1.0000
  H   H6        1.0  0.020564358742341  0.2514849326656616  0.821464376166162  1.0000
  H   H7        1.0  0.5205702478132112  0.2514867615538847  0.678535623833838  1.0000
  H   H8        1.0  0.9794455992369961  0.7485218846066317  0.1785367936502382  1.0000
  H   H9        1.0  0.6662112786066389  0.4036786093451923  0.4062860084109801  1.0000
  H   H10       1.0  0.8337971450308643  0.5963190634859927  0.9062854235027802  1.0000
  H   H11       1.0  0.333800895294921  0.5963181490418847  0.5937122368644268  1.0000
  H   H12       1.0  0.16620459153533326  0.4036877537862935  0.0937116519562267  1.0000
  H   H13       1.0  0.5442015876604742  0.6141004292189507  0.4329145390630913  1.0000
  H   H14       1.0  0.955810946683606  0.38589724361223426  0.9329110296139049  1.0000
  H   H15       1.0  0.4558189030267457  0.3858981580563423  0.567087800569702  1.0000
  H   H16       1.0  0.04419641388345501  0.6141123169923901  0.06708897038609511  1.0000
  H   H17       1.0  0.6486207952555674  0.4917935294100957  0.1605420929185186  1.0000
  H   H18       1.0  0.8513837084203928  0.5082078011975284  0.6605391683775252  1.0000
  H   H19       1.0  0.35137942801633676  0.5082105445298595  0.8394573221732886  1.0000
  H   H20       1.0  0.1486163241064844  0.4917926149659877  0.33945849198968153  1.0000
  H   H21       1.0  0.7180194629917764  0.3429467181758028  0.26648183567589  1.0000
  H   H22       1.0  0.7819835750761542  0.6570527835435982  0.7664806658594898  1.0000
  H   H23       1.0  0.2819848233004408  0.6570564413200444  0.7335152397831166  1.0000
  H   H24       1.0  0.21801376466593334  0.3429485470640259  0.2335158246913167  1.0000
  C   C1        1.0  0.23421685945302784  0.0218570431344389  0.0064094240408963  1.0000
  C   C2        1.0  0.2657868279653925  0.9781406296967461  0.5064100089490964  1.0000
  C   C3        1.0  0.7657716389545827  0.9781323996997456  0.9935888212345106  1.0000
  C   C4        1.0  0.7342188762486046  0.021863444243216196  0.4935888212345105  1.0000
  C   C5        1.0  0.534679257936908  0.6590215817139793  0.31130861511285707  1.0000
  C   C6        1.0  0.9653320969166759  0.3409797488936448  0.8113045207554705  1.0000
  C   C7        1.0  0.4653346676902288  0.3409824922259759  0.6886954792445295  1.0000
  C   C8        1.0  0.0346737026698349  0.6590261539345335  0.1886972339691297  1.0000
  C   C9        1.0  0.6386277442896713  0.46672770189113777  0.3587511040142246  1.0000
  C   C10       1.0  0.8613807270340887  0.5332708853841552  0.8587487643814314  1.0000
  C   C11       1.0  0.3613791394148222  0.5332727142723712  0.6412465563529822  1.0000
  C   C12       1.0  0.1386222843951188  0.466734102999915  0.1412488959857754  1.0000
  C   C13       1.0  0.2622047101783664  0.9604507083748572  0.0774061661022287  1.0000
  C   C14       1.0  0.23780460124091718  0.0395497077886588  0.5774067510104288  1.0000
  C   C15       1.0  0.7377854445823075  0.039544221123989594  0.9225920791731712  1.0000
  C   C16       1.0  0.7621996850513001  0.9604534517071883  0.4225926640813711  1.0000
  C   C17       1.0  0.5714619347728487  0.5821131742259524  0.3738733205823337  1.0000
  C   C18       1.0  0.9285480021589478  0.4178872419375637  0.8738715658577405  1.0000
  C   C19       1.0  0.428551847795518  0.41788815638167154  0.6261266794176663  1.0000
  C   C20       1.0  0.0714564271920395  0.5821186608906146  0.1261266794176663  1.0000
  C   C21       1.0  0.6278331914084916  0.5145531288818148  0.2216796223832702  1.0000
  C   C22       1.0  0.872172825561762  0.4854509450581403  0.72167845256687  1.0000
  C   C23       1.0  0.37216854515769887  0.48545368839047137  0.7783203776167298  1.0000
  C   C24       1.0  0.1278286248868952  0.5145503855494836  0.2783203776167298  1.0000
  C   C25       1.0  0.6673075481695889  0.4326363109993707  0.2810928424783726  1.0000
  C   C26       1.0  0.8327009231541781  0.5673622762759223  0.7810916726619723  1.0000
  C   C27       1.0  0.3326992401623913  0.5673622762759223  0.7189059877052274  1.0000
  C   C28       1.0  0.1672992047452126  0.4326399687758169  0.21890481788883426  1.0000
  C   C29       1.0  0.3474364528824054  0.846235724501767  0.9819912614715137  1.0000
  C   C30       1.0  0.1525644463787117  0.1537610338853028  0.4819924312879067  1.0000
  C   C31       1.0  0.652557526467298  0.1537537183324176  0.018010493253086707  1.0000
  C   C32       1.0  0.8474386604230093  0.8462457833869834  0.5180104932530867  1.0000
  C   C33       1.0  0.16618472557943423  0.1447510160623722  0.9886808565395668  1.0000
  C   C34       1.0  0.3338062959154726  0.8552402556600356  0.4886808565395668  1.0000
  C   C35       1.0  0.833806322554196  0.8552347689953663  0.0113150491030467  1.0000
  C   C36       1.0  0.6662006354752776  0.1447610749475956  0.5113173887358401  1.0000
  C   C37       1.0  0.3991640272708281  0.7348482018190268  0.9374148227435698  1.0000
  C   C38       1.0  0.1008342745780126  0.2651512999003742  0.4374154076517698  1.0000
  C   C39       1.0  0.6008285341570955  0.2651403265710499  0.0625898565220169  1.0000
  C   C40       1.0  0.8991592405750455  0.734855517371912  0.5625898565220169  1.0000
  C   C41       1.0  0.22269184650932064  0.9978533013915438  0.1585750466464262  1.0000
  C   C42       1.0  0.2773160946744397  0.0021471147719723  0.6585768013710266  1.0000
  C   C43       1.0  0.7773011440949062  0.0021434569955261  0.8414231986289735  1.0000
  C   C44       1.0  0.7226839378524377  0.9978533013915438  0.3414231986289735  1.0000
  N   N1        1.0  0.3360762078187279  0.8498953298328686  0.06058479121701771  1.0000
  N   N2        1.0  0.1639289452077293  0.1501041718865324  0.5605847912170177  1.0000
  N   N3        1.0  0.663915221804956  0.1500977707777551  0.9394163785993753  1.0000
  N   N4        1.0  0.8360726006134414  0.8498989876093148  0.4394152087829823  1.0000
  N   N5        1.0  0.5617923908163507  0.6260769037370578  0.23628887446115243  1.0000
  N   N6        1.0  0.93821759380171  0.3739244268705662  0.7362853650119591  1.0000
  N   N7        1.0  0.4382174241042165  0.3739271702029042  0.7637128802634408  1.0000
  N   N8        1.0  0.06178390433320401  0.6260778181811659  0.2637134651716408  1.0000
  N   N9        1.0  0.2895375473465407  0.9477737696679397  0.946755221767944  1.0000
  N   N10       1.0  0.2104619816790532  0.052222988719130094  0.4467552217679441  1.0000
  N   N11       1.0  0.7104535007870895  0.0522120153898058  0.0532453631402561  1.0000
  N   N12       1.0  0.7895438655937143  0.9477838285531561  0.553244193323856  1.0000
  O   O1        1.0  0.10034514232754792  0.2085536105555619  0.0469558452800811  1.0000
  O   O2        1.0  0.399647630892936  0.7914449767197311  0.5469605245456748  1.0000
  O   O3        1.0  0.899643594511339  0.791440404499177  0.9530342112805386  1.0000
  O   O4        1.0  0.6003513652022152  0.2085618405525551  0.4530423999953186  1.0000
  O   O5        1.0  0.1724882094251114  0.1862484898068644  0.9211713371586328  1.0000
  O   O6        1.0  0.32748499900799294  0.8137427819155434  0.4211754315160263  1.0000
  O   O7        1.0  0.8275055791795651  0.8137372952508741  0.0788198892183871  1.0000
  O   O8        1.0  0.6725222661865544  0.1862649498008579  0.5788257383003739  1.0000
  O   O9        1.0  0.13749159498209454  0.0957386406159841  0.17075283534249053  1.0000
  O   O10       1.0  0.36251336729933575  0.9042572033269778  0.6707540051588909  1.0000
  O   O11       1.0  0.8624930788364865  0.9042562888828697  0.829242485391916  1.0000
  O   O12       1.0  0.6374851519332481  0.0957404695042072  0.3292459948411093  1.0000
  O   O13       1.0  0.2752319522692019  0.9274822548510571  0.2132247743716604  1.0000
  O   O14       1.0  0.22478161291542162  0.0725209046447901  0.7132259441880606  1.0000
  O   O15       1.0  0.7247711068462621  0.0725236479771212  0.7867740558119394  1.0000
  O   O16       1.0  0.7752169540034187  0.9274776826305028  0.2867746407201395  1.0000
  F   F1        1.0  0.488220760141175  0.7639814767424653  0.8694894336333903  1.0000
  F   F2        1.0  0.0117694633532892  0.2360207683092668  0.3694923581743836  1.0000
  F   F3        1.0  0.5117770914838147  0.23600339387116517  0.1305146607239962  1.0000
  F   F4        1.0  0.9882230630542992  0.7639933645159047  0.6305117361830028  1.0000
  F   F5        1.0  0.5087919122483414  0.6611860709240531  0.9797066100475503  1.0000
  F   F6        1.0  0.9912098032703156  0.3388143452394559  0.47971070440494407  1.0000
  F   F7        1.0  0.4911895919228755  0.3388006285778005  0.0202986541262362  1.0000
  F   F8        1.0  0.0087847483144685  0.6611860709240531  0.5202992390344363  1.0000
  F   F9        1.0  0.24737629123188046  0.6640363932171738  0.9170097153251788  1.0000
  F   F10       1.0  0.25262064038143  0.3359631085022343  0.4170103002333789  1.0000
  F   F11       1.0  0.7526097528222166  0.3359585362816802  0.0829914544912143  1.0000
  F   F12       1.0  0.7473733039479313  0.6640519387670523  0.5829955488486078  1.0000
