data_image0
_chemical_formula_structural       Ba2H28C40N12Cl4O16
_chemical_formula_sum              "Ba2 H28 C40 N12 Cl4 O16"
_cell_length_a       8.156050687500622
_cell_length_b       8.957318654000504
_cell_length_c       15.865539934136567
_cell_angle_alpha    89.9999683910012
_cell_angle_beta     102.70982048936793
_cell_angle_gamma    89.99998559706388

_space_group_name_H-M_alt    "P 1"
_space_group_IT_number       1

loop_
  _space_group_symop_operation_xyz
  'x, y, z'

loop_
  _atom_site_type_symbol
  _atom_site_label
  _atom_site_symmetry_multiplicity
  _atom_site_fract_x
  _atom_site_fract_y
  _atom_site_fract_z
  _atom_site_occupancy
  Ba  Ba1       1.0  3.4694771499996833e-07  0.8271637072934508  0.24999960028426227  1.0000
  Ba  Ba2       1.0  2.810377779000029e-07  0.1728359541007194  0.7500003347170008  1.0000
  H   H1        1.0  0.4077356392429365  0.3403963042731775  0.3236527526906769  1.0000
  H   H2        1.0  0.5922669208174085  0.3403985880430512  0.17634846400707718  1.0000
  H   H3        1.0  0.5922666455518026  0.6596021266183526  0.6763477626476728  1.0000
  H   H4        1.0  0.40773410709572033  0.6596020756597339  0.8236519090632441  1.0000
  H   H5        1.0  0.9908590915079215  0.4809015590136241  0.1100825754507042  1.0000
  H   H6        1.0  0.009140894673450398  0.4809026506261062  0.3899170455826351  1.0000
  H   H7        1.0  0.0091419364056833  0.5190968718781193  0.8899177976200151  1.0000
  H   H8        1.0  0.9908588763587859  0.5190968966713712  0.6100831852202617  1.0000
  H   H9        1.0  0.45859391044049147  0.10496285882497598  0.8581838101336174  1.0000
  H   H10       1.0  0.5414058243759001  0.1049640715585696  0.6418159189940412  1.0000
  H   H11       1.0  0.5414046039311059  0.89503668847302  0.141815648129743  1.0000
  H   H12       1.0  0.4585939466560944  0.8950365921444292  0.35818431180865673  1.0000
  H   H13       1.0  0.8780363515530426  0.9679759365467077  0.04329616997727473  1.0000
  H   H14       1.0  0.12196468158001039  0.967975820707899  0.45670341796443387  1.0000
  H   H15       1.0  0.121964676580582  0.0320247271563829  0.9567035728211337  1.0000
  H   H16       1.0  0.8780350896729631  0.032022610184363  0.5432961825667492  1.0000
  H   H17       1.0  0.6277673299943842  0.914094454732222  0.9243048358962298  1.0000
  H   H18       1.0  0.3722320560851741  0.914095770719932  0.5756946019229404  1.0000
  H   H19       1.0  0.3722324414788432  0.08590509256586638  0.07569413436284123  1.0000
  H   H20       1.0  0.6277677149468204  0.0859048929830593  0.42430562887975753  1.0000
  H   H21       1.0  0.5015093557428258  0.3621614568834772  0.893801159912087  1.0000
  H   H22       1.0  0.49848901111898414  0.36216271423483454  0.6061989646216405  1.0000
  H   H23       1.0  0.4984891584080345  0.6378392068197344  0.10619892862298032  1.0000
  H   H24       1.0  0.5015095032523716  0.6378379494686823  0.393800493641514  1.0000
  H   H25       1.0  0.7466101067810911  0.4385586061654152  0.012123029023392504  1.0000
  H   H26       1.0  0.25338989765018033  0.43855954626216226  0.4878766072545417  1.0000
  H   H27       1.0  0.2533909213527678  0.5614409411321547  0.9878767137752149  1.0000
  H   H28       1.0  0.7466086169421544  0.5614388846306184  0.5121222207371048  1.0000
  C   C1        1.0  0.3127393012327743  0.11828522485941312  0.28071583843347986  1.0000
  C   C2        1.0  0.6872608412362452  0.11828856137679367  0.21928391315078946  1.0000
  C   C3        1.0  0.6872592131395477  0.8817109732220202  0.7192836198304848  1.0000
  C   C4        1.0  0.31274018689737915  0.8817121023262972  0.780715829647619  1.0000
  C   C5        1.0  0.1892738375053327  0.2028507564861499  0.2150058794705387  1.0000
  C   C6        1.0  0.8107262685163263  0.2028517677707384  0.2849938416683457  1.0000
  C   C7        1.0  0.8107271906285262  0.7971487908114199  0.7849938633280686  1.0000
  C   C8        1.0  0.18927350273616383  0.7971488959325655  0.7150057588624323  1.0000
  C   C9        1.0  0.17348497642216645  0.3580690898159844  0.20211664935137466  1.0000
  C   C10       1.0  0.8265150622591975  0.3580700848946634  0.2978842764486984  1.0000
  C   C11       1.0  0.8265160510502129  0.6419304574806544  0.7978849842629716  1.0000
  C   C12       1.0  0.17348470899329274  0.6419305788086405  0.7021153240820867  1.0000
  C   C13       1.0  0.26497003090174326  0.48819951777137055  0.24704117559853964  1.0000
  C   C14       1.0  0.7350249243913539  0.4881905300026902  0.2529585040105644  1.0000
  C   C15       1.0  0.7350247123830654  0.511811193581856  0.7529591164037513  1.0000
  C   C16       1.0  0.2649748473026108  0.51180790089019  0.7470398359767998  1.0000
  C   C17       1.0  0.9767508114871787  0.23890838445618104  0.10803249939991838  1.0000
  C   C18       1.0  0.0232505360954463  0.2389083544393102  0.39196672075318884  1.0000
  C   C19       1.0  0.023251473527814405  0.7610911628411755  0.8919673856663194  1.0000
  C   C20       1.0  0.9767504922591501  0.761090076453044  0.6080323917737118  1.0000
  C   C21       1.0  0.8331748569278403  0.2086817557624485  0.03764669164097971  1.0000
  C   C22       1.0  0.1668252465806574  0.2086827405683493  0.4623530273986063  1.0000
  C   C23       1.0  0.1668261712060257  0.791317791535121  0.9623530511576277  1.0000
  C   C24       1.0  0.8331745246720742  0.7913168067294335  0.5376465731323847  1.0000
  C   C25       1.0  0.7993030848712053  0.05944514743518431  0.012583076106565696  1.0000
  C   C26       1.0  0.2006970829584773  0.05944610000584301  0.48741669666209486  1.0000
  C   C27       1.0  0.2006966863815265  0.9405543998625983  0.9874165244244183  1.0000
  C   C28       1.0  0.7993039451753889  0.9405534472917266  0.5125830461365197  1.0000
  C   C29       1.0  0.6628191103520606  0.026595590078386497  0.9471284810714025  1.0000
  C   C30       1.0  0.3371806582409461  0.0265958199747303  0.5528712762706931  1.0000
  C   C31       1.0  0.33718066090042953  0.9734050736249175  0.0528711194593825  1.0000
  C   C32       1.0  0.6628203698926781  0.9734048437283603  0.4471284665277153  1.0000
  C   C33       1.0  0.5900803013809438  0.28158039515161454  0.9296290689111333  1.0000
  C   C34       1.0  0.4099193573130293  0.28158170774501207  0.570370596629587  1.0000
  C   C35       1.0  0.4099194696512924  0.7184191521458629  0.0703711618917566  1.0000
  C   C36       1.0  0.5900804139397025  0.718417839552771  0.4296290039013968  1.0000
  C   C37       1.0  0.7259065885635463  0.32092917679659644  0.9947911554728679  1.0000
  C   C38       1.0  0.27409431005240487  0.3209294676910091  0.5052086381690728  1.0000
  C   C39       1.0  0.274094439570078  0.6790714869064942  0.005208587325540697  1.0000
  C   C40       1.0  0.7259054612005684  0.679068963201253  0.4947909623621101  1.0000
  N   N1        1.0  0.06607855892139011  0.1313628878882795  0.15673503672250186  1.0000
  N   N2        1.0  0.9339215781323913  0.13136269768110503  0.3432640798821964  1.0000
  N   N3        1.0  0.9339224692122342  0.868637775814811  0.8432647060759139  1.0000
  N   N4        1.0  0.06607819334082879  0.8686368496169833  0.6567348903768817  1.0000
  N   N5        1.0  0.0383634339622532  0.376808004985463  0.1344507376385593  1.0000
  N   N6        1.0  0.9616365970838601  0.3768077866652035  0.36554892087140445  1.0000
  N   N7        1.0  0.9616388508322447  0.6231915423115877  0.8655497776995845  1.0000
  N   N8        1.0  0.03836191706724179  0.623191760632487  0.6344511676638618  1.0000
  N   N9        1.0  0.5620057106978108  0.13684959739307345  0.9075379824019335  1.0000
  N   N10       1.0  0.43799401037533403  0.1368508819804859  0.5924617352456565  1.0000
  N   N11       1.0  0.4379940603344251  0.863149949904404  0.0924622484009632  1.0000
  N   N12       1.0  0.5620057608773904  0.863148665317297  0.40753786528533453  1.0000
  Cl  Cl1       1.0  0.1398768109616881  0.6834308584731943  0.4292589026797131  1.0000
  Cl  Cl2       1.0  0.8601205741672331  0.6834309515661798  0.0707403609027253  1.0000
  Cl  Cl3       1.0  0.8601217034099093  0.3165686888248018  0.5707405555836473  1.0000
  Cl  Cl4       1.0  0.1398779402043644  0.316568595731816  0.9292590973606281  1.0000
  O   O1        1.0  0.3008266279334181  0.9770846382089572  0.282299438473828  1.0000
  O   O2        1.0  0.6991731441721214  0.9770846243396316  0.2177006341927807  1.0000
  O   O3        1.0  0.699171886217208  0.022917141899767995  0.7177006500610404  1.0000
  O   O4        1.0  0.3008291410628843  0.0229171557690719  0.7822986206011465  1.0000
  O   O5        1.0  0.42510297396306373  0.19179602412744154  0.3336069842468419  1.0000
  O   O6        1.0  0.5748983937045367  0.1917960887829082  0.1663928831398422  1.0000
  O   O7        1.0  0.5748993110519294  0.8082035231699152  0.6663929008193961  1.0000
  O   O8        1.0  0.42510137754819505  0.8082034585148747  0.8336067173911418  1.0000
  O   O9        1.0  0.3877765242741305  0.4606722602448203  0.3136837505721601  1.0000
  O   O10       1.0  0.6122234699643627  0.4606745297131311  0.1863177685597748  1.0000
  O   O11       1.0  0.6122245029779946  0.5393261706459995  0.6863185133142977  1.0000
  O   O12       1.0  0.38777504418626313  0.5393272503956013  0.8136823199750935  1.0000
  O   O13       1.0  0.222713159740799  0.6167781914529584  0.22212952774633277  1.0000
  O   O14       1.0  0.7772892803156708  0.6167847993587332  0.2778741105336096  1.0000
  O   O15       1.0  0.7772903806130671  0.38321577381442745  0.7778749114919208  1.0000
  O   O16       1.0  0.2227104902748565  0.3832180971546891  0.7221273808125093  1.0000
