data_image0
_chemical_formula_structural       Cd2H56C76N4O10
_chemical_formula_sum              "Cd2 H56 C76 N4 O10"
_cell_length_a       9.968264447680925
_cell_length_b       10.261900150564285
_cell_length_c       15.8366
_cell_angle_alpha    76.20375728178337
_cell_angle_beta     74.07952320811974
_cell_angle_gamma    75.24399229885336

_space_group_name_H-M_alt    "P 1"
_space_group_IT_number       1

loop_
  _space_group_symop_operation_xyz
  'x, y, z'

loop_
  _atom_site_type_symbol
  _atom_site_label
  _atom_site_symmetry_multiplicity
  _atom_site_fract_x
  _atom_site_fract_y
  _atom_site_fract_z
  _atom_site_occupancy
  Cd  Cd1       1.0  0.3087799736185559  0.199489988977902  0.48055283219997585  1.0000
  Cd  Cd2       1.0  0.6912173555361179  0.8005063270327781  0.5194477561991704  1.0000
  H   H1        1.0  0.1542254104341012  0.0153212639853564  0.6580689214676525  1.0000
  H   H2        1.0  0.8457735368333201  0.984682224901718  0.3419321735067414  1.0000
  H   H3        1.0  0.5625665303914927  0.1417678032128364  0.3107392577584918  1.0000
  H   H4        1.0  0.43742953964040515  0.8582295374944735  0.6892626525948771  1.0000
  H   H5        1.0  0.13970962777186455  0.9537947944368527  0.820141748807309  1.0000
  H   H6        1.0  0.8602907945438999  0.0462066450569694  0.1798581452728811  1.0000
  H   H7        1.0  0.575329669132536  0.341466830302906  0.8676174620564155  1.0000
  H   H8        1.0  0.4246697099860057  0.658534609190923  0.13238198069199564  1.0000
  H   H9        1.0  0.4170862038802739  0.2877471095677251  0.6223261293611841  1.0000
  H   H10       1.0  0.5829150457071465  0.7122553546227266  0.37767346354209497  1.0000
  H   H11       1.0  0.42647229681177384  0.5767361514488627  0.6363995403221594  1.0000
  H   H12       1.0  0.5735216503950938  0.423266312741589  0.3636006819507073  1.0000
  H   H13       1.0  0.41640798150893227  0.2362714744483725  0.7840340233925076  1.0000
  H   H14       1.0  0.5835945272012708  0.7637299650454494  0.21596551045389129  1.0000
  H   H15       1.0  0.23063025631776674  0.8554474861488117  0.3250749070477639  1.0000
  H   H16       1.0  0.7693716410463409  0.1445519039517507  0.6749263119328859  1.0000
  H   H17       1.0  0.1459105251017974  0.3522568857982122  0.32758589940453214  1.0000
  H   H18       1.0  0.8540886016605994  0.6477507018753812  0.672412005418245  1.0000
  H   H19       1.0  0.9433095375350149  0.6065199836451214  0.1413010933250831  1.0000
  H   H20       1.0  0.05669066885518247  0.3934824805453303  0.8586986796950882  1.0000
  H   H21       1.0  0.6157447564651619  0.4189953771951096  0.7044509894948446  1.0000
  H   H22       1.0  0.38425109764117593  0.5810029882088301  0.2955470111064997  1.0000
  H   H23       1.0  0.34834544335006973  0.1180173847636254  0.9280378425154865  1.0000
  H   H24       1.0  0.6516595836056993  0.881982005336944  0.0719615732171448  1.0000
  H   H25       1.0  0.06606795856740179  0.7768716993025535  0.034186939475318895  1.0000
  H   H26       1.0  0.9339345501428014  0.2231297401912684  0.9658144887170862  1.0000
  H   H27       1.0  0.18257608702754882  0.4195835530597165  0.16424691365531163  1.0000
  H   H28       1.0  0.81742203296821  0.5804189111307352  0.8357525881499798  1.0000
  H   H29       1.0  0.6177123324617996  0.1974160030023597  0.14385835218787693  1.0000
  H   H30       1.0  0.3822853921134168  0.8025833870982098  0.8561429558116842  1.0000
  H   H31       1.0  0.15382163331337756  0.9152610777321045  0.9563509796393602  1.0000
  H   H32       1.0  0.8461825663707286  0.0847372876718353  0.0436493687188459  1.0000
  H   H33       1.0  0.9157159677250704  0.7512604317764655  0.9132741013136041  1.0000
  H   H34       1.0  0.0842813249990257  0.2487410077173564  0.0867263331172623  1.0000
  H   H35       1.0  0.18665306194984047  0.7174157268425176  0.6523789200236934  1.0000
  H   H36       1.0  0.8133448421203581  0.2825877620445638  0.34762046072158637  1.0000
  H   H37       1.0  0.09334571322294488  0.5812130510176203  0.9830194179685351  1.0000
  H   H38       1.0  0.9066515795011512  0.4187883884762016  0.016981016462331407  1.0000
  H   H39       1.0  0.352906237525616  0.08052680922642  0.06011445526218749  1.0000
  H   H40       1.0  0.6470979621584902  0.9194715561775196  0.9398858930960187  1.0000
  H   H41       1.0  0.9487056222947388  0.5612386396434488  0.3031562726409192  1.0000
  H   H42       1.0  0.051290627232134484  0.43876279985037314  0.6968449733555104  1.0000
  H   H43       1.0  0.08035637825068422  0.6879997607357993  0.35494543954587243  1.0000
  H   H44       1.0  0.919642605447315  0.3119986046681404  0.6450564408454724  1.0000
  H   H45       1.0  0.22853636702325286  0.44174671643179414  0.030997545206631102  1.0000
  H   H46       1.0  0.7714638393669517  0.5582557477586576  0.9690034907108824  1.0000
  H   H47       1.0  0.9592262530854542  0.8215956083384697  0.7478666176468493  1.0000
  H   H48       1.0  0.0407697805158591  0.178406855851982  0.25213387584090446  1.0000
  H   H49       1.0  0.5474327742934121  0.3145490745758153  0.007239035864230939  1.0000
  H   H50       1.0  0.4525662094045869  0.6854492908281244  0.9927596872837655  1.0000
  H   H51       1.0  0.3584498077104854  0.0288226667589768  0.2190608219286077  1.0000
  H   H52       1.0  0.6415485282108264  0.9711787727348522  0.7809413267313728  1.0000
  H   H53       1.0  0.019057611697086  0.1844074793069268  0.4789719383419139  1.0000
  H   H54       1.0  0.9809438902464791  0.8155888367037605  0.5210285610383281  1.0000
  H   H55       1.0  0.9921299026384246  0.3451690592207157  0.47821589844530615  1.0000
  H   H56       1.0  0.007868253787911806  0.6548282814865942  0.5217850202256072  1.0000
  C   C1        1.0  0.2107139018932571  0.06227081409779339  0.6889056812313115  1.0000
  C   C2        1.0  0.7892840021769416  0.9377326747892809  0.31109622530864545  1.0000
  C   C3        1.0  0.4813686496038231  0.2010393302797908  0.2747785603177774  1.0000
  C   C4        1.0  0.5186257294541718  0.7989610845174013  0.725222535523784  1.0000
  C   C5        1.0  0.203674079051865  0.0281330459281719  0.7799788597128411  1.0000
  C   C6        1.0  0.7963256954872122  0.9718714676555392  0.2200213026359776  1.0000
  C   C7        1.0  0.4896474126557351  0.4123409972913521  0.8398092911037054  1.0000
  C   C8        1.0  0.5103498800683609  0.5876604422024698  0.1601898804298186  1.0000
  C   C9        1.0  0.3577397234407655  0.21372097575082452  0.6686893500796245  1.0000
  C   C10       1.0  0.6422606988749989  0.7862804637430045  0.33131180689790085  1.0000
  C   C11       1.0  0.2903671107592912  0.6447042787996438  0.4883170775458651  1.0000
  C   C12       1.0  0.7096383116170131  0.3552981853908079  0.5116723231598002  1.0000
  C   C13       1.0  0.27338915038710354  0.5931979027814478  0.763204188864506  1.0000
  C   C14       1.0  0.7266081423369926  0.4068035367123741  0.23679498266902502  1.0000
  C   C15       1.0  0.15382569877989027  0.8046553236804996  0.22387166504797312  1.0000
  C   C16       1.0  0.8461741121897716  0.1953440664200699  0.7761299141664748  1.0000
  C   C17       1.0  0.4064936047088281  0.5428463598632689  0.7085868609878148  1.0000
  C   C18       1.0  0.5935026448180523  0.4571550796305531  0.2914143850086148  1.0000
  C   C19       1.0  0.3161995170153419  0.75448515206552  0.4889071813712532  1.0000
  C   C20       1.0  0.6838037123327041  0.24550296637213623  0.5110892348997352  1.0000
  C   C21       1.0  0.24975430485024924  0.5138505193741238  0.499110286937011  1.0000
  C   C22       1.0  0.7502543199788859  0.4861416978500444  0.5008839329438927  1.0000
  C   C23       1.0  0.3567074037029698  0.184609344542686  0.7589734585549692  1.0000
  C   C24       1.0  0.643294889081673  0.8153931196477657  0.24102658568008914  1.0000
  C   C25       1.0  0.2790094435960526  0.0895113492627786  0.81785041077417  1.0000
  C   C26       1.0  0.7209909787197049  0.9104900902310505  0.1821494833060129  1.0000
  C   C27       1.0  0.3395788427222328  0.8825906751341108  0.5009375119675852  1.0000
  C   C28       1.0  0.6604222638007898  0.1174025667866871  0.49905784767155836  1.0000
  C   C29       1.0  0.22918841242196916  0.8771813016336621  0.25439474189889205  1.0000
  C   C30       1.0  0.7708137008676914  0.12281706377027751  0.7456072295904477  1.0000
  C   C31       1.0  0.24894872046331779  0.3190208506614312  0.2842978105849241  1.0000
  C   C32       1.0  0.7510470972124352  0.6809826382256503  0.7157019303941466  1.0000
  C   C33       1.0  0.3602860853485694  0.45715712902380556  0.8968874423931511  1.0000
  C   C34       1.0  0.6397124664983096  0.5428432857733867  0.10311293298083508  1.0000
  C   C35       1.0  0.003529735096279274  0.6613228087163492  0.1639196838522139  1.0000
  C   C36       1.0  0.9964696440222626  0.3386786307774798  0.8360803903448611  1.0000
  C   C37       1.0  0.24878230909431664  0.5515183674280166  0.8585749929947966  1.0000
  C   C38       1.0  0.7512149836297796  0.4484830720658053  0.14142480998739865  1.0000
  C   C39       1.0  0.5129111991334554  0.4551415507560749  0.7468139365130924  1.0000
  C   C40       1.0  0.4870850503934179  0.5448598887377543  0.25318415223998875  1.0000
  C   C41       1.0  0.1500123219227589  0.8330691364848093  0.13081911971728027  1.0000
  C   C42       1.0  0.8499883163185585  0.16693127831239  0.8691827897689279  1.0000
  C   C43       1.0  0.2832735996987168  0.0605821140544691  0.9116593521098366  1.0000
  C   C44       1.0  0.7167312113314851  0.9394183007427303  0.08834120546012508  1.0000
  C   C45       1.0  0.07303106573628071  0.7577734035455279  0.10357222802906559  1.0000
  C   C46       1.0  0.9269716588994825  0.2422270112516713  0.8964280583260162  1.0000
  C   C47       1.0  0.27037174992884155  0.355180345278562  0.19239075229266686  1.0000
  C   C48       1.0  0.729628888312476  0.6448200695186301  0.8076067370528505  1.0000
  C   C49       1.0  0.5111458633585784  0.2326727398900132  0.18215373280109756  1.0000
  C   C50       1.0  0.4888516452910778  0.7673276749071789  0.8178468226897805  1.0000
  C   C51       1.0  0.4044700938511454  0.3111470817700805  0.13786881025634296  1.0000
  C   C52       1.0  0.5955284579957266  0.6888533330271187  0.8621309336689648  1.0000
  C   C53       1.0  0.21757536802669367  0.9696048387138844  0.97638931712126  1.0000
  C   C54       1.0  0.7824280043857499  0.0303925019934255  0.023610700965186006  1.0000
  C   C55       1.0  0.015343692362264991  0.705958593842233  0.8715170354071231  1.0000
  C   C56       1.0  0.9846544276334938  0.2940438703482187  0.1284818349494969  1.0000
  C   C57       1.0  0.1659160016039536  0.6891545938358163  0.7249084502393898  1.0000
  C   C58       1.0  0.8340819024662454  0.3108488950512651  0.27509156195455375  1.0000
  C   C59       1.0  0.11628914210510999  0.6102068421135058  0.9106334884699976  1.0000
  C   C60       1.0  0.8837102734440094  0.3897894738971743  0.08936737114403571  1.0000
  C   C61       1.0  0.22285780780917014  0.9360808638245715  0.0703548396353426  1.0000
  C   C62       1.0  0.7771451327521532  0.063918526275998  0.9296461992284151  1.0000
  C   C63       1.0  0.2968956803887011  0.0025412476380211  0.1045118392733073  1.0000
  C   C64       1.0  0.7031076920237425  0.9974560930692888  0.8954900731591451  1.0000
  C   C65       1.0  0.006443736956057928  0.6348651417753359  0.2551405351590859  1.0000
  C   C66       1.0  0.9935543830397008  0.3651373224151158  0.7448602295435406  1.0000
  C   C67       1.0  0.08051559300188418  0.7052792199777116  0.2842446057029022  1.0000
  C   C68       1.0  0.9194837861166576  0.2947222195161103  0.7157567313915152  1.0000
  C   C69       1.0  0.3374405025939354  0.4136690041215445  0.9930633463459485  1.0000
  C   C70       1.0  0.6625607469934849  0.5863334600689072  0.006936878005994654  1.0000
  C   C71       1.0  0.040052978056031904  0.7460826397139968  0.7776564294612385  1.0000
  C   C72       1.0  0.9599464010625028  0.2539187997798251  0.22234490763317885  1.0000
  C   C73       1.0  0.43594271433397586  0.345244886771205  0.04090299137281046  1.0000
  C   C74       1.0  0.5640587511790046  0.6547565527226169  0.9590967225904806  1.0000
  C   C75       1.0  0.3000090437242592  0.9738563050244268  0.1953325014913716  1.0000
  C   C76       1.0  0.69999494003428  0.026143085076142804  0.8046696201528363  1.0000
  N   N1        1.0  0.2868766041758661  0.1528919098089503  0.6333592134927173  1.0000
  N   N2        1.0  0.7131215158198926  0.8471105543815014  0.36664218265858045  1.0000
  N   N3        1.0  0.3519859989714647  0.2425456919030538  0.3256405931684014  1.0000
  N   N4        1.0  0.6480104664809687  0.7574547228941455  0.6743601424393688  1.0000
  O   O1        1.0  0.3469590554313982  0.4178057044097301  0.4691188162075974  1.0000
  O   O2        1.0  0.653045396608846  0.5821865128144381  0.5308786499355592  1.0000
  O   O3        1.0  0.4327817858686416  0.8749689816133072  0.5433282022577188  1.0000
  O   O4        1.0  0.5672184205215558  0.1250334825771446  0.4566639933784202  1.0000
  O   O5        1.0  0.25865641463990846  0.9915907295692747  0.47075542282172467  1.0000
  O   O6        1.0  0.7413400872431026  0.0084045617447757  0.5292397837163065  1.0000
  O   O7        1.0  0.12202612763741881  0.507915476503392  0.5389391756123273  1.0000
  O   O8        1.0  0.877976417503362  0.49208083950728815  0.461057986407674  1.0000
  O   O9        1.0  0.0576730430762993  0.2538573179821313  0.4914442188911465  1.0000
  O   O10       1.0  0.9423215883378403  0.7461369486352964  0.5085615721193975  1.0000
