data_image0
_chemical_formula_structural       Al4H40C76O36
_chemical_formula_sum              "Al4 H40 C76 O36"
_cell_length_a       6.709285227502572
_cell_length_b       23.49726915452045
_cell_length_c       25.98068647947416
_cell_angle_alpha    78.33420401045181
_cell_angle_beta     90.00121597299828
_cell_angle_gamma    89.94987192672211

_space_group_name_H-M_alt    "P 1"
_space_group_IT_number       1

loop_
  _space_group_symop_operation_xyz
  'x, y, z'

loop_
  _atom_site_type_symbol
  _atom_site_label
  _atom_site_symmetry_multiplicity
  _atom_site_fract_x
  _atom_site_fract_y
  _atom_site_fract_z
  _atom_site_occupancy
  Al  Al1       1.0  0.7242796879129471  0.2489279258245887  0.2499629197798398  1.0000
  Al  Al2       1.0  0.3169861964866029  0.7482565640022399  0.7492975317450359  1.0000
  Al  Al3       1.0  0.22425155807000144  0.25097452246539115  0.24993244467674458  1.0000
  Al  Al4       1.0  0.8169299903515108  0.7516107907695826  0.7506339748864547  1.0000
  H   H1        1.0  0.31239085663037963  0.6836403654165082  0.6011308097146679  1.0000
  H   H2        1.0  0.6883502389479046  0.312996616225547  0.39145682641626667  1.0000
  H   H3        1.0  0.8122517319242488  0.8161512468853828  0.8987580312664462  1.0000
  H   H4        1.0  0.18859057420831957  0.1869602906942944  0.10851905993542489  1.0000
  H   H5        1.0  0.7294396054785324  0.552985312093405  0.6087627420604915  1.0000
  H   H6        1.0  0.24253102795066178  0.45313155111576725  0.3900820423672684  1.0000
  H   H7        1.0  0.22907761650350972  0.9470361163465526  0.8911047413173915  1.0000
  H   H8        1.0  0.7431101377640416  0.0466734798833528  0.10977886980423077  1.0000
  H   H9        1.0  0.9075111333159781  0.4635690564587663  0.5931679764235226  1.0000
  H   H10       1.0  0.05116016355978561  0.5376385085817148  0.4037891685821932  1.0000
  H   H11       1.0  0.407436707052632  0.03641765008813997  0.9067247279140173  1.0000
  H   H12       1.0  0.5513978168994881  0.9621657586486876  0.09610816465780658  1.0000
  H   H13       1.0  0.8867175312202562  0.39725183662479674  0.5306687626636303  1.0000
  H   H14       1.0  0.06960757910439239  0.6040807827212047  0.46612354472749457  1.0000
  H   H15       1.0  0.3870977636037693  0.10272954854259811  0.9692442170515888  1.0000
  H   H16       1.0  0.5693476964158036  0.8957436629575141  0.0337219095356147  1.0000
  H   H17       1.0  0.8519954243220481  0.5938915201812376  0.014788912760238299  1.0000
  H   H18       1.0  0.17375479727260768  0.41374211490082763  0.9901768898297261  1.0000
  H   H19       1.0  0.3591458574200884  0.9060670227949572  0.4847383233186448  1.0000
  H   H20       1.0  0.668582310437216  0.08717160356130188  0.5109034540075612  1.0000
  H   H21       1.0  0.17036265446972718  0.5363376232151964  0.0766866355226981  1.0000
  H   H22       1.0  0.8554244158448581  0.4715690210366077  0.9281787045390855  1.0000
  H   H23       1.0  0.677918282663178  0.9648798561973561  0.4240680387965482  1.0000
  H   H24       1.0  0.34993401197004903  0.02808306793632202  0.5716651714336506  1.0000
  H   H25       1.0  0.6584529578210975  0.4847011882247471  0.0220311393987842  1.0000
  H   H26       1.0  0.36733458801383984  0.522893151411864  0.9828836211421077  1.0000
  H   H27       1.0  0.15956928286519906  0.014453422913710833  0.47696991443358866  1.0000
  H   H28       1.0  0.8680798066770733  0.978838335102978  0.5187162102418623  1.0000
  H   H29       1.0  0.5423157478998916  0.5643393590181915  0.5128778549836992  1.0000
  H   H30       1.0  0.40176303771632854  0.343713332239318  0.488850418736618  1.0000
  H   H31       1.0  0.04215165076918479  0.935360750518285  0.9869628128487091  1.0000
  H   H32       1.0  0.9016657759314908  0.1563050653995148  0.011204148295462298  1.0000
  H   H33       1.0  0.4559943595209503  0.6640627580254373  0.6801822834682695  1.0000
  H   H34       1.0  0.30954142108318905  0.41069004632063866  0.23917070103023255  1.0000
  H   H35       1.0  0.9560694086004131  0.8356790905547768  0.8198259993410346  1.0000
  H   H36       1.0  0.8107474695717797  0.0891256847196971  0.2606639422470564  1.0000
  H   H37       1.0  0.4836238154405946  0.3113175273671303  0.2772567908134106  1.0000
  H   H38       1.0  0.5770035996548868  0.6735290463812759  0.7697865042025782  1.0000
  H   H39       1.0  0.9839731846326599  0.1886022718110922  0.22259575567072423  1.0000
  H   H40       1.0  0.07640539418884629  0.8262901729639723  0.7300519734834905  1.0000
  C   C1        1.0  0.4727493767680712  0.16484146822098467  0.3202251734952454  1.0000
  C   C2        1.0  0.5640188532699992  0.8281946638667464  0.674531028378979  1.0000
  C   C3        1.0  0.9720044726406271  0.3351906718507749  0.1797722975894942  1.0000
  C   C4        1.0  0.06476734947385408  0.6717477167047079  0.8254621287193089  1.0000
  C   C5        1.0  0.46970023136628203  0.1970415905263962  0.17993700422463374  1.0000
  C   C6        1.0  0.5614986161288938  0.8092284798260465  0.8172309466384746  1.0000
  C   C7        1.0  0.9693974848397315  0.3028578929541866  0.31995785553613126  1.0000
  C   C8        1.0  0.061576196643883876  0.6906523578272469  0.682670923286551  1.0000
  C   C9        1.0  0.18715910658276158  0.6538747988333994  0.6042681016597484  1.0000
  C   C10       1.0  0.8105419706192831  0.3432732911764091  0.3919221469745792  1.0000
  C   C11       1.0  0.6869470053505394  0.8459664009169001  0.8956152725237699  1.0000
  C   C12       1.0  0.3108705519222923  0.15665981753116404  0.10800790187417417  1.0000
  C   C13       1.0  0.17751510876203008  0.6153759111132115  0.5698873093072335  1.0000
  C   C14       1.0  0.8034088850514818  0.38299322425186927  0.4253000081405247  1.0000
  C   C15       1.0  0.6773265863930718  0.8845107341531674  0.9299537414947634  1.0000
  C   C16       1.0  0.30369959424584175  0.1169295629795926  0.07463665715842889  1.0000
  C   C17       1.0  0.013102366144764198  0.5775057434067676  0.5717620258418634  1.0000
  C   C18       1.0  0.9614856276494236  0.4227494147420358  0.4256107170753082  1.0000
  C   C19       1.0  0.5128606463744275  0.9224449744303485  0.9280812059061458  1.0000
  C   C20       1.0  0.46188167799952135  0.0771301873310932  0.07429818767603538  1.0000
  C   C21       1.0  0.8620147289038511  0.5798536898956854  0.6087487987615317  1.0000
  C   C22       1.0  0.11859939222268419  0.4231908766693592  0.38982145013992653  1.0000
  C   C23       1.0  0.36165452519345104  0.9201256110114429  0.8911340511489098  1.0000
  C   C24       1.0  0.619115134894045  0.0766485656112152  0.11006631570996459  1.0000
  C   C25       1.0  0.874471436384489  0.6172292739060979  0.643980299249854  1.0000
  C   C26       1.0  0.119484132222027  0.3856640621731413  0.35454102197866166  1.0000
  C   C27       1.0  0.3740530056035992  0.8826972698596975  0.8559478139879101  1.0000
  C   C28       1.0  0.6199846913568905  0.11416806335883932  0.14534995166232526  1.0000
  C   C29       1.0  0.04177855827315819  0.6536514079008242  0.642696100773108  1.0000
  C   C30       1.0  0.9670222463798195  0.344263889622411  0.35642151814043627  1.0000
  C   C31       1.0  0.5414097617644912  0.8462124199223523  0.857216666098047  1.0000
  C   C32       1.0  0.467480349085612  0.15563287288002672  0.14347476617275848  1.0000
  C   C33       1.0  0.9362807763710917  0.4800370838373595  0.5514928166744396  1.0000
  C   C34       1.0  0.021038682071832703  0.5211601601122312  0.4453813851262891  1.0000
  C   C35       1.0  0.43634091128296143  0.019925145688162615  0.9483990414654426  1.0000
  C   C36       1.0  0.5212564797942746  0.978682822183174  0.0545135525746829  1.0000
  C   C37       1.0  0.9252860138612105  0.44279669676231487  0.5162859872678496  1.0000
  C   C38       1.0  0.031463921048704394  0.5585099459538156  0.4804985005447475  1.0000
  C   C39       1.0  0.4255867303391483  0.0571503324406777  0.9836252161494554  1.0000
  C   C40       1.0  0.5314697749351892  0.9413534272103873  0.019373514215565997  1.0000
  C   C41       1.0  0.968040560698931  0.46266796104841024  0.46274685619443545  1.0000
  C   C42       1.0  0.9922981635363681  0.5383660409136724  0.5342262222831451  1.0000
  C   C43       1.0  0.46839668186660066  0.0372189484886434  0.03716011001038309  1.0000
  C   C44       1.0  0.49224698038937476  0.9615577999893289  0.9656463269561967  1.0000
  C   C45       1.0  0.10095323404419788  0.5224834448649888  0.0431883961243003  1.0000
  C   C46       1.0  0.9248401935788662  0.48516081831768076  0.961808046424913  1.0000
  C   C47       1.0  0.605629076587263  0.9783897715678336  0.4573588455381241  1.0000
  C   C48       1.0  0.4220752690894257  0.014834051397251415  0.5382232193738616  1.0000
  C   C49       1.0  0.9227999057645275  0.5533670438344273  0.0099991028434943  1.0000
  C   C50       1.0  0.10293245250120718  0.4542499305796568  0.9950358718207468  1.0000
  C   C51       1.0  0.42728878456756547  0.9468059484355393  0.48985387566479927  1.0000
  C   C52       1.0  0.6003990983155985  0.046463435828464114  0.5056821710833643  1.0000
  C   C53       1.0  0.06163390134121018  0.626832024544818  0.8719198982519741  1.0000
  C   C54       1.0  0.9718323270840085  0.38089522979485224  0.1335486280193692  1.0000
  C   C55       1.0  0.5610246798156665  0.8732967895622394  0.6282143341614839  1.0000
  C   C56       1.0  0.47286605478929283  0.11934195740357009  0.3665889194706508  1.0000
  C   C57       1.0  0.21014793506944326  0.5138454774918203  0.992183728452865  1.0000
  C   C58       1.0  0.8157514204773901  0.4937293216846612  0.012853257336693999  1.0000
  C   C59       1.0  0.710995441270043  0.9872886884754378  0.5088056397142466  1.0000
  C   C60       1.0  0.31679374665061016  0.006010878340099215  0.48674963477623107  1.0000
  C   C61       1.0  0.033437862029039395  0.5458677896267544  0.9577984685076542  1.0000
  C   C62       1.0  0.9927267302722667  0.4617488795286562  0.04730842754510429  1.0000
  C   C63       1.0  0.5340996491556708  0.9545430816607876  0.5424896873110682  1.0000
  C   C64       1.0  0.4939504589788156  0.03870199986574362  0.4529717373391902  1.0000
  C   C65       1.0  0.050046040504831496  0.5892341335005327  0.9116766390627831  1.0000
  C   C66       1.0  0.9785748115678883  0.4184020398425687  0.09360713860268527  1.0000
  C   C67       1.0  0.5502209414796794  0.9110490320317622  0.588541586992477  1.0000
  C   C68       1.0  0.47972238480505064  0.0819961123482997  0.4066352163416339  1.0000
  C   C69       1.0  0.353380563581787  0.6153256143944787  0.5343926469235569  1.0000
  C   C70       1.0  0.6137043841969286  0.388129291424299  0.4539199948040603  1.0000
  C   C71       1.0  0.8532394325418833  0.8844915356323072  0.9654481536851945  1.0000
  C   C72       1.0  0.11393135830046927  0.11184728548022352  0.0460533617092835  1.0000
  C   C73       1.0  0.7046182913326787  0.620311175549034  0.6813916945885339  1.0000
  C   C74       1.0  0.2792783364328244  0.39129302767818064  0.3134920795287782  1.0000
  C   C75       1.0  0.20405916842822336  0.8796233236380077  0.8185999872245089  1.0000
  C   C76       1.0  0.7798818370328745  0.1085173726862365  0.18637986917831026  1.0000
  O   O1        1.0  0.3029928821084198  0.2148625685673764  0.19341546721265243  1.0000
  O   O2        1.0  0.7375350884996122  0.7980998186840293  0.8023407543275666  1.0000
  O   O3        1.0  0.8027831123367191  0.2850640902156271  0.3064567096300336  1.0000
  O   O4        1.0  0.23746574287039823  0.7016008682982715  0.6977444781859388  1.0000
  O   O5        1.0  0.6440213823060146  0.1816976821157468  0.3018195366245492  1.0000
  O   O6        1.0  0.3952522798791803  0.8075185073918193  0.6914693147174373  1.0000
  O   O7        1.0  0.14334801733933486  0.3182688459179488  0.1981577420385108  1.0000
  O   O8        1.0  0.8959372138207653  0.6922217674965481  0.80826390358542  1.0000
  O   O9        1.0  0.6400080427625098  0.2108513866217692  0.19526771760607178  1.0000
  O   O10       1.0  0.4007814033159461  0.7929561920481447  0.7993524030239667  1.0000
  O   O11       1.0  0.13975712359771814  0.2890162412546288  0.3046437892250822  1.0000
  O   O12       1.0  0.9006828622175717  0.707139053606056  0.7003442622557968  1.0000
  O   O13       1.0  0.8029519540484598  0.3162797789567548  0.19791634565323324  1.0000
  O   O14       1.0  0.23422150452781657  0.6873439299632481  0.8051244203802881  1.0000
  O   O15       1.0  0.303602051646969  0.1836555748035096  0.30199474861049674  1.0000
  O   O16       1.0  0.7333622752348388  0.812657591015828  0.6950321847785403  1.0000
  O   O17       1.0  0.47547050173589145  0.2840531933483703  0.2535435091064428  1.0000
  O   O18       1.0  0.5694120920485728  0.7143362314464593  0.7525812388680888  1.0000
  O   O19       1.0  0.9757000423044174  0.21584327805691564  0.24633131464636182  1.0000
  O   O20       1.0  0.06922478989090308  0.78551001564729  0.7473372824262153  1.0000
  O   O21       1.0  0.42677163115112654  0.6588457660674508  0.5074304297887905  1.0000
  O   O22       1.0  0.4300424904194741  0.5609956400414688  0.5375552983649852  1.0000
  O   O23       1.0  0.5333036802748197  0.43393685536317855  0.45727485953802455  1.0000
  O   O24       1.0  0.5311360083756468  0.3353677217122665  0.4744334141758911  1.0000
  O   O25       1.0  0.9268074698780423  0.8409288754045151  0.9923676589132312  1.0000
  O   O26       1.0  0.929739927584343  0.9387943241948093  0.9623215645900557  1.0000
  O   O27       1.0  0.03370834641389559  0.0660613124447735  0.04266691199521229  1.0000
  O   O28       1.0  0.031060307395776497  0.1646252750677917  0.025599366146110494  1.0000
  O   O29       1.0  0.6959944345691085  0.593614126467031  0.7269211416110861  1.0000
  O   O30       1.0  0.5631632014369357  0.6553993135114238  0.6562204869903212  1.0000
  O   O31       1.0  0.4551927881788912  0.3793344339256919  0.32210134706186005  1.0000
  O   O32       1.0  0.20483241221538853  0.4130871415788774  0.2650888041489452  1.0000
  O   O33       1.0  0.19472409543276828  0.9064714580778241  0.7731322842916838  1.0000
  O   O34       1.0  0.06332205193318428  0.8443218734168667  0.8437543422366359  1.0000
  O   O35       1.0  0.9556949421972333  0.1204520787419909  0.17773179787930354  1.0000
  O   O36       1.0  0.7057320952893561  0.08678112602461849  0.23481321426736196  1.0000
