data_image0
_chemical_formula_structural       Cu2Hg2H32C28N16Cl8
_chemical_formula_sum              "Cu2 Hg2 H32 C28 N16 Cl8"
_cell_length_a       8.941482434624458
_cell_length_b       8.941478597158367
_cell_length_c       14.32839257589998
_cell_angle_alpha    92.6430218377146
_cell_angle_beta     92.64318126887405
_cell_angle_gamma    111.65003413301544

_space_group_name_H-M_alt    "P 1"
_space_group_IT_number       1

loop_
  _space_group_symop_operation_xyz
  'x, y, z'

loop_
  _atom_site_type_symbol
  _atom_site_label
  _atom_site_symmetry_multiplicity
  _atom_site_fract_x
  _atom_site_fract_y
  _atom_site_fract_z
  _atom_site_occupancy
  Cu  Cu1       1.0  0.9999996670438237  0.49999986099556537  0.9999999382030396  1.0000
  Cu  Cu2       1.0  0.5000001753699976  7.039046750006365e-07  0.499999450229808  1.0000
  Hg  Hg1       1.0  0.2057365967005254  0.7942642521749049  0.7499990000059852  1.0000
  Hg  Hg2       1.0  0.79426386106514  0.20573474099858663  0.2500003863104894  1.0000
  H   H1        1.0  0.08589232074773895  0.20701311624783617  0.9109326540208826  1.0000
  H   H2        1.0  0.7929866058414207  0.9141076220529171  0.5890670927542843  1.0000
  H   H3        1.0  0.9141070174807737  0.7929858770201292  0.0890667012654873  1.0000
  H   H4        1.0  0.2070143035099221  0.08589258020153069  0.41093303751175364  1.0000
  H   H5        1.0  0.850092806840813  0.9581803298369495  0.8093276126467758  1.0000
  H   H6        1.0  0.04182135652826699  0.14990626293951687  0.6906714778162879  1.0000
  H   H7        1.0  0.14990653138770682  0.041818663431016  0.1906717426395943  1.0000
  H   H8        1.0  0.9581817888705616  0.8500939361003079  0.30932801642398994  1.0000
  H   H9        1.0  0.567377321955256  0.9990430416998067  0.8508734779679301  1.0000
  H   H10       1.0  0.000958676697884242  0.4326210244797508  0.649126009301142  1.0000
  H   H11       1.0  0.4326213483217884  0.0009571607435888004  0.1491265902378984  1.0000
  H   H12       1.0  0.9990433461369791  0.567379171628879  0.3508727558230689  1.0000
  H   H13       1.0  0.43100623688198425  0.3991682431897415  0.8675329559141146  1.0000
  H   H14       1.0  0.6008336309330603  0.5689949218947062  0.6324684133358288  1.0000
  H   H15       1.0  0.5689924394486925  0.6008319653049979  0.1324685084636457  1.0000
  H   H16       1.0  0.39916929809997725  0.43100769540151157  0.3675325377734708  1.0000
  H   H17       1.0  0.6019975752878751  0.7055149174787732  0.8157111819904939  1.0000
  H   H18       1.0  0.2944857386319911  0.39800261192433334  0.6842886127885135  1.0000
  H   H19       1.0  0.39800221452632206  0.29448528487014874  0.1842889172454392  1.0000
  H   H20       1.0  0.705516287229685  0.6019975872099649  0.3157108504216595  1.0000
  H   H21       1.0  0.912336508103607  0.7720394764939512  0.8942505811641722  1.0000
  H   H22       1.0  0.2279607970060837  0.0876650409352067  0.6057480573682383  1.0000
  H   H23       1.0  0.08766327868377033  0.22796072282930174  0.1057488199857985  1.0000
  H   H24       1.0  0.7720398838722105  0.912337567472953  0.3942507374229649  1.0000
  H   H25       1.0  0.6529980541621399  0.29465154939509114  0.05107397867975999  1.0000
  H   H26       1.0  0.7053486012267101  0.3470033477628219  0.4489267139038375  1.0000
  H   H27       1.0  0.3470024066303382  0.705347446804069  0.948926105722677  1.0000
  H   H28       1.0  0.294652759710317  0.6529980635725819  0.5510741603117636  1.0000
  H   H29       1.0  0.5009132558933516  0.194392816558036  0.9563735329442196  1.0000
  H   H30       1.0  0.8056077997683886  0.4990859838827292  0.5436265917573877  1.0000
  H   H31       1.0  0.49908653694765814  0.8056073888165616  0.043627264377676105  1.0000
  H   H32       1.0  0.19439265799727684  0.5009130092907554  0.4563727945590869  1.0000
  C   C1        1.0  0.956623395999685  0.1761708436451528  0.9080299651835516  1.0000
  C   C2        1.0  0.8238305129920179  0.04337707612613431  0.5919692313223948  1.0000
  C   C3        1.0  0.043375716782591785  0.8238305588021931  0.091968752713953  1.0000
  C   C4        1.0  0.17616927984899192  0.956623129248456  0.4080315659995008  1.0000
  C   C5        1.0  0.8348410300193833  0.04854755601309079  0.856616080641217  1.0000
  C   C6        1.0  0.9514534843327667  0.16515996789285478  0.643383126760817  1.0000
  C   C7        1.0  0.16516032183719892  0.9514538462453075  0.14338269931649705  1.0000
  C   C8        1.0  0.04854630548142328  0.834840234456067  0.3566169724751163  1.0000
  C   C9        1.0  0.6916262438138788  0.06656174221660653  0.8759458887129411  1.0000
  C   C10       1.0  0.9334390620322709  0.30837183323289713  0.6240544865324154  1.0000
  C   C11       1.0  0.30837197790430804  0.9334372541715015  0.1240541336292864  1.0000
  C   C12       1.0  0.06656363480769312  0.6916271597516401  0.3759449618442687  1.0000
  C   C13       1.0  0.5567427106656595  0.4762352424090395  0.8825700617517709  1.0000
  C   C14       1.0  0.5237636379261303  0.4432579515204011  0.6174298573197632  1.0000
  C   C15       1.0  0.4432573015679608  0.5237625477348331  0.117429976787065  1.0000
  C   C16       1.0  0.4762361488612541  0.5567422478028519  0.3825695438302077  1.0000
  C   C17       1.0  0.6460414231354648  0.6308129739280588  0.857966949424437  1.0000
  C   C18       1.0  0.3691869155024109  0.3539594894687569  0.6420329476787072  1.0000
  C   C19       1.0  0.3539583666787252  0.36918722842086993  0.1420331498114962  1.0000
  C   C20       1.0  0.630813548316887  0.6460395097560793  0.357967834809692  1.0000
  C   C21       1.0  0.8033883381007669  0.6656836002862079  0.8969716903463547  1.0000
  C   C22       1.0  0.3343172730472331  0.19661303303658437  0.603027655541247  1.0000
  C   C23       1.0  0.19661145171343014  0.3343166020627137  0.1030284088895783  1.0000
  C   C24       1.0  0.6656831847184324  0.8033859601369073  0.3969717307752276  1.0000
  C   C25       1.0  0.6269813549947971  0.27296769761622397  0.9748674680080214  1.0000
  C   C26       1.0  0.7270307309427652  0.3730183868467662  0.5251333492682235  1.0000
  C   C27       1.0  0.37301843784621275  0.7270325077583736  0.02513332931388131  1.0000
  C   C28       1.0  0.2729679393342792  0.6269818155966291  0.474866718937612  1.0000
  N   N1        1.0  0.8923216194654557  0.2667202713162311  0.9569235776490357  1.0000
  N   N2        1.0  0.7332789365616107  0.1076777475581565  0.5430753937335666  1.0000
  N   N3        1.0  0.10767861285397377  0.733281131036634  0.04307517127856641  1.0000
  N   N4        1.0  0.2667197367422532  0.8923224579109075  0.4569253725582242  1.0000
  N   N5        1.0  0.7305403866047726  0.19810581019163462  0.9365802752868432  1.0000
  N   N6        1.0  0.8018942294381263  0.26945991409393594  0.5634193617684957  1.0000
  N   N7        1.0  0.2694594001826048  0.8018943891316185  0.06341912586312762  1.0000
  N   N8        1.0  0.19810712847208123  0.7305414942157925  0.43658081436114327  1.0000
  N   N9        1.0  0.6582542978376794  0.4262294163121537  0.934099259516934  1.0000
  N   N10       1.0  0.5737703430665705  0.34174639530165507  0.5659008168038255  1.0000
  N   N11       1.0  0.34174549197651777  0.5737707860367749  0.0659008397189993  1.0000
  N   N12       1.0  0.42622989530649147  0.6582550131025615  0.4340993282957085  1.0000
  N   N13       1.0  0.8093308862678938  0.5408471545589818  0.9436380202477608  1.0000
  N   N14       1.0  0.4591531756473231  0.19067020903970897  0.5563621148118045  1.0000
  N   N15       1.0  0.19066778400915046  0.45915304788441363  0.0563620479580749  1.0000
  N   N16       1.0  0.5408475082577837  0.8093324023941193  0.443637378065361  1.0000
  Cl  Cl1       1.0  0.25001448887766037  0.022482937704083408  0.8695305307539485  1.0000
  Cl  Cl2       1.0  0.9775179757326172  0.74998594389357  0.6304681705877826  1.0000
  Cl  Cl3       1.0  0.7499868660057346  0.9775184675799765  0.13046894728972086  1.0000
  Cl  Cl4       1.0  0.022481365522715218  0.2500130524000639  0.36953188278455673  1.0000
  Cl  Cl5       1.0  0.15980499964019398  0.526631332056233  0.8225584008094486  1.0000
  Cl  Cl6       1.0  0.4733686284234651  0.84019492888244  0.6774404401640268  1.0000
  Cl  Cl7       1.0  0.8401947871471903  0.4733688672670198  0.1774410003405222  1.0000
  Cl  Cl8       1.0  0.5266329549329852  0.15980407024791532  0.3225603733544773  1.0000
