data_image0
_chemical_formula_structural       Y2H14C16S2O18
_chemical_formula_sum              "Y2 H14 C16 S2 O18"
_cell_length_a       6.360810641810373
_cell_length_b       8.578736154003645
_cell_length_c       10.605776060771651
_cell_angle_alpha    90.41010014876849
_cell_angle_beta     99.95693231722801
_cell_angle_gamma    107.63436656490806

_space_group_name_H-M_alt    "P 1"
_space_group_IT_number       1

loop_
  _space_group_symop_operation_xyz
  'x, y, z'

loop_
  _atom_site_type_symbol
  _atom_site_label
  _atom_site_symmetry_multiplicity
  _atom_site_fract_x
  _atom_site_fract_y
  _atom_site_fract_z
  _atom_site_occupancy
  Y   Y1        1.0  0.15320721019697459  0.24793603627156807  0.6161705030807525  1.0000
  Y   Y2        1.0  0.8467930782406086  0.752065722616983  0.3838295647787575  1.0000
  H   H1        1.0  0.6183825285371398  0.41226019081437215  0.14453011817885647  1.0000
  H   H2        1.0  0.38161884000398055  0.5877403437508943  0.8554700539168464  1.0000
  H   H3        1.0  0.6568772903695643  0.3656479453935617  0.919534880689241  1.0000
  H   H4        1.0  0.34311933346363327  0.6343489095627531  0.08046383720634508  1.0000
  H   H5        1.0  0.1803156880772646  0.15314316723196694  0.05593107782021178  1.0000
  H   H6        1.0  0.8196846457937211  0.8468549159289365  0.9440680301643595  1.0000
  H   H7        1.0  0.5262831272693164  0.08494942793323898  0.677823571018024  1.0000
  H   H8        1.0  0.47371875643236894  0.9150523320788222  0.32217571858315347  1.0000
  H   H9        1.0  0.29933458936748275  0.954928967543111  0.6078309137928599  1.0000
  H   H10       1.0  0.7006688910479824  0.045072793762727784  0.3921685405833698  1.0000
  H   H11       1.0  0.6534645247429652  0.3566024812517981  0.7100686705874608  1.0000
  H   H12       1.0  0.3465373589587201  0.6433992787602631  0.28993061901371675  1.0000
  H   H13       1.0  0.5826873781765229  0.5075851833354077  0.6491937500371989  1.0000
  H   H14       1.0  0.41731239220115396  0.49241534976583495  0.35080531425004574  1.0000
  C   C1        1.0  0.021873149044807888  0.22436361894487789  0.20063261871084848  1.0000
  C   C2        1.0  0.9781266227825398  0.7756369143266183  0.7993673886097952  1.0000
  C   C3        1.0  0.8681442764475233  0.3032305669888443  0.22749771537812072  1.0000
  C   C4        1.0  0.13185549537982402  0.6967699662826516  0.7725022919425227  1.0000
  C   C5        1.0  0.7374501765828043  0.3515528264987821  0.12401423131541375  1.0000
  C   C6        1.0  0.26254748192053506  0.6484464798618957  0.8759855506913038  1.0000
  C   C7        1.0  0.760032674001323  0.3260105229470013  0.9978654752080371  1.0000
  C   C8        1.0  0.23996179252412725  0.6739887809963888  0.0021349202819535996  1.0000
  C   C9        1.0  0.92278266833695  0.2563955452081216  0.9733866417101565  1.0000
  C   C10       1.0  0.07721447645549519  0.7436025358760219  0.026614965824485595  1.0000
  C   C11       1.0  0.05159368910003077  0.20460590509867413  0.07521421307550467  1.0000
  C   C12       1.0  0.9484056173491667  0.7953897275091606  0.9247885459649222  1.0000
  C   C13       1.0  0.8460912404397192  0.34623788401908934  0.3615157701474985  1.0000
  C   C14       1.0  0.15391012665173773  0.6537626503759169  0.6384834589148055  1.0000
  C   C15       1.0  0.9810048292514466  0.24721350933438663  0.8438586340776695  1.0000
  C   C16       1.0  0.018994944025564498  0.7527870241073767  0.15614231627636593  1.0000
  S   S1        1.0  0.21050154568637675  0.16362018894972144  0.3209340967202081  1.0000
  S   S2        1.0  0.789500339464979  0.8363815712326002  0.6790661359143683  1.0000
  O   O1        1.0  0.0828924881804056  0.023157413319630393  0.3853419024895217  1.0000
  O   O2        1.0  0.9171083197667469  0.9768455715264889  0.6146601119756452  1.0000
  O   O3        1.0  0.3068071068053442  0.30544833056288917  0.4180021397729376  1.0000
  O   O4        1.0  0.693193696792804  0.6945546537724564  0.5819970455920398  1.0000
  O   O5        1.0  0.37369540311588173  0.1267196912000728  0.256237753190419  1.0000
  O   O6        1.0  0.6263038506515599  0.8732796162841154  0.7437612505579592  1.0000
  O   O7        1.0  0.8551683613289924  0.24367354850645734  0.44773375036041324  1.0000
  O   O8        1.0  0.1448330072121279  0.7563269860588091  0.5522664217352896  1.0000
  O   O9        1.0  0.8201411973837337  0.4833034318644777  0.38206154837467204  1.0000
  O   O10       1.0  0.1798617649718253  0.516697103654046  0.6179369024292996  1.0000
  O   O11       1.0  0.16803913829809147  0.2245431930489729  0.8367795349537417  1.0000
  O   O12       1.0  0.8319616653000566  0.7754597912863729  0.1632196504112429  1.0000
  O   O13       1.0  0.8524642755265786  0.2652286689652  0.7410578925066885  1.0000
  O   O14       1.0  0.1475344601809567  0.73476941273168  0.2589401076694243  1.0000
  O   O15       1.0  0.37288102890427416  0.07295054302086608  0.6347934254319867  1.0000
  O   O16       1.0  0.6271229681214264  0.9270524439020205  0.36520608948310945  1.0000
  O   O17       1.0  0.5289050152123521  0.4063407614715827  0.6939340789558128  1.0000
  O   O18       1.0  0.4710968699390036  0.5936609987107389  0.3060661536787563  1.0000
