data_image0
_chemical_formula_structural       Cu4H24C24N8O8
_chemical_formula_sum              "Cu4 H24 C24 N8 O8"
_cell_length_a       13.886509723364172
_cell_length_b       13.886518997650523
_cell_length_c       13.886541299640793
_cell_angle_alpha    105.55236412027662
_cell_angle_beta     105.55023242079358
_cell_angle_gamma    117.63244188686944

_space_group_name_H-M_alt    "P 1"
_space_group_IT_number       1

loop_
  _space_group_symop_operation_xyz
  'x, y, z'

loop_
  _atom_site_type_symbol
  _atom_site_label
  _atom_site_symmetry_multiplicity
  _atom_site_fract_x
  _atom_site_fract_y
  _atom_site_fract_z
  _atom_site_occupancy
  Cu  Cu1       1.0  0.5184115419592246  0.6192892257007327  0.10087830260886216  1.0000
  Cu  Cu2       1.0  0.5184103112146943  0.41753297639520787  0.8991222994797283  1.0000
  Cu  Cu3       1.0  0.6675334316253156  0.2684131876751221  0.399120101686691  1.0000
  Cu  Cu4       1.0  0.8692944657986884  0.2684140934316089  0.6008798175067226  1.0000
  H   H1        1.0  0.6655720186033777  0.5946502179773601  0.40201376679429046  1.0000
  H   H2        1.0  0.5044268528836254  0.5074388275621615  0.3350214348979676  1.0000
  H   H3        1.0  0.5903156009845887  0.6454991463139804  0.3257964106602245  1.0000
  H   H4        1.0  0.19263774171089654  0.2635583453601881  0.5979866688445696  1.0000
  H   H5        1.0  0.17241606896507727  0.16940502282123043  0.6649785167447603  1.0000
  H   H6        1.0  0.31970324611094014  0.26451860902095353  0.6742053637782562  1.0000
  H   H7        1.0  0.5135520148624835  0.41557976547155556  0.5709275825726366  1.0000
  H   H8        1.0  0.41941969334756385  0.25443260262739636  0.49700422712921005  1.0000
  H   H9        1.0  0.5145238527557437  0.3403227111993558  0.4448249752836801  1.0000
  H   H10       1.0  0.8446531044923444  0.9426260152654679  0.42907260214529697  1.0000
  H   H11       1.0  0.7574301639707028  0.9224162020793115  0.5029960940210285  1.0000
  H   H12       1.0  0.8954987972331949  0.06969919757644766  0.5551738705927249  1.0000
  H   H13       1.0  0.19263559766987032  0.5946501271720592  0.9290777151483312  1.0000
  H   H14       1.0  0.1724163951063176  0.5074386014364478  0.0030107291025913696  1.0000
  H   H15       1.0  0.3197022170043197  0.6454986677790372  0.05518265376296939  1.0000
  H   H16       1.0  0.6655721369255261  0.26355791323497607  0.0709216083416989  1.0000
  H   H17       1.0  0.504425784077263  0.1694039823302092  0.9969884739719177  1.0000
  H   H18       1.0  0.5903149157618586  0.2645190259632883  0.9448164900587769  1.0000
  H   H19       1.0  0.8446525449197892  0.41558014264615645  0.9020265311783432  1.0000
  H   H20       1.0  0.757429366264098  0.2544334357915685  0.8350123067971109  1.0000
  H   H21       1.0  0.8954976895548866  0.3403249471079873  0.8257980547992858  1.0000
  H   H22       1.0  0.5135538541484691  0.9426256129747016  0.09797401712965126  1.0000
  H   H23       1.0  0.41942101808150056  0.9224162328924521  0.16498762940329204  1.0000
  H   H24       1.0  0.5145259153966322  0.06969934949405134  0.17420267317282875  1.0000
  C   C1        1.0  0.5827350494999878  0.4939080812881897  0.2234026446718076  1.0000
  C   C2        1.0  0.5861696114502236  0.5652664392774014  0.3272157763445521  1.0000
  C   C3        1.0  0.27050542284767676  0.35933252987882  0.7765975741004212  1.0000
  C   C4        1.0  0.2380513921157715  0.2589537713461781  0.6727843136255985  1.0000
  C   C5        1.0  0.6093561182206528  0.33277138204090306  0.5888451388742554  1.0000
  C   C6        1.0  0.5089642961361918  0.3361826565552802  0.5209161048118531  1.0000
  C   C7        1.0  0.7439266586412004  0.0205108893914314  0.4111551035801925  1.0000
  C   C8        1.0  0.8152685127120236  0.9880491909882705  0.4790846756023939  1.0000
  C   C9        1.0  0.2705052713323255  0.49390834438904807  0.9111719975951686  1.0000
  C   C10       1.0  0.23805066857367765  0.565267678013363  0.9790969574317074  1.0000
  C   C11       1.0  0.5827357313829963  0.35933241218520356  0.08882783621778148  1.0000
  C   C12       1.0  0.5861697979440094  0.2589538243431163  0.02090351751660072  1.0000
  C   C13       1.0  0.7439257514414309  0.3327715141701476  0.7234145015374837  1.0000
  C   C14       1.0  0.8152669766033396  0.33618313786008247  0.8272181702870964  1.0000
  C   C15       1.0  0.6093570254204294  0.020510757262186926  0.27658574091696403  1.0000
  C   C16       1.0  0.5089650862394279  0.9880481616368041  0.17278186156837447  1.0000
  C   C17       1.0  0.6041298761282405  0.40186225543948234  0.20226789128188472  1.0000
  C   C18       1.0  0.637941540260961  0.35845100774328376  0.2794898854400073  1.0000
  C   C19       1.0  0.1995963229770935  0.40186414220600136  0.7977318307862618  1.0000
  C   C20       1.0  0.07896277223590435  0.35845278983529744  0.7205089208076174  1.0000
  C   C21       1.0  0.6518946050751214  0.3541805056123267  0.7022849336731769  1.0000
  C   C22       1.0  0.6084681421902332  0.38797646292648835  0.7795072329000376  1.0000
  C   C23       1.0  0.6518958801594225  0.9496102827989431  0.2977159932917601  1.0000
  C   C24       1.0  0.608470876065482  0.8289619470510985  0.22049237123434298  1.0000
  N   N1        1.0  0.5522964921882049  0.505401276755613  0.12884800277649325  1.0000
  N   N2        1.0  0.37655187956119807  0.42344695277940025  0.871151899883344  1.0000
  N   N3        1.0  0.6734595937316783  0.3023149149176802  0.5469027373835615  1.0000
  N   N4        1.0  0.7554125248406081  0.12655781802296667  0.4530977874022709  1.0000
  N   N5        1.0  0.37655180309309333  0.5054006973546946  0.9531049138226777  1.0000
  N   N6        1.0  0.5522967809537676  0.4234486533898119  0.046896122364657296  1.0000
  N   N7        1.0  0.7554126763012688  0.30231627755327384  0.628855661160344  1.0000
  N   N8        1.0  0.673460188276465  0.12655700343404422  0.3711456121842645  1.0000
  O   O1        1.0  0.6524792796349387  0.40146958854634823  0.3812668078291637  1.0000
  O   O2        1.0  0.020202981346408064  0.2712127443663448  0.618732816487551  1.0000
  O   O3        1.0  0.5212283013761977  0.4025070896842564  0.7510254949930797  1.0000
  O   O4        1.0  0.6514846339682023  0.770204498345997  0.2489727028560722  1.0000
  O   O5        1.0  0.020202945054570754  0.40147072070582357  0.7489884213148058  1.0000
  O   O6        1.0  0.6524790969486529  0.27121192813751777  0.25101006949328303  1.0000
  O   O7        1.0  0.6514790113742209  0.40250494779717627  0.8812768485395991  1.0000
  O   O8        1.0  0.5212271349633895  0.7702026529271464  0.11872370176588008  1.0000
