data_image0
_chemical_formula_structural       Cd4H50C32N22O4
_chemical_formula_sum              "Cd4 H50 C32 N22 O4"
_cell_length_a       10.345145824046257
_cell_length_b       11.588418626748277
_cell_length_c       11.965
_cell_angle_alpha    61.26066477141748
_cell_angle_beta     75.86237532376435
_cell_angle_gamma    66.39943719963603

_space_group_name_H-M_alt    "P 1"
_space_group_IT_number       1

loop_
  _space_group_symop_operation_xyz
  'x, y, z'

loop_
  _atom_site_type_symbol
  _atom_site_label
  _atom_site_symmetry_multiplicity
  _atom_site_fract_x
  _atom_site_fract_y
  _atom_site_fract_z
  _atom_site_occupancy
  Cd  Cd1       1.0  0.5664988552390824  0.14348675416052  0.3559824031783947  1.0000
  Cd  Cd2       1.0  0.4335008124927881  0.856515358044483  0.6440167669310027  1.0000
  Cd  Cd3       1.0  0.4253341589199947  0.4108253867631362  0.46076927484967456  1.0000
  Cd  Cd4       1.0  0.5746641602556366  0.5891777690729825  0.5392288582717838  1.0000
  H   H1        1.0  0.9447458946882318  0.6437513271185012  0.2657993053842914  1.0000
  H   H2        1.0  0.055249844079881365  0.3562476541931758  0.734201316722661  1.0000
  H   H3        1.0  0.902066803968175  0.5505018437381537  0.13667011943222462  1.0000
  H   H4        1.0  0.09792998998147338  0.44949400668018313  0.8633325736406974  1.0000
  H   H5        1.0  0.09875962471279107  0.3673268420653386  0.08420175543007248  1.0000
  H   H6        1.0  0.9012404530987369  0.6326710956152227  0.9157992721206654  1.0000
  H   H7        1.0  0.3191153931117015  0.2365713438253607  0.07705015485971242  1.0000
  H   H8        1.0  0.6808849780745233  0.763428681117425  0.9229498387130024  1.0000
  H   H9        1.0  0.5034010107158693  0.0753950423369218  0.0689623046920431  1.0000
  H   H10       1.0  0.49659971219753635  0.9246039389747551  0.9310389363833239  1.0000
  H   H11       1.0  0.5918874750596784  0.9658294551132444  0.21293747161350746  1.0000
  H   H12       1.0  0.4081118992974879  0.0341705698295414  0.7870644040159149  1.0000
  H   H13       1.0  0.8391542717602217  0.9652575452645282  0.21706849975781486  1.0000
  H   H14       1.0  0.16084609942600986  0.0347424796782505  0.7829323295858899  1.0000
  H   H15       1.0  0.9076919319289798  0.0881075128974729  0.08404506461733521  1.0000
  H   H16       1.0  0.09230879098442557  0.911891468414197  0.9159553406870274  1.0000
  H   H17       1.0  0.04768063289315452  0.7595735077941583  0.3157885427074944  1.0000
  H   H18       1.0  0.9523163960787215  0.2404275607797359  0.6842099991357102  1.0000
  H   H19       1.0  0.9914765798264895  0.6197008481703037  0.4392100353927759  1.0000
  H   H20       1.0  0.00852179770162562  0.3802991767724748  0.560789543438375  1.0000
  H   H21       1.0  0.1574702488683144  0.5747913142107208  0.5860910210757737  1.0000
  H   H22       1.0  0.8425300639654337  0.4252118416253978  0.41390669101624417  1.0000
  H   H23       1.0  0.046274612096759336  0.7509353730901369  0.5278532747217567  1.0000
  H   H24       1.0  0.9537244105332263  0.2490656954837576  0.4721456818630116  1.0000
  H   H25       1.0  0.22379097238065512  0.7081986791032195  0.4629094497137984  1.0000
  H   H26       1.0  0.7762073467949762  0.29180447673289933  0.5370870118656583  1.0000
  H   H27       1.0  0.7106174041665196  0.9938405141268944  0.9476773693896661  1.0000
  H   H28       1.0  0.2893853124049953  0.0061584671847825  0.052323450656260206  1.0000
  H   H29       1.0  0.7993503682477011  0.8788897654287453  0.09174123686309339  1.0000
  H   H30       1.0  0.20065035466570436  0.12110921588292461  0.9082600042122735  1.0000
  H   H31       1.0  0.8770348830225173  0.9955061493797147  0.9584815387758637  1.0000
  H   H32       1.0  0.12296683671993948  0.0044928319319553  0.041520327555787204  1.0000
  H   H33       1.0  0.5937228886370107  0.32594269399800174  0.9657620759141565  1.0000
  H   H34       1.0  0.4062788311054532  0.6740562873136682  0.03423895464649011  1.0000
  H   H35       1.0  0.6267888117477085  0.23613614965216104  0.8716944716222131  1.0000
  H   H36       1.0  0.3732122628928778  0.7638617880284002  0.12830634541380434  1.0000
  H   H37       1.0  0.7673310983772765  0.2671382554293373  0.9005077451156609  1.0000
  H   H38       1.0  0.23267097309236098  0.732859682251224  0.09949286140564349  1.0000
  H   H39       1.0  0.9971446089161302  0.0996479857206083  0.2456727696226366  1.0000
  H   H40       1.0  0.0028561139972750876  0.9003509955910616  0.7543284714527303  1.0000
  H   H41       1.0  0.905580603957553  0.9877227485554272  0.3682892483071072  1.0000
  H   H42       1.0  0.09441877039962068  0.0122772763873513  0.6317109557803207  1.0000
  H   H43       1.0  0.8728953802731921  0.15515454997917297  0.3584820082408982  1.0000
  H   H44       1.0  0.12710434581115487  0.8448444313324971  0.641519443349182  1.0000
  H   H45       1.0  0.7519605964676046  0.3563541045664707  0.1991752822562418  1.0000
  H   H46       1.0  0.2480424134786148  0.6436469640074237  0.8008219964986621  1.0000
  H   H47       1.0  0.6610861733191911  0.35928670798779905  0.0893878113870271  1.0000
  H   H48       1.0  0.33891718835420903  0.6407133169549866  0.910609879099532  1.0000
  H   H49       1.0  0.8485882204189606  0.3208581232262304  0.06692398117937161  1.0000
  H   H50       1.0  0.15141484787974235  0.6791398144543309  0.933075579056215  1.0000
  C   C1        1.0  0.2807212383206447  0.4114995724607056  0.2576329937415593  1.0000
  C   C2        1.0  0.7192771392074704  0.58850045248208  0.7423674208605817  1.0000
  C   C3        1.0  0.16475432611427718  0.5155704668288479  0.2863094478227737  1.0000
  C   C4        1.0  0.8352436996866575  0.4844306017450464  0.713689719276715  1.0000
  C   C5        1.0  0.03174462958669012  0.5648194189471027  0.24263006121140757  1.0000
  C   C6        1.0  0.9682521060104818  0.4351795623645671  0.7573703503808317  1.0000
  C   C7        1.0  0.007406438361179804  0.5116526756389349  0.16892122474987292  1.0000
  C   C8        1.0  0.9925919975194046  0.4883442184105179  0.8310806355619607  1.0000
  C   C9        1.0  0.11637067871789955  0.4100927577233549  0.14068549924402157  1.0000
  C   C10       1.0  0.88362840226457  0.5899051799572064  0.8593149030504321  1.0000
  C   C11       1.0  0.25300475986928456  0.3573184197128469  0.18436031479105708  1.0000
  C   C12       1.0  0.7469946144878816  0.6426816052299388  0.8156398892963709  1.0000
  C   C13       1.0  0.3548941877042679  0.2503378818078161  0.1478663797404707  1.0000
  C   C14       1.0  0.6451055383800791  0.7496610995038608  0.8521342360786123  1.0000
  C   C15       1.0  0.5650029831087195  0.0720470737335006  0.1346119286250413  1.0000
  C   C16       1.0  0.4349960395212662  0.9279539948403936  0.8653886995017286  1.0000
  C   C17       1.0  0.7033153507882944  0.0983966720187723  0.06097208176714015  1.0000
  C   C18       1.0  0.296685723852292  0.901601265661796  0.9390295710398818  1.0000
  C   C19       1.0  0.8108200271047679  0.075220755941416  0.14620328244208028  1.0000
  C   C20       1.0  0.18918034408145698  0.9247792690013625  0.8537975469016317  1.0000
  C   C21       1.0  0.08108369194432191  0.6591480168960118  0.4005205182706959  1.0000
  C   C22       1.0  0.9189146855837932  0.3408520080467738  0.599479896331445  1.0000
  C   C23       1.0  0.13150162439256974  0.6735543007493803  0.49969569425330457  1.0000
  C   C24       1.0  0.8684960496811839  0.32644781145562973  0.5003030611145219  1.0000
  C   C25       1.0  0.7769974875950183  0.9842182352853897  0.012688219861395495  1.0000
  C   C26       1.0  0.2230045838746193  0.0157797023951716  0.9873132224309132  1.0000
  C   C27       1.0  0.6706910188853569  0.24042234262418566  0.9437909429576621  1.0000
  C   C28       1.0  0.32931105258428056  0.7595755950563756  0.05620966356364923  1.0000
  C   C29       1.0  0.8957238928288547  0.0965817975171035  0.3022416639346943  1.0000
  C   C30       1.0  0.10427512980113823  0.9034192710567908  0.6977589641920686  1.0000
  C   C31       1.0  0.7589691309551441  0.3067294452483296  0.13857517248570866  1.0000
  C   C32       1.0  0.24103423071824887  0.693270579694456  0.8614233537718478  1.0000
  N   N1        1.0  0.47979592622049677  0.17092799058767844  0.18788043852345024  1.0000
  N   N2        1.0  0.5202044449657278  0.8290720343551072  0.8121195550492573  1.0000
  N   N3        1.0  0.7776068945604493  0.15759351588508966  0.22008811013957094  1.0000
  N   N4        1.0  0.22239412172765338  0.8424075526888046  0.7799112611867614  1.0000
  N   N5        1.0  0.6608285927625843  0.9046382321941949  0.479694355830766  1.0000
  N   N6        1.0  0.3391720717983375  0.0953638800108081  0.5203062753059058  1.0000
  N   N7        1.0  0.6953545990900665  0.8195885584513434  0.4394433257144428  1.0000
  N   N8        1.0  0.30464542036898473  0.18041251012255097  0.560557091897607  1.0000
  N   N9        1.0  0.7280298371467068  0.7318640581715314  0.4041041815149953  1.0000
  N   N10       1.0  0.271970827414215  0.2681380540334786  0.5958964496216836  1.0000
  N   N11       1.0  0.612378329364155  0.2003364716586731  0.4951803723062084  1.0000
  N   N12       1.0  0.3876209866405346  0.7996666841774385  0.504818386071527  1.0000
  N   N13       1.0  0.6632337604014893  0.11869007896811472  0.5973443323675411  1.0000
  N   N14       1.0  0.33676555560320043  0.881313076868004  0.4026552617811987  1.0000
  N   N15       1.0  0.7148688318265782  0.043526722737787814  0.6944256728948092  1.0000
  N   N16       1.0  0.28512913562187964  0.9564774767294396  0.3055745558079862  1.0000
  N   N17       1.0  0.5407785496673227  0.5725120238647534  0.36692334536401466  1.0000
  N   N18       1.0  0.4592184209520767  0.42749217560247393  0.6330737507694977  1.0000
  N   N19       1.0  0.6009671903085234  0.6162213820469304  0.2627725041939755  1.0000
  N   N20       1.0  0.3990334742524055  0.3837807301580796  0.7372256196297045  1.0000
  N   N21       1.0  0.6579718164377936  0.6596531343536328  0.1626402386103933  1.0000
  N   N22       1.0  0.3420301966793671  0.3403479342202615  0.8373589222012257  1.0000
  O   O1        1.0  0.406507561585009  0.3719501278861443  0.2975026384074866  1.0000
  O   O2        1.0  0.5934901124887446  0.6280519843188586  0.7024969527313444  1.0000
  O   O3        1.0  0.19670543515770325  0.5624722925789385  0.35936150953624957  1.0000
  O   O4        1.0  0.803292590643224  0.4375287759949558  0.6406376575632392  1.0000
