data_image0
_chemical_formula_structural       NiMo8H22C16N8O28
_chemical_formula_sum              "Ni1 Mo8 H22 C16 N8 O28"
_cell_length_a       9.838385878611072
_cell_length_b       10.19754819330103
_cell_length_c       10.524436302544203
_cell_angle_alpha    107.92169877863347
_cell_angle_beta     91.14557724671715
_cell_angle_gamma    116.20617577252234

_space_group_name_H-M_alt    "P 1"
_space_group_IT_number       1

loop_
  _space_group_symop_operation_xyz
  'x, y, z'

loop_
  _atom_site_type_symbol
  _atom_site_label
  _atom_site_symmetry_multiplicity
  _atom_site_fract_x
  _atom_site_fract_y
  _atom_site_fract_z
  _atom_site_occupancy
  Ni  Ni1       1.0  0.9999987272042858  4.245736775021528e-07  1.0949568149903223e-06  1.0000
  Mo  Mo1       1.0  0.8090612180661553  0.7188096758836764  0.6366086245792673  1.0000
  Mo  Mo2       1.0  0.1909371416613865  0.2811896970715964  0.3633914891119119  1.0000
  Mo  Mo3       1.0  0.4863310468149393  0.5289139625860103  0.782774684981959  1.0000
  Mo  Mo4       1.0  0.5136693344018042  0.47108538527156435  0.21722545699525136  1.0000
  Mo  Mo5       1.0  0.2695467739414426  0.15862546397033842  0.5959605556824172  1.0000
  Mo  Mo6       1.0  0.7304521431882803  0.8413750880926257  0.4040389788859571  1.0000
  Mo  Mo7       1.0  0.5844225190173516  0.36451806805598613  0.4572675654125646  1.0000
  Mo  Mo8       1.0  0.4155794219774906  0.6354824241473765  0.5427339050579505  1.0000
  H   H1        1.0  0.5374535679008333  0.2240498565408586  0.929552264006375  1.0000
  H   H2        1.0  0.46255003693188  0.7759541507725273  0.07044936256880871  1.0000
  H   H3        1.0  0.5032649833475347  0.06377759678021988  0.7790382214522324  1.0000
  H   H4        1.0  0.4967349319737623  0.936222909414319  0.2209641674688072  1.0000
  H   H5        1.0  0.7937976608239268  0.10956329012063289  0.219750890243418  1.0000
  H   H6        1.0  0.20620281189955858  0.8904383951815975  0.7802509195548166  1.0000
  H   H7        1.0  0.6734090701190638  0.1005511422915291  0.6071311016849563  1.0000
  H   H8        1.0  0.3265888362660617  0.8994494223202808  0.3928684187404059  1.0000
  H   H9        1.0  0.01767471308325248  0.6423617938236676  0.9064779693206831  1.0000
  H   H10       1.0  0.982326142397625  0.357636417909987  0.09351803223958655  1.0000
  H   H11       1.0  0.7927849925801239  0.4761966794780079  0.9912138445615922  1.0000
  H   H12       1.0  0.20721640356556753  0.5238026669372362  0.008785364822081532  1.0000
  H   H13       1.0  0.06739446971683798  0.52038469050823  0.6744481760024853  1.0000
  H   H14       1.0  0.9326038068726562  0.4796123672154309  0.3255483763945719  1.0000
  H   H15       1.0  0.7722274381436735  0.0071343747624937025  0.7969970102955912  1.0000
  H   H16       1.0  0.22777192395978565  0.9928649634308754  0.2030050110117116  1.0000
  H   H17       1.0  0.8939488372646666  0.2661147837528119  0.5446717203836826  1.0000
  H   H18       1.0  0.1060489776137175  0.7338834434143423  0.4553261322206552  1.0000
  H   H19       1.0  0.7994897976548428  0.748147675890408  0.027818609941000775  1.0000
  H   H20       1.0  0.20050855788835517  0.2518516859583427  0.9721824504867342  1.0000
  H   H21       1.0  0.9072709563081389  0.8374850122366054  0.1750380856532203  1.0000
  H   H22       1.0  0.0927284099796637  0.16251433706328564  0.8249629889175268  1.0000
  C   C1        1.0  0.5918434362224472  0.16472965102676076  0.8617377251849659  1.0000
  C   C2        1.0  0.40815805142998585  0.8352720328331459  0.1382631520197322  1.0000
  C   C3        1.0  0.7637535206212931  0.098215905797737  0.1155841784218978  1.0000
  C   C4        1.0  0.23624750532003694  0.9017869475056628  0.8844179989900809  1.0000
  C   C5        1.0  0.7458970463054585  0.21770320573724428  0.6797259047241511  1.0000
  C   C6        1.0  0.25410232416668777  0.7822961546691829  0.3202742231100473  1.0000
  C   C7        1.0  0.7168660475459347  0.27424267266448515  0.8082557585234155  1.0000
  C   C8        1.0  0.2831338719597127  0.7257578446365757  0.1917456836610754  1.0000
  C   C9        1.0  0.9415183692513978  0.5214089995117915  0.8442738811752974  1.0000
  C   C10       1.0  0.05848082239160851  0.478585697111832  0.15572196428029628  1.0000
  C   C11       1.0  0.8153646763759212  0.4293952238498023  0.8906224437128002  1.0000
  C   C12       1.0  0.1846366198943485  0.5706017629077351  0.10937699132294651  1.0000
  C   C13       1.0  0.969585350645133  0.4579442500435462  0.7172772211852843  1.0000
  C   C14       1.0  0.030412925944354227  0.5420528076801149  0.2827193312117657  1.0000
  C   C15       1.0  0.754402585790963  0.044126413103036596  0.9006831653337529  1.0000
  C   C16       1.0  0.24559677631249605  0.9558729250903399  0.09931885597354306  1.0000
  N   N1        1.0  0.6684307415687769  0.1457163856545804  0.07890400301869961  1.0000
  N   N2        1.0  0.3315728590795928  0.8542876105522836  0.9210985702930399  1.0000
  N   N3        1.0  0.8705096171068902  0.30967691030928535  0.6394798199232525  1.0000
  N   N4        1.0  0.129491230005307  0.6903212792113181  0.3605180751101216  1.0000
  N   N5        1.0  0.8197689933553534  0.035387774487766394  0.008267988209936995  1.0000
  N   N6        1.0  0.18023147936813166  0.9646139108144636  0.9917338215882977  1.0000
  N   N7        1.0  0.664514991741285  0.11046921963029631  0.9424818099569449  1.0000
  N   N8        1.0  0.33548704494464227  0.8895336211242509  0.0575203815980387  1.0000
  O   O1        1.0  0.956255107362395  0.6971339267670658  0.5651585942879791  1.0000
  O   O2        1.0  0.043744263109744  0.3028654336393544  0.4348415335462192  1.0000
  O   O3        1.0  0.1189798248184246  0.1761455283705899  0.6681576543452366  1.0000
  O   O4        1.0  0.881020198746988  0.8238573596947064  0.3318426154506184  1.0000
  O   O5        1.0  0.6259074663831896  0.6215527514327662  0.9273636974851058  1.0000
  O   O6        1.0  0.3740965128382285  0.37844776009899317  0.07263401432522441  1.0000
  O   O7        1.0  0.4799556728988605  0.19484248357639442  0.4974532888061276  1.0000
  O   O8        1.0  0.5200441592843887  0.8051557073865396  0.5025455388207832  1.0000
  O   O9        1.0  0.2549184484961274  0.9870115837180367  0.6028133412672645  1.0000
  O   O10       1.0  0.7450799154157579  0.012987800343758203  0.3971858256873658  1.0000
  O   O11       1.0  0.3253422990089446  0.5326010564302024  0.8367606209586568  1.0000
  O   O12       1.0  0.6746590887680597  0.4673982677719977  0.1632404818981144  1.0000
  O   O13       1.0  0.5576180521399009  0.6962986434562595  0.7054347915192452  1.0000
  O   O14       1.0  0.4423807651144003  0.3036995489489983  0.2945649687012093  1.0000
  O   O15       1.0  0.8860517496056204  0.8205838885394529  0.8084628267296735  1.0000
  O   O16       1.0  0.11394837383520702  0.17942135918355007  0.1915372174141012  1.0000
  O   O17       1.0  0.7356552842727168  0.3454322342061004  0.3947756874174644  1.0000
  O   O18       1.0  0.264345645977528  0.6545682705461148  0.6052257689100387  1.0000
  O   O19       1.0  0.6285215158210845  0.5863722878998275  0.4477638631538881  1.0000
  O   O20       1.0  0.3714757291020875  0.41362472684006246  0.5522374087829149  1.0000
  O   O21       1.0  0.6828046263955015  0.5088553854445124  0.6430406543479066  1.0000
  O   O22       1.0  0.3171967571971663  0.4911439276511658  0.3569613952454205  1.0000
  O   O23       1.0  0.4328139376475164  0.31514620711053715  0.7445305172058738  1.0000
  O   O24       1.0  0.5671858903513893  0.6848519727458681  0.2554692571575927  1.0000
  O   O25       1.0  0.9076320298145149  0.8209310396386444  0.07675323552994234  1.0000
  O   O26       1.0  0.0923678938754691  0.1790694887689455  0.9232472599179928  1.0000
  O   O27       1.0  0.8079912689002029  0.8848935226251841  0.5896827338884094  1.0000
  O   O28       1.0  0.19200754835409842  0.11510466978006659  0.410317026332045  1.0000
