data_image0
_chemical_formula_structural       Zn4H28C28N4O24
_chemical_formula_sum              "Zn4 H28 C28 N4 O24"
_cell_length_a       5.2895034381749895
_cell_length_b       11.417189953061843
_cell_length_c       13.73039107742708
_cell_angle_alpha    90.00001641283586
_cell_angle_beta     93.35018096888919
_cell_angle_gamma    89.99965282559324

_space_group_name_H-M_alt    "P 1"
_space_group_IT_number       1

loop_
  _space_group_symop_operation_xyz
  'x, y, z'

loop_
  _atom_site_type_symbol
  _atom_site_label
  _atom_site_symmetry_multiplicity
  _atom_site_fract_x
  _atom_site_fract_y
  _atom_site_fract_z
  _atom_site_occupancy
  Zn  Zn1       1.0  0.07688220042118132  0.6362186755265995  0.9674015077729127  1.0000
  Zn  Zn2       1.0  0.42310924737851974  0.13622477500115338  0.5325999502650449  1.0000
  Zn  Zn3       1.0  0.9231085035249507  0.3637783482714384  0.03259969496713921  1.0000
  Zn  Zn4       1.0  0.5768871827967744  0.8637792557675329  0.4673992138845764  1.0000
  H   H1        1.0  0.9052044565879386  0.5388740009510257  0.13717505285490014  1.0000
  H   H2        1.0  0.5947844342415393  0.0388704677682554  0.3628257226146162  1.0000
  H   H3        1.0  0.09478626242940888  0.46111951935790074  0.8628254219353624  1.0000
  H   H4        1.0  0.40521764701819063  0.9611283077596865  0.637175042692306  1.0000
  H   H5        1.0  0.647504793916639  0.5688186487085147  0.06903671369889963  1.0000
  H   H6        1.0  0.8524856558247721  0.06881884121734322  0.4309597449544072  1.0000
  H   H7        1.0  0.3524859250944914  0.431175747472672  0.9309637610913986  1.0000
  H   H8        1.0  0.1475165006729284  0.9311790584380475  0.5690373806042289  1.0000
  H   H9        1.0  0.9109191886880198  0.055393384416682116  0.212036514696969  1.0000
  H   H10       1.0  0.5890866012779767  0.5554003723764112  0.2879603302080086  1.0000
  H   H11       1.0  0.08909992093865782  0.9446062669617492  0.7879654143343091  1.0000
  H   H12       1.0  0.410913616280368  0.44460978949326346  0.712038930780672  1.0000
  H   H13       1.0  0.6177358595340863  0.0215465449024919  0.06735191692148852  1.0000
  H   H14       1.0  0.8822608671132174  0.521548417086713  0.4326483228515202  1.0000
  H   H15       1.0  0.38228321998745696  0.9784548582205874  0.9326514680091694  1.0000
  H   H16       1.0  0.11773173052133504  0.4784521101979494  0.5673529283080827  1.0000
  H   H17       1.0  0.6845777695983203  0.8431532283974122  0.9616407360972448  1.0000
  H   H18       1.0  0.8154180874904073  0.3431578529911405  0.5383612487944733  1.0000
  H   H19       1.0  0.3154223728090741  0.15684554713314466  0.038362164639217204  1.0000
  H   H20       1.0  0.18457834272840756  0.6568400466717108  0.4616379153548922  1.0000
  H   H21       1.0  0.2258447564501864  0.7390003341790532  0.8079504905245616  1.0000
  H   H22       1.0  0.27416041226081944  0.2389980742200777  0.6920499074199926  1.0000
  H   H23       1.0  0.7741573548649543  0.2610036965823567  0.19204881888327216  1.0000
  H   H24       1.0  0.725830351852075  0.7610015771945129  0.30794838352156273  1.0000
  H   H25       1.0  0.48228553226221754  0.6915978014071129  0.8633916317023991  1.0000
  H   H26       1.0  0.0177165067826337  0.1916032002387595  0.63660939345575  1.0000
  H   H27       1.0  0.5177164888058883  0.3084018499933308  0.13661204540316876  1.0000
  H   H28       1.0  0.9822761510435356  0.8083964511734081  0.3633889459052213  1.0000
  C   C1        1.0  0.1572567124878432  0.8035188879707181  0.12580360096117002  1.0000
  C   C2        1.0  0.3427361495996167  0.3035217269825311  0.37420071353285084  1.0000
  C   C3        1.0  0.8427585946410616  0.19648426690168463  0.8741989591810938  1.0000
  C   C4        1.0  0.6572526455247286  0.6964840555406157  0.6258011687378089  1.0000
  C   C5        1.0  0.12910603373551774  0.898842733450863  0.18860698972029877  1.0000
  C   C6        1.0  0.37088362668593794  0.39884636935325096  0.31139510034317663  1.0000
  C   C7        1.0  0.8709035922659824  0.1011586696842883  0.8113954251636672  1.0000
  C   C8        1.0  0.6291109549151342  0.6011576614176875  0.6886018315380726  1.0000
  C   C9        1.0  0.9338928595319302  0.9788613899959345  0.16596483822229402  1.0000
  C   C10       1.0  0.5661069044493559  0.4788640583862929  0.3340327694508575  1.0000
  C   C11       1.0  0.06611864513028108  0.0211408890091107  0.8340383530307637  1.0000
  C   C12       1.0  0.433893373331685  0.5211408482495729  0.665963579739007  1.0000
  C   C13       1.0  0.770781924639934  0.9601082937767415  0.08451222951420331  1.0000
  C   C14       1.0  0.7292143180984142  0.46011230431296474  0.4154852797782597  1.0000
  C   C15       1.0  0.229237230094718  0.039895736962826306  0.9154875156683036  1.0000
  C   C16       1.0  0.2707650084346654  0.5398969817113652  0.5845163603955046  1.0000
  C   C17       1.0  0.8074756901301401  0.8624905281310334  0.026301650342397006  1.0000
  C   C18       1.0  0.6925313466297353  0.3624955149296269  0.4736990048193449  1.0000
  C   C19       1.0  0.192545328243746  0.13751087498944506  0.9736995991587138  1.0000
  C   C20       1.0  0.3074555848615931  0.6375120193403632  0.5263013731326753  1.0000
  C   C21       1.0  0.3751216389429857  0.7175088288973726  0.13860714971253432  1.0000
  C   C22       1.0  0.12487614117561213  0.2175113494901169  0.36140162224620553  1.0000
  C   C23       1.0  0.6248822306869145  0.282492574245353  0.8613987596614553  1.0000
  C   C24       1.0  0.8751390606847806  0.7824839225323218  0.6386060335432833  1.0000
  C   C25       1.0  0.3047247103582151  0.9253937047142103  0.27616310753545303  1.0000
  C   C26       1.0  0.19526272462348973  0.42539515403045414  0.22383675244266507  1.0000
  C   C27       1.0  0.6952887181161956  0.0746076984160311  0.7238386762376694  1.0000
  C   C28       1.0  0.8047337958982937  0.5745992421429946  0.7761580440086465  1.0000
  N   N1        1.0  0.9973612906339684  0.7871048359016869  0.04671394550645402  1.0000
  N   N2        1.0  0.502642998687172  0.28710855582836814  0.4532880625173093  1.0000
  N   N3        1.0  0.0026540465938608986  0.21289744309833486  0.9532871587364656  1.0000
  N   N4        1.0  0.4973533562501515  0.7128963508128692  0.5467147413805977  1.0000
  O   O1        1.0  0.3775079734000429  0.6341599420143782  0.07534238659872733  1.0000
  O   O2        1.0  0.12248168676801899  0.1341624755649775  0.4246581289636425  1.0000
  O   O3        1.0  0.6224846392870732  0.3658397093979602  0.9246581366111928  1.0000
  O   O4        1.0  0.8775243023325956  0.8658301688518079  0.5753369095846355  1.0000
  O   O5        1.0  0.5409971051883603  0.7327181416283749  0.20584562068324896  1.0000
  O   O6        1.0  0.958989049112212  0.23271892205177383  0.2941544427751951  1.0000
  O   O7        1.0  0.4589974163019051  0.2672753786756418  0.7941542229961771  1.0000
  O   O8        1.0  0.041024635187469  0.7672772258438912  0.7058349658536617  1.0000
  O   O9        1.0  0.2792878271012995  0.8666472371816596  0.3551254841017696  1.0000
  O   O10       1.0  0.22070045679885203  0.3666503644730384  0.14487364309647435  1.0000
  O   O11       1.0  0.7207180867489102  0.13334803485221164  0.6448731941948724  1.0000
  O   O12       1.0  0.7792921710154274  0.6333379005998269  0.8551261521633295  1.0000
  O   O13       1.0  0.45216460159515043  0.010435452454189  0.26617084292258403  1.0000
  O   O14       1.0  0.04781922486991871  0.5104416645263187  0.2338301967389996  1.0000
  O   O15       1.0  0.5478506754970028  0.9895598195679582  0.7338331731186545  1.0000
  O   O16       1.0  0.9521621910971165  0.48955097992183033  0.7661620285080348  1.0000
  O   O17       1.0  0.8267117690143523  0.5380656677200337  0.06670104058178343  1.0000
  O   O18       1.0  0.6732771784233194  0.038062816674028  0.43329755097234124  1.0000
  O   O19       1.0  0.17327898002110234  0.4619383630559284  0.9332979783096038  1.0000
  O   O20       1.0  0.32672299405813027  0.9619385864731954  0.5667038938649329  1.0000
  O   O21       1.0  0.31190818194024666  0.7258323637111773  0.8730470425527914  1.0000
  O   O22       1.0  0.18809905230703813  0.22583644859055602  0.6269541306783852  1.0000
  O   O23       1.0  0.6880958080604671  0.2741690394310794  0.1269530432239989  1.0000
  O   O24       1.0  0.8118935754015624  0.77416670631078  0.3730456645820298  1.0000
