data_image0
_chemical_formula_structural       Cu4H64C64S8Cl4
_chemical_formula_sum              "Cu4 H64 C64 S8 Cl4"
_cell_length_a       7.2569138580292964
_cell_length_b       11.91442295738196
_cell_length_c       20.56892170920097
_cell_angle_alpha    90.00049192620615
_cell_angle_beta     89.99976229336998
_cell_angle_gamma    104.40737727521268

_space_group_name_H-M_alt    "P 1"
_space_group_IT_number       1

loop_
  _space_group_symop_operation_xyz
  'x, y, z'

loop_
  _atom_site_type_symbol
  _atom_site_label
  _atom_site_symmetry_multiplicity
  _atom_site_fract_x
  _atom_site_fract_y
  _atom_site_fract_z
  _atom_site_occupancy
  Cu  Cu1       1.0  0.06986535042783976  0.8943256460576877  0.9972839133786522  1.0000
  Cu  Cu2       1.0  0.5698617577283968  0.3943237673359901  0.5027216234122491  1.0000
  Cu  Cu3       1.0  0.9301365020271675  0.10566953618447879  0.002721658703706  1.0000
  Cu  Cu4       1.0  0.4301466998567988  0.6056671443506898  0.4972751975882943  1.0000
  H   H1        1.0  0.20565532500216926  0.5214041390900164  0.8582478887483165  1.0000
  H   H2        1.0  0.7056673215184047  0.021418134962203794  0.6417424693118933  1.0000
  H   H3        1.0  0.794344903877686  0.4785797991415777  0.1417479599001155  1.0000
  H   H4        1.0  0.29435280405552783  0.9785815039211341  0.3582606719165753  1.0000
  H   H5        1.0  0.2720395527759223  0.46604526591590195  0.7463001720613464  1.0000
  H   H6        1.0  0.772036392596867  0.9660497675943701  0.7536893858921729  1.0000
  H   H7        1.0  0.7279757193843324  0.5339560645635898  0.2536951904491361  1.0000
  H   H8        1.0  0.2279739620729515  0.03396016597971399  0.2463132691986161  1.0000
  H   H9        1.0  0.6277485384995812  0.806582482188048  0.7130768526040256  1.0000
  H   H10       1.0  0.12772622928368088  0.30657749103272636  0.7869247606794191  1.0000
  H   H11       1.0  0.3722321485614302  0.19342204544863506  0.2869214269615341  1.0000
  H   H12       1.0  0.8722669288962449  0.6934236739953263  0.2130744912094826  1.0000
  H   H13       1.0  0.5617507071478443  0.8632022112245465  0.825536995705029  1.0000
  H   H14       1.0  0.061742889412883466  0.3631992199251711  0.6744718011120909  1.0000
  H   H15       1.0  0.43823240662304397  0.1368014706073168  0.17446420087881623  1.0000
  H   H16       1.0  0.9382555877793094  0.6367872972017068  0.3255313400993671  1.0000
  H   H17       1.0  0.4348921222541903  0.7865428079591295  0.9415332543066698  1.0000
  H   H18       1.0  0.9349105048527733  0.2865565569961035  0.5584683015813212  1.0000
  H   H19       1.0  0.5650804641548176  0.21344092344804713  0.0584659975537107  1.0000
  H   H20       1.0  0.06509890126866205  0.713443865647761  0.44153338114577423  1.0000
  H   H21       1.0  0.2327346524808504  0.6646503003873645  0.9424641132943636  1.0000
  H   H22       1.0  0.732747978004511  0.16465103883061258  0.5575317802009963  1.0000
  H   H23       1.0  0.7672499394758177  0.33534302465552907  0.057531249218364194  1.0000
  H   H24       1.0  0.26726047958068483  0.8353398728560677  0.44246504079955423  1.0000
  H   H25       1.0  0.8987427756595423  0.6768479390531753  0.8914284154219912  1.0000
  H   H26       1.0  0.39877222116209055  0.17685726960294093  0.6085721605939014  1.0000
  H   H27       1.0  0.10122695047407151  0.3231461387264218  0.10856597476263372  1.0000
  H   H28       1.0  0.601256936230655  0.8231372529672781  0.39143195295602606  1.0000
  H   H29       1.0  0.8489172078067782  0.810277595280887  0.8725882236197792  1.0000
  H   H30       1.0  0.34893186192642384  0.3102672056055907  0.627410171381726  1.0000
  H   H31       1.0  0.1510700523543917  0.18972611753098786  0.12740616657615791  1.0000
  H   H32       1.0  0.6510863985686156  0.689709955713589  0.3725900527700148  1.0000
  H   H33       1.0  0.18660234001058723  0.8615066058334971  0.6546303939363511  1.0000
  H   H34       1.0  0.6866029071260015  0.3615008854292654  0.8453694629407379  1.0000
  H   H35       1.0  0.8134049769401628  0.13849552909806556  0.3453644824115187  1.0000
  H   H36       1.0  0.31340127602165063  0.6385038180383376  0.1546302751193522  1.0000
  H   H37       1.0  0.11385421665951877  0.9088631612920752  0.7673151295692833  1.0000
  H   H38       1.0  0.613873455063647  0.40885601291248713  0.732685068099407  1.0000
  H   H39       1.0  0.8861445020394498  0.0911345893816389  0.2326802329442472  1.0000
  H   H40       1.0  0.38613871531291716  0.591144430395957  0.2673136976036048  1.0000
  H   H41       1.0  0.8265045208594444  0.5522282598870162  0.8005648625704965  1.0000
  H   H42       1.0  0.3264965151961547  0.052229070464768795  0.6994337391324876  1.0000
  H   H43       1.0  0.17348964991678173  0.44777550463685856  0.1994295276205733  1.0000
  H   H44       1.0  0.6735087445410669  0.9477713211856055  0.300572805301087  1.0000
  H   H45       1.0  0.8982579945983389  0.50473811651338  0.6874075697373101  1.0000
  H   H46       1.0  0.3982417286462479  0.0047352556277787  0.8125887472449591  1.0000
  H   H47       1.0  0.10174784418180846  0.4952743751734515  0.3125882789781116  1.0000
  H   H48       1.0  0.601747652667065  0.9952632892735735  0.1874231450694168  1.0000
  H   H49       1.0  0.07355392838283584  0.6886390300097885  0.5586823809254327  1.0000
  H   H50       1.0  0.5735376483671146  0.18863538239143898  0.9413201822114131  1.0000
  H   H51       1.0  0.9264479240979709  0.3113561521750797  0.4413149262608656  1.0000
  H   H52       1.0  0.42647368686441905  0.8113806064192627  0.0586839314048007  1.0000
  H   H53       1.0  0.07826300820991607  0.5523144672903938  0.5908018552401444  1.0000
  H   H54       1.0  0.5782445660919606  0.05230430873269401  0.9091980779448363  1.0000
  H   H55       1.0  0.921740435867612  0.44769541452113504  0.40919350730015935  1.0000
  H   H56       1.0  0.4217442856052144  0.9477141038406598  0.0908138144193558  1.0000
  H   H57       1.0  0.3985168345536395  0.5106031544809896  0.6413982413901422  1.0000
  H   H58       1.0  0.8984890335609065  0.010592221931034396  0.8585942150322055  1.0000
  H   H59       1.0  0.6014932146313186  0.48940245682561556  0.3585956626236992  1.0000
  H   H60       1.0  0.10149592791335488  0.9893985139786565  0.1414089261995173  1.0000
  H   H61       1.0  0.6207708212227773  0.6145084053730302  0.6376519105884313  1.0000
  H   H62       1.0  0.12075225140448959  0.1144975796312266  0.8623463260083568  1.0000
  H   H63       1.0  0.3792367372043871  0.3855049631727852  0.3623449104686429  1.0000
  H   H64       1.0  0.8792296082921638  0.8854922690939302  0.1376582737344663  1.0000
  C   C1        1.0  0.3009430618334503  0.584302216346124  0.8270236852659779  1.0000
  C   C2        1.0  0.8009604558645974  0.08430977517446078  0.6729726821458115  1.0000
  C   C3        1.0  0.6990428802207447  0.41569457475974053  0.1729750804468964  1.0000
  C   C4        1.0  0.19905447873522059  0.9156906888693398  0.32703337611059885  1.0000
  C   C5        1.0  0.3372174599696578  0.5531259224946224  0.7637796244829006  1.0000
  C   C6        1.0  0.8372206698474329  0.05313079909686991  0.7362145906751252  1.0000
  C   C7        1.0  0.6627691251298486  0.44687605731441954  0.23621719656099316  1.0000
  C   C8        1.0  0.16278661505658212  0.9468747916024468  0.26379049525885995  1.0000
  C   C9        1.0  0.4485383498653163  0.6333605085919628  0.7212271970787327  1.0000
  C   C10       1.0  0.948533097307944  0.13335554608432426  0.7787706596903947  1.0000
  C   C11       1.0  0.5514574765206389  0.36665104420170275  0.2787705963230138  1.0000
  C   C12       1.0  0.05147667834778957  0.8666422873892614  0.22123345388177282  1.0000
  C   C13       1.0  0.5348996251287517  0.7442918974700703  0.7451187943754931  1.0000
  C   C14       1.0  0.03489204430862708  0.24428484277969886  0.7548821568936006  1.0000
  C   C15       1.0  0.46509107431279517  0.2557135690901119  0.2548819160369575  1.0000
  C   C16       1.0  0.9651301704557296  0.7557130837721215  0.24512147049944838  1.0000
  C   C17       1.0  0.4988423869357774  0.7756011395262661  0.8080196190608007  1.0000
  C   C18       1.0  0.9988479622426638  0.27560369045458094  0.6919847069629057  1.0000
  C   C19       1.0  0.5011432175716521  0.22439478511357439  0.19198546686479295  1.0000
  C   C20       1.0  0.0011583741205569255  0.7243923892976694  0.3080169757555993  1.0000
  C   C21       1.0  0.3754675829080226  0.6972989316974747  0.849223423414024  1.0000
  C   C22       1.0  0.8754751351922536  0.19730178812524465  0.650774857163711  1.0000
  C   C23       1.0  0.6245228430437706  0.30269875694206405  0.1507748561274838  1.0000
  C   C24       1.0  0.12452530314006796  0.802696839437793  0.3492258532246879  1.0000
  C   C25       1.0  0.31335640766039324  0.7371282260603635  0.9129079947401877  1.0000
  C   C26       1.0  0.8133636185799418  0.23713537779276092  0.5870827950988868  1.0000
  C   C27       1.0  0.6866233948895227  0.2628598792353003  0.0870868815926542  1.0000
  C   C28       1.0  0.18665309973757613  0.7628590516250779  0.41291110888230526  1.0000
  C   C29       1.0  0.9507355923899466  0.7572037221968414  0.8635778227671267  1.0000
  C   C30       1.0  0.45075353349396596  0.25720557825782453  0.6364216195021228  1.0000
  C   C31       1.0  0.0492592854430711  0.2427983196767158  0.1364204567819982  1.0000
  C   C32       1.0  0.5492743058069891  0.7427820225726761  0.36358200786117584  1.0000
  C   C33       1.0  0.10479907962875486  0.7935842820864064  0.6863315082930869  1.0000
  C   C34       1.0  0.6048022714255625  0.29357727631427366  0.8136695872721091  1.0000
  C   C35       1.0  0.8951947536113278  0.2064186159478538  0.3136657989182083  1.0000
  C   C36       1.0  0.3952109435363482  0.7064223108503211  0.1863325816205119  1.0000
  C   C37       1.0  0.06497864083878818  0.8200935836708111  0.7497880164709514  1.0000
  C   C38       1.0  0.5649908591685815  0.32008662661549186  0.7502142409024657  1.0000
  C   C39       1.0  0.935013199256943  0.17990065960066903  0.250208318379542  1.0000
  C   C40       1.0  0.4350165217951698  0.6799085969592014  0.24978598330208257  1.0000
  C   C41       1.0  0.9721386724798577  0.7327839032520556  0.7926868160045261  1.0000
  C   C42       1.0  0.4721589991572515  0.23277985155139905  0.7073139322990514  1.0000
  C   C43       1.0  0.0278537786341744  0.2672189844465435  0.20731146354845723  1.0000
  C   C44       1.0  0.5278536047620576  0.7672110912400071  0.29269407061677555  1.0000
  C   C45       1.0  0.9046123397238546  0.620569607317421  0.7684043209396806  1.0000
  C   C46       1.0  0.40461347055404673  0.1205700697154342  0.7315959665103977  1.0000
  C   C47       1.0  0.09537664007978451  0.3794349823635556  0.23159250010897384  1.0000
  C   C48       1.0  0.5953983622651221  0.8794295071505686  0.2684125225978349  1.0000
  C   C49       1.0  0.945111919864715  0.5937483048774866  0.7048500912530784  1.0000
  C   C50       1.0  0.4451047306221269  0.0937469972329765  0.79514854567946  1.0000
  C   C51       1.0  0.054879454650645663  0.4062588946585634  0.2951442989485571  1.0000
  C   C52       1.0  0.5548897136150118  0.9062645452755831  0.20485751261931986  1.0000
  C   C53       1.0  0.053419342169121406  0.6788107455884003  0.6639980521524436  1.0000
  C   C54       1.0  0.5534199357677922  0.1788083509957517  0.8360020603071661  1.0000
  C   C55       1.0  0.9465772233036489  0.3211956288242631  0.3359987688951733  1.0000
  C   C56       1.0  0.446571808265169  0.8211962594070953  0.16400010861347175  1.0000
  C   C57       1.0  0.1241539003221135  0.6458749079413977  0.5999542118554757  1.0000
  C   C58       1.0  0.6241475529031106  0.14587076046039016  0.9000475791553911  1.0000
  C   C59       1.0  0.8758482576815182  0.3541245964266936  0.40003969214886587  1.0000
  C   C60       1.0  0.3758499930934319  0.8541416692731473  0.0999628546765692  1.0000
  C   C61       1.0  0.4704109284923561  0.6014923478057455  0.6514971462540089  1.0000
  C   C62       1.0  0.9703907762421552  0.10148305994343328  0.8484927415822341  1.0000
  C   C63       1.0  0.5295932546780691  0.3985123556112953  0.348495299250736  1.0000
  C   C64       1.0  0.029590280347086575  0.8985188785364568  0.15150991350982682  1.0000
  S   S1        1.0  0.16790098186713462  0.8423581437020076  0.902283594718142  1.0000
  S   S2        1.0  0.6679202600126004  0.34236121367059263  0.5977142492143201  1.0000
  S   S3        1.0  0.8320849601825131  0.1576386474139682  0.09771662950580412  1.0000
  S   S4        1.0  0.3320923119313335  0.6576331847301518  0.402281113280857  1.0000
  S   S5        1.0  0.3841319402997172  0.6904924357411345  0.5914184420850149  1.0000
  S   S6        1.0  0.8841300234885096  0.19048930411502596  0.9085783335786815  1.0000
  S   S7        1.0  0.6158722428570371  0.30951226770623913  0.40857837895293864  1.0000
  S   S8        1.0  0.1158788850437844  0.8095275304769061  0.09141945982675281  1.0000
  Cl  Cl1       1.0  0.7553404690389128  0.9044401551014257  0.9862546687225732  1.0000
  Cl  Cl2       1.0  0.2553415141403832  0.40444449795401727  0.5137462748556914  1.0000
  Cl  Cl3       1.0  0.2446637781308496  0.0955576369890778  0.013747500172051699  1.0000
  Cl  Cl4       1.0  0.7446589562083118  0.5955506739086758  0.48625394935372407  1.0000
