data_image0
_chemical_formula_structural       Cd4H44C60N16O20
_chemical_formula_sum              "Cd4 H44 C60 N16 O20"
_cell_length_a       9.089194890020805
_cell_length_b       9.212394989003366
_cell_length_c       18.035094928074304
_cell_angle_alpha    90.00004174809692
_cell_angle_beta     100.50712246718896
_cell_angle_gamma    89.99990519506619

_space_group_name_H-M_alt    "P 1"
_space_group_IT_number       1

loop_
  _space_group_symop_operation_xyz
  'x, y, z'

loop_
  _atom_site_type_symbol
  _atom_site_label
  _atom_site_symmetry_multiplicity
  _atom_site_fract_x
  _atom_site_fract_y
  _atom_site_fract_z
  _atom_site_occupancy
  Cd  Cd1       1.0  0.8482633913850888  0.5639743850532852  0.17910086914473305  1.0000
  Cd  Cd2       1.0  0.6517356638133548  0.06397437500415751  0.3208983441945036  1.0000
  Cd  Cd3       1.0  0.1517362746169368  0.4360249721173233  0.8208990158215952  1.0000
  Cd  Cd4       1.0  0.34826289375596525  0.9360249821668847  0.6791008792559051  1.0000
  H   H1        1.0  0.6806503430932053  0.4186182515463345  0.2736543110721214  1.0000
  H   H2        1.0  0.8193492653231971  0.9186172909166858  0.22634508991210814  1.0000
  H   H3        1.0  0.3193493229114138  0.5813778491421077  0.7263455738938445  1.0000
  H   H4        1.0  0.1806504111705038  0.0813777242772957  0.7736542415675058  1.0000
  H   H5        1.0  0.6263625314713793  0.3501593864666646  0.19565434679584826  1.0000
  H   H6        1.0  0.8736371861459135  0.8501584487652779  0.30434503881977537  1.0000
  H   H7        1.0  0.3736371345323731  0.6498377997158331  0.8043455381702314  1.0000
  H   H8        1.0  0.12636137142686718  0.14983656642954196  0.6956541846301432  1.0000
  H   H9        1.0  0.705512436964099  0.27149132034672613  0.08902720143451855  1.0000
  H   H10       1.0  0.7944884831043524  0.7714939209479681  0.4109744884956043  1.0000
  H   H11       1.0  0.2944894354185621  0.7285036948471985  0.9109745600493963  1.0000
  H   H12       1.0  0.20551116192036997  0.22850652171750604  0.5890265034432999  1.0000
  H   H13       1.0  0.7625567624640723  0.09378894555174361  0.9937388501069929  1.0000
  H   H14       1.0  0.7374405662162217  0.5937932312966508  0.5062617230493841  1.0000
  H   H15       1.0  0.2374462393268573  0.9062071551350003  0.006262465920514194  1.0000
  H   H16       1.0  0.26255797037406836  0.4062093823573677  0.49373860737384206  1.0000
  H   H17       1.0  0.009327064555648705  0.11414254249168466  0.9494157205034806  1.0000
  H   H18       1.0  0.49067038990800427  0.6141432215820543  0.5505833327678216  1.0000
  H   H19       1.0  0.9906748287982551  0.8858589856657701  0.05058493400871097  1.0000
  H   H20       1.0  0.5093292865813621  0.3858572210822119  0.4494159987124034  1.0000
  H   H21       1.0  0.18510919547359347  0.3126319084379362  0.0029243760503021906  1.0000
  H   H22       1.0  0.31488850240913985  0.8126324279132151  0.49707326062748053  1.0000
  H   H23       1.0  0.8148915999349671  0.6873707052136027  0.9970750634598597  1.0000
  H   H24       1.0  0.6851111740811007  0.18736692925699572  0.5029260708526235  1.0000
  H   H25       1.0  0.3599751079770214  0.4795091543606205  0.06660153782044625  1.0000
  H   H26       1.0  0.14002229225055632  0.9795087828385931  0.4333977967788484  1.0000
  H   H27       1.0  0.6400234076350982  0.5204956302823193  0.9333998995754764  1.0000
  H   H28       1.0  0.8599762758078453  0.02048948883798831  0.5666008731852086  1.0000
  H   H29       1.0  0.4375081683934637  0.7148095337124759  0.16052142342845596  1.0000
  H   H30       1.0  0.06248855611912769  0.214810781497377  0.33947663674540945  1.0000
  H   H31       1.0  0.5624892597615272  0.2851963364241428  0.8394782454792133  1.0000
  H   H32       1.0  0.9375099909619705  0.78518857567407  0.6605231401912234  1.0000
  H   H33       1.0  0.3116186292333579  0.8182833498458777  0.26950064607287766  1.0000
  H   H34       1.0  0.1883779407150996  0.3182820651207763  0.23049688384372038  1.0000
  H   H35       1.0  0.6883798968704369  0.18171709282043486  0.730500237836331  1.0000
  H   H36       1.0  0.8116228442078394  0.6817172920489939  0.7695031091523031  1.0000
  H   H37       1.0  0.11663968545258288  0.7831949090204161  0.26293631563903824  1.0000
  H   H38       1.0  0.3833602867413433  0.2831933152383074  0.2370620839756937  1.0000
  H   H39       1.0  0.8833599700586205  0.216807704632771  0.7370641228138833  1.0000
  H   H40       1.0  0.6166382498506733  0.7168071274276001  0.7629382464472838  1.0000
  H   H41       1.0  0.09493299792772089  0.7162211573575876  0.4423729497124284  1.0000
  H   H42       1.0  0.40507269667337187  0.21622686986005854  0.05762486804394478  1.0000
  H   H43       1.0  0.9050722731653806  0.2837803707965492  0.5576269219163946  1.0000
  H   H44       1.0  0.5949269903024897  0.7837757437919067  0.9423739099502979  1.0000
  C   C1        1.0  0.8113440645684662  0.2760893723584132  0.06891839469403037  1.0000
  C   C2        1.0  0.6886546417924747  0.7760867471069802  0.43108141974966663  1.0000
  C   C3        1.0  0.18865339505377673  0.7239132412948239  0.9310796137545906  1.0000
  C   C4        1.0  0.3113450242112776  0.2239104390755174  0.5689184652164201  1.0000
  C   C5        1.0  0.843772621459216  0.1768024231194261  0.015855824221624484  1.0000
  C   C6        1.0  0.6562251138639326  0.6768053542184235  0.4841444133899129  1.0000
  C   C7        1.0  0.15622818444015957  0.8231969340495412  0.9841430618019441  1.0000
  C   C8        1.0  0.34377343321543913  0.32319617394113453  0.5158553635469687  1.0000
  C   C9        1.0  0.9802419267308763  0.1881703033828757  0.9915512906462919  1.0000
  C   C10       1.0  0.5197552723783189  0.6881706058114716  0.5084481967252258  1.0000
  C   C11       1.0  0.019758826727404297  0.8118290537881164  0.008450362808417796  1.0000
  C   C12       1.0  0.4802432747027793  0.31182875135997534  0.491551580211407  1.0000
  C   C13       1.0  0.0790861176034099  0.29713115317760963  0.02148317075744899  1.0000
  C   C14       1.0  0.4209126819715436  0.7971336439295058  0.47851678441532625  1.0000
  C   C15       1.0  0.9209146358540108  0.7028692894874313  0.9785184826973744  1.0000
  C   C16       1.0  0.5790858755986433  0.20286462774748062  0.5214824390349546  1.0000
  C   C17       1.0  0.0401387318456727  0.3914194080938814  0.07521776849156937  1.0000
  C   C18       1.0  0.4598621341917237  0.8914228438518209  0.42478353088030457  1.0000
  C   C19       1.0  0.9598597837707741  0.6085799490787805  0.9247836689037425  1.0000
  C   C20       1.0  0.5401375318102949  0.1085765133187877  0.5752163540860236  1.0000
  C   C21       1.0  0.14215677037344682  0.5059563395685843  0.10876172871390108  1.0000
  C   C22       1.0  0.35784476297152407  0.0059571790234045  0.3912367166924182  1.0000
  C   C23       1.0  0.8578428851386233  0.4940451885905406  0.8912387097388996  1.0000
  C   C24       1.0  0.6421560429278514  0.9940421781455555  0.6087621693311505  1.0000
  C   C25       1.0  0.29169775937939585  0.5346697008627929  0.10128084858350654  1.0000
  C   C26       1.0  0.20830036091280144  0.03467079525881189  0.3987178326659586  1.0000
  C   C27       1.0  0.7083007772091605  0.4653350837793369  0.8987194818399612  1.0000
  C   C28       1.0  0.7916982071464673  0.9653263909237139  0.6012808372979775  1.0000
  C   C29       1.0  0.3342308095194824  0.6535627773078616  0.14705406321859724  1.0000
  C   C30       1.0  0.16576826101907466  0.15356496117602347  0.3529436457790068  1.0000
  C   C31       1.0  0.6657677480446437  0.3464430928275135  0.8529451602325364  1.0000
  C   C32       1.0  0.8342313944947292  0.8464343959949902  0.6470567926735523  1.0000
  C   C33       1.0  0.2043427694846685  0.8092347310421389  0.23041699611636085  1.0000
  C   C34       1.0  0.29565492332686444  0.3092376690024352  0.26958119328526914  1.0000
  C   C35       1.0  0.7956557251553489  0.1907646261313332  0.769585548251406  1.0000
  C   C36       1.0  0.7043425258080233  0.6907638591571512  0.7304173686494548  1.0000
  C   C37       1.0  0.17121188324626493  0.9476623595677153  0.19128566385163734  1.0000
  C   C38       1.0  0.3287922498315651  0.4476750688456762  0.30871597223656966  1.0000
  C   C39       1.0  0.8287910346397851  0.05233265562820581  0.8087200800655621  1.0000
  C   C40       1.0  0.6712085455830488  0.5523199463474671  0.6912834672727398  1.0000
  C   C41       1.0  0.9740481666639769  0.515994532531849  0.42088196649758897  1.0000
  C   C42       1.0  0.5259543323162744  0.0159987239803101  0.07911700667379047  1.0000
  C   C43       1.0  0.0259571358981034  0.48400156815079504  0.5791162446719438  1.0000
  C   C44       1.0  0.474045312707581  0.9840028041792194  0.9208839852652344  1.0000
  C   C45       1.0  0.9192875601936378  0.39274109247873673  0.4534333570004207  1.0000
  C   C46       1.0  0.5807154357720704  0.8927435208731183  0.046566915750233265  1.0000
  C   C47       1.0  0.0807132666830412  0.607257179195365  0.5465644220505721  1.0000
  C   C48       1.0  0.41928532817269826  0.1072580072855729  0.9534341842184867  1.0000
  C   C49       1.0  0.052512776117311005  0.6215455042525377  0.46796132637904697  1.0000
  C   C50       1.0  0.4474941779358374  0.12155219635752702  0.03203713163924959  1.0000
  C   C51       1.0  0.9474936663421187  0.3784505964284648  0.5320358858477261  1.0000
  C   C52       1.0  0.5525065755198496  0.8784504172956322  0.9679645218158225  1.0000
  C   C53       1.0  0.9535385014501825  0.5339170814768722  0.3367844031292931  1.0000
  C   C54       1.0  0.5464606226675031  0.033920274253127006  0.16321369649016754  1.0000
  C   C55       1.0  0.0464623044517936  0.4660790192099213  0.6632144828939132  1.0000
  C   C56       1.0  0.45354238961078164  0.9660769119272671  0.8367870660512364  1.0000
  C   C57       1.0  0.8250811770440265  0.2781216484157484  0.40778199658897285  1.0000
  C   C58       1.0  0.6749164071520184  0.778121817277473  0.09221771028158088  1.0000
  C   C59       1.0  0.17491625111615855  0.7218777087565372  0.5922176723179644  1.0000
  C   C60       1.0  0.3250855386438474  0.2218786253839014  0.9077801767993489  1.0000
  N   N1        1.0  0.9066790156514981  0.38104139364234163  0.09807868245489704  1.0000
  N   N2        1.0  0.5933217506489256  0.8810410533631485  0.4019219250957702  1.0000
  N   N3        1.0  0.0933184020187383  0.6189601345184599  0.9019215399385061  1.0000
  N   N4        1.0  0.4066767964339064  0.11895613282018759  0.5980778518406209  1.0000
  N   N5        1.0  0.09641849059053699  0.6025968609546908  0.15593360274238674  1.0000
  N   N6        1.0  0.4035828885984428  0.10259972920852792  0.3440648643593746  1.0000
  N   N7        1.0  0.9035800564879678  0.3974057526989229  0.8440661741946156  1.0000
  N   N8        1.0  0.5964167878909307  0.8974007134557385  0.6559344671208506  1.0000
  N   N9        1.0  0.2142044362803688  0.6909505694226612  0.17827860708514714  1.0000
  N   N10       1.0  0.2857923472689023  0.19094925610641414  0.32171834075978  1.0000
  N   N11       1.0  0.7857918729537089  0.3090553007147889  0.8217209537928265  1.0000
  N   N12       1.0  0.7142062103004179  0.8090501010646279  0.6782808826906217  1.0000
  N   N13       1.0  0.1473852287947537  0.05834095782726933  0.16029142546189223  1.0000
  N   N14       1.0  0.35260838855083415  0.558332506599328  0.33970627549554405  1.0000
  N   N15       1.0  0.852611027998229  0.9416649123122056  0.8397109028472155  1.0000
  N   N16       1.0  0.6473912564712877  0.4416711925483127  0.6602947164437294  1.0000
  O   O1        1.0  0.9748718781957564  0.4258539313728917  0.2970237769229057  1.0000
  O   O2        1.0  0.5251299774940961  0.925856674321402  0.20297473477304342  1.0000
  O   O3        1.0  0.025130025650696605  0.5741421693138803  0.702976324102451  1.0000
  O   O4        1.0  0.4748697094878196  0.07413834087217451  0.7970240432203466  1.0000
  O   O5        1.0  0.9125390521486237  0.6588129552492605  0.30844580237533836  1.0000
  O   O6        1.0  0.5874643379400197  0.15881503611048942  0.19155331088737165  1.0000
  O   O7        1.0  0.0874639811060973  0.34118423093032396  0.6915538531936105  1.0000
  O   O8        1.0  0.41253642600734947  0.8411832355660424  0.8084477890809861  1.0000
  O   O9        1.0  0.714612872486178  0.3170355786905219  0.3569796539803817  1.0000
  O   O10       1.0  0.7853857685588892  0.8170345543187381  0.14302016965567785  1.0000
  O   O11       1.0  0.28538452420588817  0.6829681204592006  0.643021675385725  1.0000
  O   O12       1.0  0.21461617723437595  0.1829691448248028  0.8569777174256215  1.0000
  O   O13       1.0  0.853949484065687  0.14615161153785292  0.42458688278005485  1.0000
  O   O14       1.0  0.646049440049083  0.6461518035044236  0.07541234900749318  1.0000
  O   O15       1.0  0.14605023437742662  0.8538477456307376  0.5754102347551393  1.0000
  O   O16       1.0  0.3539502049756322  0.3538486391610577  0.9245886429314109  1.0000
  O   O17       1.0  0.6488885670255939  0.44586522523637484  0.21977627525718185  1.0000
  O   O18       1.0  0.8511121273374014  0.9458642898133932  0.2802226863872973  1.0000
  O   O19       1.0  0.35111220741085697  0.5541319609456893  0.7802242712248242  1.0000
  O   O20       1.0  0.14888754915543245  0.05413181087464382  0.7197766450924374  1.0000
