data_image0
_chemical_formula_structural       Ca2V2P4H28C24O18
_chemical_formula_sum              "Ca2 V2 P4 H28 C24 O18"
_cell_length_a       7.0301508368858885
_cell_length_b       8.848979040393854
_cell_length_c       14.797480259099084
_cell_angle_alpha    72.60534515011047
_cell_angle_beta     86.3280592927225
_cell_angle_gamma    77.59805555252123

_space_group_name_H-M_alt    "P 1"
_space_group_IT_number       1

loop_
  _space_group_symop_operation_xyz
  'x, y, z'

loop_
  _atom_site_type_symbol
  _atom_site_label
  _atom_site_symmetry_multiplicity
  _atom_site_fract_x
  _atom_site_fract_y
  _atom_site_fract_z
  _atom_site_occupancy
  Ca  Ca1       1.0  0.07114843273646436  0.27612896623499966  0.9568930189163395  1.0000
  Ca  Ca2       1.0  0.5712167952336102  0.2329262844172106  0.04316684753756307  1.0000
  V   V1        1.0  0.2934921544046459  0.759602001260042  0.9914048219018383  1.0000
  V   V2        1.0  0.7935032884401851  0.7509921672010264  0.008570736089623622  1.0000
  P   P1        1.0  0.506113917246097  0.06076078452661463  0.8800076595464219  1.0000
  P   P2        1.0  0.006262362832565321  0.9407197893755849  0.11998712544189509  1.0000
  P   P3        1.0  0.6409149689935207  0.5700126820978395  0.8797036811435319  1.0000
  P   P4        1.0  0.14102681932774175  0.44973752657948285  0.12029789726685884  1.0000
  H   H1        1.0  0.12830610941936268  0.052220368967084686  0.8488499706871266  1.0000
  H   H2        1.0  0.6283583283795267  0.900966901725141  0.1511938760785724  1.0000
  H   H3        1.0  0.9041264850692696  0.08342103202567609  0.8700541476128407  1.0000
  H   H4        1.0  0.4041784969594532  0.953378402743894  0.12991827266859696  1.0000
  H   H5        1.0  0.2442919258772419  0.552177720322632  0.8692639627012538  1.0000
  H   H6        1.0  0.7442808934045005  0.42160296298285965  0.13070815444824288  1.0000
  H   H7        1.0  0.01761355225768566  0.609613558515541  0.856390245469612  1.0000
  H   H8        1.0  0.517604409753453  0.4661549929294181  0.14356146687896398  1.0000
  H   H9        1.0  0.30046431538870877  0.34185393546250287  0.7360972155249071  1.0000
  H   H10       1.0  0.8006994886429339  0.07806928657687706  0.26376270911878663  1.0000
  H   H11       1.0  0.33189430664424435  0.42918636428094475  0.5610423619190071  1.0000
  H   H12       1.0  0.8317554909381426  0.9904585805244037  0.4388298488655521  1.0000
  H   H13       1.0  0.5987007538906185  0.2802200583135032  0.4817694090083364  1.0000
  H   H14       1.0  0.09832549266580072  0.7620852168093534  0.5182785556617658  1.0000
  H   H15       1.0  0.8339832502847244  0.042824967828942004  0.5784729984944262  1.0000
  H   H16       1.0  0.33372309414119167  0.6212278249783766  0.42173343103720384  1.0000
  H   H17       1.0  0.7947925274110972  0.9485172447483736  0.7531799668942084  1.0000
  H   H18       1.0  0.2948766729785603  0.7015470861700733  0.24700697298568733  1.0000
  H   H19       1.0  0.3573284192448441  0.8098361224797727  0.7492351667648122  1.0000
  H   H20       1.0  0.8575587748934549  0.5589241401388421  0.2508231681651622  1.0000
  H   H21       1.0  0.33172593861245053  0.8945245306557156  0.5739619737452911  1.0000
  H   H22       1.0  0.8321348990112726  0.46815406016565225  0.4261047280405989  1.0000
  H   H23       1.0  0.5782264487120444  0.7588990713658889  0.47919943534272846  1.0000
  H   H24       1.0  0.07873418476397383  0.23771233477236117  0.5207811921086787  1.0000
  H   H25       1.0  0.8442707191670208  0.5323202774921113  0.5610291903369456  1.0000
  H   H26       1.0  0.3446317311725551  0.09303753389325205  0.4388679137032412  1.0000
  H   H27       1.0  0.8627196058740624  0.4401548312313966  0.736421261509335  1.0000
  H   H28       1.0  0.3628915680979646  0.1764467930119693  0.2634756392283392  1.0000
  C   C1        1.0  0.545466488317523  0.13916434706541744  0.7553219345991806  1.0000
  C   C2        1.0  0.04560275081630757  0.8944371827881594  0.24469385239512306  1.0000
  C   C3        1.0  0.4153163272045717  0.2750644346723449  0.7013017667806096  1.0000
  C   C4        1.0  0.9154423343514255  0.9764682322923048  0.298629793747665  1.0000
  C   C5        1.0  0.4343489984318153  0.3246042891210054  0.603010218737765  1.0000
  C   C6        1.0  0.934279433169429  0.9277519700256605  0.3969329558224785  1.0000
  C   C7        1.0  0.5843417309527155  0.2412446376448117  0.5586583163506944  1.0000
  C   C8        1.0  0.0841453414405534  0.7999776007114859  0.44137582199745395  1.0000
  C   C9        1.0  0.7162359312116776  0.10787460752520425  0.6127185556084668  1.0000
  C   C10       1.0  0.21607356998080013  0.7205546735697083  0.38739970384813915  1.0000
  C   C11       1.0  0.6961835920710938  0.05558264883094207  0.7108558587003914  1.0000
  C   C12       1.0  0.1962819662028465  0.7664061480977507  0.2892473774731882  1.0000
  C   C13       1.0  0.6114311380532981  0.6199908474130355  0.7538820698168749  1.0000
  C   C14       1.0  0.11166172793223698  0.37373141046158037  0.24610448778448554  1.0000
  C   C15       1.0  0.461415035489921  0.7472905004223661  0.7078353033275488  1.0000
  C   C16       1.0  0.9617243560988628  0.4549733081866378  0.29219041776441657  1.0000
  C   C17       1.0  0.4487021778199533  0.7955286894193633  0.6093088966241708  1.0000
  C   C18       1.0  0.949044835402702  0.4045557203977167  0.3907132618123228  1.0000
  C   C19       1.0  0.5869726342892321  0.7192485929957471  0.5563118558424023  1.0000
  C   C20       1.0  0.08736150669095369  0.2752381702729211  0.44367247793934433  1.0000
  C   C21       1.0  0.7363640055436066  0.5923447435915177  0.6021431459614489  1.0000
  C   C22       1.0  0.23669726270821198  0.19421971023179913  0.39780043365922785  1.0000
  C   C23       1.0  0.7482568204547276  0.5413209365270858  0.7007582037814187  1.0000
  C   C24       1.0  0.2485268454682767  0.24189821574233863  0.29919145223068  1.0000
  O   O1        1.0  0.4003891054930761  0.19611080366367886  0.9206596488619778  1.0000
  O   O2        1.0  0.9004879985558318  0.11674229129940268  0.07936131835555929  1.0000
  O   O3        1.0  0.3809740444504896  0.9325628778539465  0.8880570125563381  1.0000
  O   O4        1.0  0.8811075513665189  0.8205899835958944  0.11192051864820472  1.0000
  O   O5        1.0  0.7077965463260584  0.9840956622419627  0.9296572393885966  1.0000
  O   O6        1.0  0.20791815932093988  0.9136900236037063  0.07034370352616284  1.0000
  O   O7        1.0  0.07326618019987323  0.7807485936800018  0.9496131776589961  1.0000
  O   O8        1.0  0.5732827968541443  0.7303598323293059  0.05031600974400867  1.0000
  O   O9        1.0  0.01386834624407388  0.13903349484417052  0.8482528758396413  1.0000
  O   O10       1.0  0.5138965361257064  0.9871717672548  0.15177367576498563  1.0000
  O   O11       1.0  0.127959359205299  0.5230425368425671  0.8503305837608082  1.0000
  O   O12       1.0  0.6279649228993591  0.3735263906590518  0.1496358818425989  1.0000
  O   O13       1.0  0.741837266968041  0.3926236014167443  0.9203750929317636  1.0000
  O   O14       1.0  0.2419679935954449  0.3130512733557183  0.0796080557736758  1.0000
  O   O15       1.0  0.4361212384480596  0.5981549041013567  0.9258988634945027  1.0000
  O   O16       1.0  0.9361960534365537  0.524019793054073  0.07409932695253468  1.0000
  O   O17       1.0  0.7672929286243004  0.6861034331969761  0.8928987423543402  1.0000
  O   O18       1.0  0.26725660940645923  0.5791002584156856  0.10709613646967137  1.0000
