data_image0
_chemical_formula_structural       Ni2H16C20N28
_chemical_formula_sum              "Ni2 H16 C20 N28"
_cell_length_a       8.1070326280137
_cell_length_b       8.144343353106827
_cell_length_c       11.792923069648266
_cell_angle_alpha    109.78564153239459
_cell_angle_beta     90.80702593780548
_cell_angle_gamma    98.12872822070912

_space_group_name_H-M_alt    "P 1"
_space_group_IT_number       1

loop_
  _space_group_symop_operation_xyz
  'x, y, z'

loop_
  _atom_site_type_symbol
  _atom_site_label
  _atom_site_symmetry_multiplicity
  _atom_site_fract_x
  _atom_site_fract_y
  _atom_site_fract_z
  _atom_site_occupancy
  Ni  Ni1       1.0  0.29910512898437963  0.48771255027620714  0.5174339086022499  1.0000
  Ni  Ni2       1.0  0.7009020925251691  0.5122916821026138  0.482567918741843  1.0000
  H   H1        1.0  0.33672461443845947  0.6462161006761137  0.7889120270192223  1.0000
  H   H2        1.0  0.6632666120691155  0.35378025387409906  0.2110903133225008  1.0000
  H   H3        1.0  0.3572375824679668  0.5450030140465715  0.9641669682308206  1.0000
  H   H4        1.0  0.6427481137617193  0.45498939366034824  0.035835229864630905  1.0000
  H   H5        1.0  0.29954007858962933  0.009169092058535003  0.7105064220686045  1.0000
  H   H6        1.0  0.7004670001222095  0.9908259087315017  0.2894889898710957  1.0000
  H   H7        1.0  0.28652142571046113  0.13627561159712803  0.545467050758937  1.0000
  H   H8        1.0  0.7134967048005124  0.8637272710824461  0.454531186713389  1.0000
  H   H9        1.0  0.2948547954851435  0.8391981850977928  0.49413448606764393  1.0000
  H   H10       1.0  0.7051503662384987  0.16080871077408432  0.5058654019657496  1.0000
  H   H11       1.0  0.18026467709432845  0.961893139332169  0.3471728337800998  1.0000
  H   H12       1.0  0.8197351558808706  0.03811113452918851  0.6528263782391477  1.0000
  H   H13       1.0  0.10778481058774499  0.43133500878492737  0.08555714882420772  1.0000
  H   H14       1.0  0.8922057817885616  0.5686653173464791  0.9144452718598187  1.0000
  H   H15       1.0  0.2194418997926562  0.33196567515817316  0.24499148076822758  1.0000
  H   H16       1.0  0.7805517570978682  0.6680386077116864  0.7550110574004805  1.0000
  C   C1        1.0  0.3322478879008486  0.5066562315151941  0.774746911648009  1.0000
  C   C2        1.0  0.6677482788906773  0.4933401150417395  0.22525293717682618  1.0000
  C   C3        1.0  0.3425059521599821  0.4499034476954762  0.8726510541990748  1.0000
  C   C4        1.0  0.6574912489028222  0.5500915730134609  0.12734849376106894  1.0000
  C   C5        1.0  0.33228079297540347  0.26868770769656447  0.8515691262114018  1.0000
  C   C6        1.0  0.6677176468069844  0.7313073159294847  0.1484287401028155  1.0000
  C   C7        1.0  0.31020760621565563  0.15145575516427803  0.731662623619627  1.0000
  C   C8        1.0  0.6897971995053284  0.8485405685566436  0.2683347708306912  1.0000
  C   C9        1.0  0.30281324417901345  0.22138337823307816  0.6397866592446348  1.0000
  C   C10       1.0  0.6971972904304167  0.7786182132315602  0.3602111906974415  1.0000
  C   C11       1.0  0.25156243332070016  0.7541758225976594  0.4024833342817188  1.0000
  C   C12       1.0  0.7484361638537891  0.24582845227892852  0.5975167123700941  1.0000
  C   C13       1.0  0.1892530577359396  0.8217690833842755  0.32051437278590816  1.0000
  C   C14       1.0  0.8107414406530539  0.17823256060186315  0.6794858572459077  1.0000
  C   C15       1.0  0.13687308556500716  0.7045318433466009  0.20368926744544072  1.0000
  C   C16       1.0  0.8631203785527147  0.2954711264875415  0.7963112634510665  1.0000
  C   C17       1.0  0.14912647987016925  0.5256702624291947  0.1750502498813233  1.0000
  C   C18       1.0  0.8508628825431829  0.47433007258214144  0.8249513114085546  1.0000
  C   C19       1.0  0.21131922912211115  0.47069935117747264  0.2640394735634217  1.0000
  C   C20       1.0  0.7886754620396913  0.5293036058443833  0.7359627637406021  1.0000
  N   N1        1.0  0.47655981569270983  0.32885433958387017  0.4264958952698308  1.0000
  N   N2        1.0  0.5234375485999508  0.6711499402402908  0.5735041390011872  1.0000
  N   N3        1.0  0.44703514877421213  0.21387816508229213  0.3291741898717504  1.0000
  N   N4        1.0  0.5529657097156147  0.7861247711340127  0.6708272623228807  1.0000
  N   N5        1.0  0.41744869360744735  0.10034057795694201  0.2355290470853291  1.0000
  N   N6        1.0  0.5825507275522313  0.8996610344418202  0.764473773509742  1.0000
  N   N7        1.0  0.3139499629350767  0.39549808329608993  0.6594607474110958  1.0000
  N   N8        1.0  0.6860531773022486  0.6045035417863787  0.34053618123284923  1.0000
  N   N9        1.0  0.34279929117495556  0.2183184706094607  0.953650523359002  1.0000
  N   N10       1.0  0.657198947077994  0.7816752281838222  0.046347876723089675  1.0000
  N   N11       1.0  0.3291710647977979  0.0605898797993163  0.9431458624139496  1.0000
  N   N12       1.0  0.6708306793278423  0.9394024911155014  0.05685056753832641  1.0000
  N   N13       1.0  0.3174012059370312  0.9228688331249445  0.9503055119745412  1.0000
  N   N14       1.0  0.6826007280425302  0.0771248468932484  0.0496937722632893  1.0000
  N   N15       1.0  0.2602182280221328  0.5813899387180755  0.37695017394860747  1.0000
  N   N16       1.0  0.7397801588662744  0.4186129995286906  0.6230529475111553  1.0000
  N   N17       1.0  0.07112770377404593  0.7550610499930741  0.11202167984180991  1.0000
  N   N18       1.0  0.9288690676058023  0.2449392710621794  0.8879765676794023  1.0000
  N   N19       1.0  0.05832310376489861  0.9114994046534478  0.1325749659376356  1.0000
  N   N20       1.0  0.9416793965034032  0.0885061841455155  0.8674237370753274  1.0000
  N   N21       1.0  0.03704088544302661  0.0497896357259222  0.1373223735046523  1.0000
  N   N22       1.0  0.962969850695842  0.9502132805714821  0.8626749426695498  1.0000
  N   N23       1.0  0.1042295648648093  0.2820486594054047  0.4383218066041934  1.0000
  N   N24       1.0  0.8957790764616079  0.7179568731968546  0.5616837344196101  1.0000
  N   N25       1.0  0.839325004909597  0.32748288000481557  0.3765083916847587  1.0000
  N   N26       1.0  0.1606826579584109  0.672516067757087  0.6234913480448299  1.0000
  N   N27       1.0  0.9722229075494511  0.3078867504272368  0.4088668536355513  1.0000
  N   N28       1.0  0.027783905063451228  0.6921148244213455  0.5911377352710119  1.0000
