data_image0
_chemical_formula_structural       Cd12H96C152O60
_chemical_formula_sum              "Cd12 H96 C152 O60"
_cell_length_a       18.48417214657168
_cell_length_b       19.991471400397593
_cell_length_c       22.874426525244562
_cell_angle_alpha    63.25966382262043
_cell_angle_beta     66.26291438815467
_cell_angle_gamma    62.46672823747199

_space_group_name_H-M_alt    "P 1"
_space_group_IT_number       1

loop_
  _space_group_symop_operation_xyz
  'x, y, z'

loop_
  _atom_site_type_symbol
  _atom_site_label
  _atom_site_symmetry_multiplicity
  _atom_site_fract_x
  _atom_site_fract_y
  _atom_site_fract_z
  _atom_site_occupancy
  Cd  Cd1       1.0  0.3217333309487812  0.8890090616805466  0.698415996115152  1.0000
  Cd  Cd2       1.0  0.9093499522595819  0.6110786846432249  0.8012105027921095  1.0000
  Cd  Cd3       1.0  0.6782634822553462  0.11098620954569328  0.3015918141172379  1.0000
  Cd  Cd4       1.0  0.09064634820578732  0.3889233120861206  0.19878550193727307  1.0000
  Cd  Cd5       1.0  0.4468444318949737  0.6762646681233093  0.678925216529059  1.0000
  Cd  Cd6       1.0  0.8025639611631592  0.8239989235608293  0.8206822166549158  1.0000
  Cd  Cd7       1.0  0.5531590523690324  0.3237275510649554  0.3210763379522988  1.0000
  Cd  Cd8       1.0  0.19743608961113074  0.17600523109178573  0.1793162643451254  1.0000
  Cd  Cd9       1.0  0.3694768140738347  0.8267784971559422  0.5421385418783445  1.0000
  Cd  Cd10      1.0  0.7386746454887146  0.6737615303397106  0.9572059756475539  1.0000
  Cd  Cd11      1.0  0.630531098366717  0.1732112555765681  0.457864691027858  1.0000
  Cd  Cd12      1.0  0.26132611630401925  0.3262438422437484  0.042791864481742416  1.0000
  H   H1        1.0  0.320337990964063  0.8375092898890628  0.4381117646378457  1.0000
  H   H2        1.0  0.5972942313627312  0.6633454293425558  0.06133043064178173  1.0000
  H   H3        1.0  0.679655936929194  0.1624919884007596  0.5618939795998658  1.0000
  H   H4        1.0  0.40271253425555636  0.33664740012039124  0.9386707767872127  1.0000
  H   H5        1.0  0.33825602168673174  0.7545764854316703  0.49429592837969255  1.0000
  H   H6        1.0  0.5876125181740547  0.7460834841233678  0.004936366069337167  1.0000
  H   H7        1.0  0.6617414123108675  0.24542213565386115  0.5057061510830323  1.0000
  H   H8        1.0  0.4123859517474457  0.25391372718381433  0.9950689478145593  1.0000
  H   H9        1.0  0.35444547668724624  0.6805012621893596  0.7947991152946589  1.0000
  H   H10       1.0  0.8300272602612182  0.8194623355292876  0.7048663967302957  1.0000
  H   H11       1.0  0.6455570191641016  0.3195010804231444  0.20520011510415506  1.0000
  H   H12       1.0  0.16997863374945874  0.18053908325620682  0.2951294780028065  1.0000
  H   H13       1.0  0.29932402339403535  0.6445705052414469  0.7873546437700226  1.0000
  H   H14       1.0  0.7315942258068091  0.855613038875461  0.7121368150060122  1.0000
  H   H15       1.0  0.7006804338130408  0.35542814555639524  0.21264701187804044  1.0000
  H   H16       1.0  0.26841258997945533  0.1444029186083213  0.28785242830055324  1.0000
  H   H17       1.0  0.46347391579604397  0.8914327591684883  0.4202680151925335  1.0000
  H   H18       1.0  0.7749559553584575  0.608476934865898  0.07966231745083957  1.0000
  H   H19       1.0  0.5365321704779547  0.10856466146088202  0.5797344399996194  1.0000
  H   H20       1.0  0.22505391961787777  0.39152350721428064  0.9203309161609072  1.0000
  H   H21       1.0  0.5276659546658211  0.8072415896903634  0.4179996458570799  1.0000
  H   H22       1.0  0.7520759996858858  0.6922456310117937  0.0831351021072635  1.0000
  H   H23       1.0  0.4723409900354554  0.1927587514427671  0.5819949641237018  1.0000
  H   H24       1.0  0.24792142988169996  0.3077528904359426  0.9168683271075085  1.0000
  H   H25       1.0  0.07371430238217162  0.8229958975898484  0.7435507603367739  1.0000
  H   H26       1.0  0.640325173760026  0.6772142532804252  0.7558998005796838  1.0000
  H   H27       1.0  0.9262834042830194  0.17700563045254117  0.25644365920491907  1.0000
  H   H28       1.0  0.35966428512589477  0.32279783104204535  0.24409438321848856  1.0000
  H   H29       1.0  0.06420796253826214  0.6666374186414713  0.6671676374764246  1.0000
  H   H30       1.0  0.39832464497163755  0.83305419775391  0.83279094430997  1.0000
  H   H31       1.0  0.9357977686328028  0.3333568538124254  0.3328298856140536  1.0000
  H   H32       1.0  0.6016661441398554  0.16695061240640996  0.1672145449285551  1.0000
  H   H33       1.0  0.3014300650651762  0.6840794599042966  0.6353655599946465  1.0000
  H   H34       1.0  0.6214074427801749  0.8163570898792898  0.8638814260605658  1.0000
  H   H35       1.0  0.6985722823069692  0.31591860771263924  0.3646360721251086  1.0000
  H   H36       1.0  0.37858848563599423  0.18365828049580557  0.13610787356866186  1.0000
  H   H37       1.0  0.13937075828761178  0.6560241005308854  0.5565727862239171  1.0000
  H   H38       1.0  0.3530219393834883  0.8430826240714708  0.9432725420948246  1.0000
  H   H39       1.0  0.8606336657686312  0.34396870795709594  0.4434287124490837  1.0000
  H   H40       1.0  0.6469748211764994  0.15692072103087903  0.05672898546166749  1.0000
  H   H41       1.0  0.22328084451477537  0.5704119759113341  0.48393244458313234  1.0000
  H   H42       1.0  0.27832669851529357  0.9284952246714155  0.016097484116364972  1.0000
  H   H43       1.0  0.7767200417629709  0.4295776806836713  0.5160721119724344  1.0000
  H   H44       1.0  0.7216712291340386  0.0715080478869226  0.9839050226115021  1.0000
  H   H45       1.0  0.36062890957892785  0.4740240993357504  0.44239616616256683  1.0000
  H   H46       1.0  0.27708229488985836  0.025071137139789798  0.05789575747222394  1.0000
  H   H47       1.0  0.6393716053525083  0.5259620437452099  0.5576084073821549  1.0000
  H   H48       1.0  0.722916910747188  0.9749303959224489  0.9421065194830477  1.0000
  H   H49       1.0  0.5553298798487275  0.3600944689707219  0.5484519667325642  1.0000
  H   H50       1.0  0.46260426377832425  0.14003830905186024  0.9522451811074647  1.0000
  H   H51       1.0  0.4446773986180118  0.639903443728798  0.4515438190360329  1.0000
  H   H52       1.0  0.5373912202706209  0.8599668087591752  0.04775612630426442  1.0000
  H   H53       1.0  0.4678549761035669  0.44009306356090866  0.6258323727290999  1.0000
  H   H54       1.0  0.5328674325194881  0.060232371728304215  0.8747020466363795  1.0000
  H   H55       1.0  0.532153977870955  0.5599097601933849  0.37416032030251506  1.0000
  H   H56       1.0  0.46712911510378763  0.9397745065537962  0.12529919930393854  1.0000
  H   H57       1.0  0.33900768983559  0.5481797253275857  0.6572354529435529  1.0000
  H   H58       1.0  0.5441608293564142  0.9520478857338832  0.8429401820902386  1.0000
  H   H59       1.0  0.6610040676785613  0.45182196177721323  0.342756769216777  1.0000
  H   H60       1.0  0.45583606236902346  0.047956796602797204  0.1570590902164568  1.0000
  H   H61       1.0  0.4537574898555974  0.04523407905698921  0.4368275197797473  1.0000
  H   H62       1.0  0.9359702057610306  0.4551628990711619  0.0627858401912961  1.0000
  H   H63       1.0  0.5462571598368059  0.9547524975175885  0.5631869984889734  1.0000
  H   H64       1.0  0.06402573033508928  0.5448382894171787  0.9372131844775495  1.0000
  H   H65       1.0  0.37552270262919046  0.24925233238539585  0.4947832662941353  1.0000
  H   H66       1.0  0.1192501560596781  0.2508754280306533  0.005182678461785881  1.0000
  H   H67       1.0  0.6244758663773095  0.7507429462689148  0.5052244379845945  1.0000
  H   H68       1.0  0.8807497738858457  0.7491276218758074  0.9948149083666138  1.0000
  H   H69       1.0  0.24370508653151293  0.08035166845513689  0.6074516727675885  1.0000
  H   H70       1.0  0.9310613691310013  0.41978017664067124  0.8922507552216173  1.0000
  H   H71       1.0  0.756295706161609  0.9196425928531868  0.39255394626079704  1.0000
  H   H72       1.0  0.06893938125466553  0.5802223910319455  0.10774543170942504  1.0000
  H   H73       1.0  0.3323233806665158  0.2659588100487227  0.5938880440462669  1.0000
  H   H74       1.0  0.19163867624114062  0.23395668555927784  0.906446357904578  1.0000
  H   H75       1.0  0.6676764663276984  0.7340347291094956  0.40611943045986737  1.0000
  H   H76       1.0  0.8083641449219456  0.7660404901339887  0.0935514952491019  1.0000
  H   H77       1.0  0.3008770511669353  0.36543494745158267  0.6444875317240105  1.0000
  H   H78       1.0  0.31022598599506784  0.13411068895124595  0.8562549511424326  1.0000
  H   H79       1.0  0.6991209365098925  0.6345604172936276  0.3555190080930047  1.0000
  H   H80       1.0  0.6897693090405  0.8658841454913713  0.14375085060191148  1.0000
  H   H81       1.0  0.19529349871103105  0.46269640541185453  0.7042907688763478  1.0000
  H   H82       1.0  0.3616886482476787  0.03672779871595112  0.7965480971127263  1.0000
  H   H83       1.0  0.8047036541652518  0.5372965702311702  0.29571641747445904  1.0000
  H   H84       1.0  0.638308280284825  0.963265905195996  0.20345715442365286  1.0000
  H   H85       1.0  0.997801912820897  0.3922163373991765  0.7235145447495059  1.0000
  H   H86       1.0  0.11339075872923127  0.10792612125797524  0.7760150405067422  1.0000
  H   H87       1.0  0.0021929420905307923  0.6077945008066126  0.2764727132355276  1.0000
  H   H88       1.0  0.8866089236520905  0.892074586305782  0.2239825576477586  1.0000
  H   H89       1.0  0.031631043900780795  0.2864537065237656  0.6770770097838295  1.0000
  H   H90       1.0  0.9950918742322017  0.21365189036551166  0.8222884459184316  1.0000
  H   H91       1.0  0.9683642350011041  0.7135525713199584  0.3229165138879465  1.0000
  H   H92       1.0  0.004908540911330321  0.786353072528108  0.17770701514213977  1.0000
  H   H93       1.0  0.13444898584608472  0.1935775911436011  0.6139173942702882  1.0000
  H   H94       1.0  0.9417329605863501  0.30654097386760526  0.8855266892522807  1.0000
  H   H95       1.0  0.865550055474678  0.8064167623744396  0.38608698095971045  1.0000
  H   H96       1.0  0.058268172958982234  0.6934653730198405  0.11446588135081023  1.0000
  C   C1        1.0  0.19318508180991506  0.7564440968467707  0.6909048220621017  1.0000
  C   C2        1.0  0.640850816125024  0.7439540519161056  0.8083706340993473  1.0000
  C   C3        1.0  0.8068152913227706  0.24355482446140547  0.3090931815274942  1.0000
  C   C4        1.0  0.3591436843475577  0.25605874974691295  0.19162174694075423  1.0000
  C   C5        1.0  0.10592747051104107  0.7794137470397687  0.7170834953498755  1.0000
  C   C6        1.0  0.6025967522589255  0.7207871066129314  0.7823749415249139  1.0000
  C   C7        1.0  0.8940719657827498  0.22058465139388522  0.2829136642133818  1.0000
  C   C8        1.0  0.3973951487507179  0.2792230992442342  0.21762089150674063  1.0000
  C   C9        1.0  0.060230755410657415  0.747210481611397  0.707338245531581  1.0000
  C   C10       1.0  0.5149540008751572  0.7527746112138942  0.7923391786125081  1.0000
  C   C11       1.0  0.9397712309518766  0.25278430497967713  0.29266025415589786  1.0000
  C   C12       1.0  0.4850378665773647  0.24723229154346885  0.20766174998112055  1.0000
  C   C13       1.0  0.10124508918880785  0.6918610287498766  0.6726258700042037  1.0000
  C   C14       1.0  0.4660448070974824  0.8079992926953282  0.8271638749288782  1.0000
  C   C15       1.0  0.8987588802732137  0.308133103425547  0.3273735587093327  1.0000
  C   C16       1.0  0.5339470588783753  0.19200757684943437  0.17283750358209463  1.0000
  C   C17       1.0  0.1889076117989958  0.6666664360806891  0.6481174712793205  1.0000
  C   C18       1.0  0.5040916694095399  0.8332890464948691  0.8515955215696566  1.0000
  C   C19       1.0  0.8110968369543485  0.3333294762315049  0.35188163133580014  1.0000
  C   C20       1.0  0.4959022146995835  0.1667205049466531  0.14840124048806297  1.0000
  C   C21       1.0  0.23384961549025712  0.6999655470761612  0.6573179187111933  1.0000
  C   C22       1.0  0.5915464471745722  0.8003324181492533  0.842064170061036  1.0000
  C   C23       1.0  0.7661523837560152  0.3000320776383488  0.342681784257195  1.0000
  C   C24       1.0  0.4084480532980095  0.19968038351377265  0.15792821097907242  1.0000
  C   C25       1.0  0.2438532676425922  0.793631437658796  0.6949483772573117  1.0000
  C   C26       1.0  0.7327324445357067  0.706846171367218  0.8043484605736637  1.0000
  C   C27       1.0  0.7561461612678501  0.20636679471186878  0.3050510318926881  1.0000
  C   C28       1.0  0.2672622802806472  0.2931659020268853  0.19564585528086556  1.0000
  C   C29       1.0  0.9668881002455904  0.771894557152706  0.7340313011640877  1.0000
  C   C30       1.0  0.4728312634602574  0.7280698447399487  0.7657049756654999  1.0000
  C   C31       1.0  0.0331134329993859  0.22810158633841132  0.26596467864658274  1.0000
  C   C32       1.0  0.5271588146327771  0.271933747489534  0.23430115444377014  1.0000
  C   C33       1.0  0.23509359877598962  0.6092503557047736  0.6105293758972722  1.0000
  C   C34       1.0  0.45528453273741587  0.8904262841757172  0.8894479981243962  1.0000
  C   C35       1.0  0.7649135485252998  0.39074621976040896  0.38946866512112177  1.0000
  C   C36       1.0  0.5447116667599873  0.10958015120395714  0.11055131866455528  1.0000
  C   C37       1.0  0.20175597247071414  0.6131798990715679  0.56236335597778  1.0000
  C   C38       1.0  0.37799158912737607  0.8861199266219018  0.9376064365982657  1.0000
  C   C39       1.0  0.7982495195898736  0.3868147695252659  0.4376367314717555  1.0000
  C   C40       1.0  0.622005528418505  0.11388406065846371  0.06239432060550603  1.0000
  C   C41       1.0  0.24852262427510416  0.5658515229794147  0.5217883790833753  1.0000
  C   C42       1.0  0.3366517033382975  0.9333440319098473  0.9782769262974755  1.0000
  C   C43       1.0  0.7514813407569036  0.4341425095582139  0.47821239938220833  1.0000
  C   C44       1.0  0.663345642981369  0.0666593267393836  0.021724415968677135  1.0000
  C   C45       1.0  0.33076500864071784  0.5112674935632882  0.5275321104291493  1.0000
  C   C46       1.0  0.3695957411211169  0.9881766636978568  0.9727015597059249  1.0000
  C   C47       1.0  0.6692399020902043  0.48872726112445253  0.47246681255867895  1.0000
  C   C48       1.0  0.6304019607077792  0.011827303916803096  0.0272994621248586  1.0000
  C   C49       1.0  0.3829247734557484  0.46637869518860964  0.48322607972852444  1.0000
  C   C50       1.0  0.3323438025685732  0.0329986016586759  0.017101370072140284  1.0000
  C   C51       1.0  0.6170778774843766  0.5336111681100633  0.5167756713692812  1.0000
  C   C52       1.0  0.667654002775329  0.9670035329409072  0.9829006924014297  1.0000
  C   C53       1.0  0.4629196761193127  0.41348454748130337  0.4901283842577088  1.0000
  C   C54       1.0  0.3658510972113262  0.0861684815507004  0.010353948340757299  1.0000
  C   C55       1.0  0.5370829950879068  0.5865083200037875  0.5098723205342566  1.0000
  C   C56       1.0  0.6341454316215336  0.9138354257575754  0.9896478939880495  1.0000
  C   C57       1.0  0.49241040618307613  0.40200750605038843  0.5436595941485863  1.0000
  C   C58       1.0  0.4371519896149749  0.09794505438861732  0.9569002495667435  1.0000
  C   C59       1.0  0.5075958042793189  0.5979885465402787  0.45633760284346897  1.0000
  C   C60       1.0  0.562842908674284  0.90206004987553  0.043101243135325276  1.0000
  C   C61       1.0  0.44379792341229063  0.4462924585214623  0.5865554297250527  1.0000
  C   C62       1.0  0.4759404045712188  0.0537324587601802  0.9139263516521936  1.0000
  C   C63       1.0  0.556210651832579  0.5537066856557897  0.41343952988246724  1.0000
  C   C64       1.0  0.5240556667140766  0.946272705810351  0.08607432055185164  1.0000
  C   C65       1.0  0.3627980040910543  0.5031267338196271  0.57896811120321  1.0000
  C   C66       1.0  0.4446700354176157  0.9966501020696443  0.9213345476450812  1.0000
  C   C67       1.0  0.6372096298849073  0.4968717878453147  0.42102735413001824  1.0000
  C   C68       1.0  0.5553274376374944  0.003354494176136301  0.07866588912332158  1.0000
  C   C69       1.0  0.31365869000138963  0.5534562958446116  0.6191077192886923  1.0000
  C   C70       1.0  0.4861974731369046  0.9464394057318657  0.8810590199009525  1.0000
  C   C71       1.0  0.6863502377993598  0.4465433908728613  0.3808878197181543  1.0000
  C   C72       1.0  0.5137991853847339  0.053565805598154305  0.11894101709540908  1.0000
  C   C73       1.0  0.5180297526277967  0.3702148507920242  0.4403667112018895  1.0000
  C   C74       1.0  0.3278023333707054  0.12936462487327566  0.060203784328571444  1.0000
  C   C75       1.0  0.48197373458955173  0.6297774348214419  0.5596339434447728  1.0000
  C   C76       1.0  0.6721945292276248  0.8706368540013968  0.9397992337880581  1.0000
  C   C77       1.0  0.34618516452010795  0.0567952718110192  0.5223175938096462  1.0000
  C   C78       1.0  0.9251515858288075  0.4434644086630259  0.9773424792585957  1.0000
  C   C79       1.0  0.6538235417805253  0.943193400860892  0.4776923377114813  1.0000
  C   C80       1.0  0.0748471755507012  0.5565386805748461  0.022654578315780247  1.0000
  C   C81       1.0  0.41112877962837047  0.08040395845169  0.4701410762434649  1.0000
  C   C82       1.0  0.9616478607548234  0.4198925051124434  0.029561048730030643  1.0000
  C   C83       1.0  0.5888810893316005  0.9195845420384146  0.5298711842010774  1.0000
  C   C84       1.0  0.03834983409700504  0.5801087572291692  0.9704369701504519  1.0000
  C   C85       1.0  0.42276048313139825  0.14834724451971232  0.46229562948968805  1.0000
  C   C86       1.0  0.03325103042014627  0.35183147417028954  0.037581395791661996  1.0000
  C   C87       1.0  0.5772467149310714  0.8516437630668179  0.5377143966589986  1.0000
  C   C88       1.0  0.9667464327045607  0.6481703503772565  0.9624169378611428  1.0000
  C   C89       1.0  0.3671353603165528  0.1944226995332841  0.5043511900421151  1.0000
  C   C90       1.0  0.06561113128812218  0.30572160479431437  0.9955553913316922  1.0000
  C   C91       1.0  0.6328668252863636  0.8055707941747058  0.4956568930547149  1.0000
  C   C92       1.0  0.9343878603418361  0.6942808890250305  0.004441801387713413  1.0000
  C   C93       1.0  0.3005603230949704  0.17250755656810668  0.556215340470537  1.0000
  C   C94       1.0  0.028900901698321473  0.3276194875375041  0.9436279613292771  1.0000
  C   C95       1.0  0.6994409300990653  0.8274855139031629  0.44379054884790753  1.0000
  C   C96       1.0  0.9710999724694532  0.6723842513064682  0.056368219938711786  1.0000
  C   C97       1.0  0.2918236547136885  0.1018278091914411  0.5655792401505835  1.0000
  C   C98       1.0  0.958854555441775  0.3983186244338769  0.934170939748192  1.0000
  C   C99       1.0  0.7081795815798272  0.8981646068641781  0.43442757819392613  1.0000
  C   C100      1.0  0.04114667571189302  0.6016857565881111  0.06582447116707613  1.0000
  C   C101      1.0  0.33860776153421307  0.9811312670300228  0.5325349174284995  1.0000
  C   C102      1.0  0.8522979332036017  0.519258940110376  0.9669147189516493  1.0000
  C   C103      1.0  0.6613991889640547  0.018857398213810907  0.467475120046295  1.0000
  C   C104      1.0  0.147701415412257  0.48074419588698475  0.03308170341503567  1.0000
  C   C105      1.0  0.4966056957932707  0.1696473227584079  0.4107876014371429  1.0000
  C   C106      1.0  0.07682891936827466  0.33041187568209557  0.0892973868520031  1.0000
  C   C107      1.0  0.5033992889192688  0.8303449346622997  0.589221360540442  1.0000
  C   C108      1.0  0.9231705342392615  0.669589460512789  0.9106996262401168  1.0000
  C   C109      1.0  0.24110187608766154  0.22394777191303203  0.5983347735585697  1.0000
  C   C110      1.0  0.06300822605184916  0.2761118537965431  0.9015313036304136  1.0000
  C   C111      1.0  0.7588972919685514  0.7760478192015513  0.4016686961736796  1.0000
  C   C112      1.0  0.9369931318372547  0.7238937648219874  0.09846320178710502  1.0000
  C   C113      1.0  0.2665173057770929  0.26977110639338525  0.6119508425930178  1.0000
  C   C114      1.0  0.14780880056152762  0.23020439681015156  0.8881572180567334  1.0000
  C   C115      1.0  0.7334816320286633  0.730225080139725  0.3880524919941949  1.0000
  C   C116      1.0  0.8521919513008173  0.7697982040750658  0.11183851895695805  1.0000
  C   C117      1.0  0.2093996037505691  0.32304305328934657  0.6485353808364707  1.0000
  C   C118      1.0  0.180591034946147  0.17687444310490005  0.8515917581003125  1.0000
  C   C119      1.0  0.7905978361537078  0.6769557006465804  0.3514648989568628  1.0000
  C   C120      1.0  0.819408186934268  0.823127455295918  0.1484055697641224  1.0000
  C   C121      1.0  0.2346501823938141  0.3708856113698999  0.6620222030815767  1.0000
  C   C122      1.0  0.26705402223669233  0.1287940365471556  0.8384740438091499  1.0000
  C   C123      1.0  0.765348399902713  0.6291099661977952  0.337981451941012  1.0000
  C   C124      1.0  0.7329435197059269  0.871202851161094  0.1615277265443139  1.0000
  C   C125      1.0  0.17653005467561653  0.4246778523451129  0.6951697791771282  1.0000
  C   C126      1.0  0.29587298773710563  0.07492068383355391  0.8053722700691709  1.0000
  C   C127      1.0  0.8234677160407885  0.5753184067320163  0.3048325762387165  1.0000
  C   C128      1.0  0.7041245527288424  0.925076170662102  0.19462995020164442  1.0000
  C   C129      1.0  0.09005680713720214  0.43279793240031944  0.7172141376389407  1.0000
  C   C130      1.0  0.2397247865176055  0.06696933182507786  0.7829501329232473  1.0000
  C   C131      1.0  0.9099400790878462  0.5672040778759141  0.28278168180010255  1.0000
  C   C132      1.0  0.7602731341546659  0.9330312354602127  0.21704937085431208  1.0000
  C   C133      1.0  0.06426416436492131  0.3855500003556855  0.7060224915227097  1.0000
  C   C134      1.0  0.1556053499617036  0.11443248469353763  0.7937961784987522  1.0000
  C   C135      1.0  0.935731704726649  0.6144563906727286  0.29396949710668  1.0000
  C   C136      1.0  0.8443930559085758  0.8855699955789192  0.20620119951099256  1.0000
  C   C137      1.0  0.1223731261214951  0.33021302651035  0.6717077176709766  1.0000
  C   C138      1.0  0.12404848677150684  0.1697907309468292  0.8281148985785478  1.0000
  C   C139      1.0  0.8776232996026394  0.6697901746029443  0.32828783147800067  1.0000
  C   C140      1.0  0.8759512188302451  0.8302130472285467  0.1718807534354242  1.0000
  C   C141      1.0  0.09767377376028458  0.2816545311009336  0.6587823137000585  1.0000
  C   C142      1.0  0.037926843013629315  0.2184229100694992  0.8407988247290349  1.0000
  C   C143      1.0  0.9023224217133999  0.7183492654308878  0.34121310030388946  1.0000
  C   C144      1.0  0.9620742861016891  0.7815833371801588  0.15919509562610304  1.0000
  C   C145      1.0  0.1550389866172495  0.22980564361453304  0.6236723354918682  1.0000
  C   C146      1.0  0.008259008142772535  0.2702732369048491  0.8759479713844058  1.0000
  C   C147      1.0  0.8449592692971636  0.7701925284497476  0.3763278941561623  1.0000
  C   C148      1.0  0.9917422477079897  0.7297342479413517  0.12404504347298234  1.0000
  C   C149      1.0  0.026124671696884042  0.4939563293607919  0.7501706422848998  1.0000
  C   C150      1.0  0.26995662256653935  0.005879238294866701  0.7498764201443535  1.0000
  C   C151      1.0  0.9738723412636073  0.5060469185119915  0.24982427165639368  1.0000
  C   C152      1.0  0.7300374512588661  0.9941237093552789  0.25012256967006846  1.0000
  O   O1        1.0  0.2144309530780292  0.8358876078141932  0.7318836141686165  1.0000
  O   O2        1.0  0.7824281384495394  0.6645584516629482  0.7674460116207628  1.0000
  O   O3        1.0  0.7855639441408614  0.16411492402730232  0.26811307591376016  1.0000
  O   O4        1.0  0.21756740090027896  0.3354530066469152  0.2325487040058078  1.0000
  O   O5        1.0  0.3215153685536052  0.7802677186454685  0.6578599121368073  1.0000
  O   O6        1.0  0.7599644950694182  0.7202354771882681  0.8414935454567783  1.0000
  O   O7        1.0  0.6784856588199872  0.2197260468821227  0.342144492284561  1.0000
  O   O8        1.0  0.2400286780212539  0.2797728563224098  0.15850385747167908  1.0000
  O   O9        1.0  0.932502877688549  0.8217814075239858  0.7662141387833684  1.0000
  O   O10       1.0  0.5203589439585343  0.6781882809627434  0.7335137202701032  1.0000
  O   O11       1.0  0.0674980697967484  0.1782147224202433  0.233782026317634  1.0000
  O   O12       1.0  0.4796305498514926  0.3218153309324451  0.2664921452121547  1.0000
  O   O13       1.0  0.9254074293289702  0.7432289727349402  0.7237396962476836  1.0000
  O   O14       1.0  0.3924354780168428  0.7567264941155045  0.7760196955693104  1.0000
  O   O15       1.0  0.07459540512414262  0.2567685018717043  0.276254107649855  1.0000
  O   O16       1.0  0.6075531706559475  0.24327449618930794  0.22398996586818493  1.0000
  O   O17       1.0  0.5817056060298144  0.3085463236318303  0.4553193560557035  1.0000
  O   O18       1.0  0.34473322154170916  0.1909621584241137  0.04546858887733413  1.0000
  O   O19       1.0  0.41830154274813935  0.691450285045953  0.5446782350453389  1.0000
  O   O20       1.0  0.6552638609703788  0.8090384925438415  0.9545377138057635  1.0000
  O   O21       1.0  0.4979688184364195  0.3990736103678286  0.38407486793850865  1.0000
  O   O22       1.0  0.2802841051524823  0.10054666099592423  0.11634637006789464  1.0000
  O   O23       1.0  0.5020279749069162  0.600916117461928  0.6159287360626777  1.0000
  O   O24       1.0  0.7197110045968174  0.899454876875872  0.8836558541676991  1.0000
  O   O25       1.0  0.3789951593891201  0.9504991799969321  0.4846629181989498  1.0000
  O   O26       1.0  0.8143767944734178  0.5500731263722116  0.014683230543148742  1.0000
  O   O27       1.0  0.621014718430871  0.0494895197687555  0.5153466427415055  1.0000
  O   O28       1.0  0.18562397617934318  0.4499324454868301  0.9853119100820606  1.0000
  O   O29       1.0  0.2951562145220238  0.9466686370690595  0.5875594437683987  1.0000
  O   O30       1.0  0.8293812906972279  0.5536506522778241  0.9118231871240212  1.0000
  O   O31       1.0  0.7048451407103542  0.05332256717453281  0.4124479361101763  1.0000
  O   O32       1.0  0.1706164071079428  0.44635067648899013  0.08817393192176576  1.0000
  O   O33       1.0  0.5396111561831133  0.1337855968838753  0.3680033705867203  1.0000
  O   O34       1.0  0.04128403726565471  0.3663337223097685  0.13203754536385756  1.0000
  O   O35       1.0  0.46039253175128886  0.8662054290591003  0.632006417551949  1.0000
  O   O36       1.0  0.9587160021015606  0.6336676274320042  0.867959282437923  1.0000
  O   O37       1.0  0.5125454781951574  0.22355520329121253  0.4159115466834892  1.0000
  O   O38       1.0  0.1516576362062665  0.27629747425613255  0.08440378777725503  1.0000
  O   O39       1.0  0.48746022196583266  0.776438371698127  0.5840954246713184  1.0000
  O   O40       1.0  0.8483427616235134  0.7237045508762635  0.9155918197544608  1.0000
  O   O41       1.0  0.9497648796026328  0.4962646148056464  0.7737725719796485  1.0000
  O   O42       1.0  0.21977906770005262  0.003939898668143408  0.7256750065689347  1.0000
  O   O43       1.0  0.05022825011020159  0.503749452646673  0.22621059623178041  1.0000
  O   O44       1.0  0.7802168374956864  0.996072401095333  0.2743162392008287  1.0000
  O   O45       1.0  0.04902755120620128  0.5439006524372161  0.7527580035643241  1.0000
  O   O46       1.0  0.34522660808114136  0.9556702179865085  0.7477192066028594  1.0000
  O   O47       1.0  0.9509733435252699  0.4560917426434301  0.24724910602418504  1.0000
  O   O48       1.0  0.6547638785715577  0.04432337012222831  0.252287633209896  1.0000
  O   O49       1.0  0.29941871079237364  0.8105564972097029  0.4857107544742619  1.0000
  O   O50       1.0  0.5962262462336979  0.6900120627804398  0.013828590736721873  1.0000
  O   O51       1.0  0.7005802354671076  0.18944242780905543  0.5142951331459075  1.0000
  O   O52       1.0  0.4037765616393614  0.3099848139994421  0.986173311673092  1.0000
  O   O53       1.0  0.35657602106255126  0.6345667191773787  0.7863488573533105  1.0000
  O   O54       1.0  0.7778899157763489  0.8655218444125694  0.7131712753026206  1.0000
  O   O55       1.0  0.6434279771202824  0.36543315567011103  0.21365207808734246  1.0000
  O   O56       1.0  0.22212057515715597  0.13448438709916394  0.2868228298285517  1.0000
  O   O57       1.0  0.46832261617112175  0.8396481672558096  0.4220345015700815  1.0000
  O   O58       1.0  0.7296536605160567  0.6601496480376595  0.07813058050504657  1.0000
  O   O59       1.0  0.531682885819869  0.1603492730392659  0.5779676889950593  1.0000
  O   O60       1.0  0.2703496093345734  0.33984607111776194  0.9218711422774888  1.0000
