data_image0
_chemical_formula_structural       Zn8H76C104S4O44
_chemical_formula_sum              "Zn8 H76 C104 S4 O44"
_cell_length_a       11.102324336454316
_cell_length_b       16.225793972266892
_cell_length_c       23.474682573790794
_cell_angle_alpha    89.97023568531023
_cell_angle_beta     95.27360224845056
_cell_angle_gamma    89.90889670889453

_space_group_name_H-M_alt    "P 1"
_space_group_IT_number       1

loop_
  _space_group_symop_operation_xyz
  'x, y, z'

loop_
  _atom_site_type_symbol
  _atom_site_label
  _atom_site_symmetry_multiplicity
  _atom_site_fract_x
  _atom_site_fract_y
  _atom_site_fract_z
  _atom_site_occupancy
  Zn  Zn1       1.0  0.9482975486867532  0.4804355335855847  0.1562765107433961  1.0000
  Zn  Zn2       1.0  0.15903122584505516  0.33885430834064323  0.24158094344544886  1.0000
  Zn  Zn3       1.0  0.8470604890803912  0.8379534061617733  0.2608993787998841  1.0000
  Zn  Zn4       1.0  0.043986431759222504  0.5193911303918456  0.8465167446908666  1.0000
  Zn  Zn5       1.0  0.8511550252923145  0.6595691922779637  0.7575507474228474  1.0000
  Zn  Zn6       1.0  0.9527880377918125  0.019090948480638307  0.6550570870885863  1.0000
  Zn  Zn7       1.0  0.1509383090961691  0.15916144475976782  0.7436683937954742  1.0000
  Zn  Zn8       1.0  0.05496710597810049  0.9802217711736317  0.3462275631137005  1.0000
  H   H1        1.0  0.2143928640023063  0.5212405711430819  0.41339361850314305  1.0000
  H   H2        1.0  0.22274200832711696  0.3890850654430054  0.4629323280173524  1.0000
  H   H3        1.0  0.49320924332415933  0.7472672954505057  0.4007278860745417  1.0000
  H   H4        1.0  0.3232582494776963  0.2584922869684476  0.4292920076883676  1.0000
  H   H5        1.0  0.09499776086450139  0.0789813918616815  0.5008517312080798  1.0000
  H   H6        1.0  0.28900139158522364  0.2541100560747935  0.6110629984462151  1.0000
  H   H7        1.0  0.2874330964576188  0.7816467723249333  0.3827467058624877  1.0000
  H   H8        1.0  0.0694086873121336  0.6962349420503174  0.23414519557425006  1.0000
  H   H9        1.0  0.3020358192287915  0.5261832813726456  0.3305521272665147  1.0000
  H   H10       1.0  0.5449984933092293  0.22160065794436434  0.2337679516856284  1.0000
  H   H11       1.0  0.6339747706220892  0.25111917234512054  0.2981264520450182  1.0000
  H   H12       1.0  0.5975890605951336  0.3262489394445822  0.24205644529247655  1.0000
  H   H13       1.0  0.4086924808930307  0.40597693729201023  0.36081591967469967  1.0000
  H   H14       1.0  0.5208195345586688  0.42971030860267945  0.3121094760527541  1.0000
  H   H15       1.0  0.5554869577606354  0.35926936797976333  0.37137733538047973  1.0000
  H   H16       1.0  0.6992497740382647  0.025644571262695596  0.17130518075799733  1.0000
  H   H17       1.0  0.46450221034251626  0.7141056739481472  0.26682663181838967  1.0000
  H   H18       1.0  0.3797509611367928  0.7403389813281506  0.2005508573754398  1.0000
  H   H19       1.0  0.4076532142674906  0.8174857196216152  0.2559085552674106  1.0000
  H   H20       1.0  0.6045430218113736  0.8979404628288988  0.1406145633485636  1.0000
  H   H21       1.0  0.48612716025493086  0.920615969242526  0.18621085759699701  1.0000
  H   H22       1.0  0.460439272058828  0.8484157945292592  0.12737612111382657  1.0000
  H   H23       1.0  0.7877875224322749  0.47958918885855445  0.5835167773810995  1.0000
  H   H24       1.0  0.7790400216509142  0.6127121151640651  0.5339346141172997  1.0000
  H   H25       1.0  0.5101692222960565  0.25349556728966144  0.5956839663478206  1.0000
  H   H26       1.0  0.6690250640899578  0.7457108159230759  0.5690638164533297  1.0000
  H   H27       1.0  0.9115310695689586  0.9196318718126976  0.5017774937122041  1.0000
  H   H28       1.0  0.7187657794982555  0.746896927658753  0.3887869453248314  1.0000
  H   H29       1.0  0.7182634283004531  0.2196244513655189  0.6126620901593043  1.0000
  H   H30       1.0  0.9321570949202638  0.3040312943590565  0.7628279452148022  1.0000
  H   H31       1.0  0.6959299601944623  0.473288110825834  0.667415112721784  1.0000
  H   H32       1.0  0.4445487515390383  0.7827425883665597  0.7648549606586672  1.0000
  H   H33       1.0  0.3567005262559774  0.7539288003040313  0.7000936231134318  1.0000
  H   H34       1.0  0.3924289857484809  0.6781989451393216  0.7557661225845891  1.0000
  H   H35       1.0  0.5785337604230564  0.5976668267031188  0.6371167031248249  1.0000
  H   H36       1.0  0.469664485204305  0.5751976082104447  0.6874469908833732  1.0000
  H   H37       1.0  0.4325836722081604  0.6453233064204869  0.6282815371265116  1.0000
  H   H38       1.0  0.21408059626948983  0.9839981317819735  0.9166495163518251  1.0000
  H   H39       1.0  0.2249836944244024  0.1167934692814683  0.9664074372905702  1.0000
  H   H40       1.0  0.48502439003839026  0.7533370271239548  0.9070294986152447  1.0000
  H   H41       1.0  0.33037551825528055  0.24704583268081137  0.9320995219471587  1.0000
  H   H42       1.0  0.08995064230134632  0.42083697275003823  0.0013406793427109011  1.0000
  H   H43       1.0  0.2896390300809628  0.24951306428689426  0.11324411832625003  1.0000
  H   H44       1.0  0.27978680734123174  0.7215282612941748  0.8910047049996381  1.0000
  H   H45       1.0  0.0627413792913529  0.803039150143171  0.7407968072687511  1.0000
  H   H46       1.0  0.3020655363511651  0.9734835026113302  0.8324140599846077  1.0000
  H   H47       1.0  0.5235206067378542  0.2757791912536193  0.7167850679332732  1.0000
  H   H48       1.0  0.6240272939054846  0.2673138174274214  0.7808303092636066  1.0000
  H   H49       1.0  0.5905720545466906  0.17749928124703732  0.7364372789005317  1.0000
  H   H50       1.0  0.4324006390379651  0.12110652440509992  0.8703395418360034  1.0000
  H   H51       1.0  0.5408167194434982  0.09244683924563901  0.8212753925390075  1.0000
  H   H52       1.0  0.5701377725828394  0.17841625744286202  0.8697999202467275  1.0000
  H   H53       1.0  0.7868324962261112  0.018994442737032106  0.0881452973690244  1.0000
  H   H54       1.0  0.775744038362582  0.8866091020533773  0.038955241303980905  1.0000
  H   H55       1.0  0.5125461378085917  0.24813418705785747  0.10029806537578172  1.0000
  H   H56       1.0  0.6787190422032127  0.7580642537145365  0.0734518528588026  1.0000
  H   H57       1.0  0.9010868048390961  0.5764659791172306  0.9997697199523118  1.0000
  H   H58       1.0  0.7000585015030083  0.7502884407429703  0.8908675307422628  1.0000
  H   H59       1.0  0.718105086451537  0.28033377091107786  0.11773382560216561  1.0000
  H   H60       1.0  0.93634887099887  0.19409500158716503  0.2662286847050268  1.0000
  H   H61       1.0  0.20165649551879736  0.1266115774925254  0.8574768923673588  1.0000
  H   H62       1.0  0.10649439777021291  0.32213823473829  0.7221860948897503  1.0000
  H   H63       1.0  0.16865659772264507  0.22334259707608342  0.8525724675375418  1.0000
  H   H64       1.0  0.1642191240735187  0.319678264587708  0.7863396042193075  1.0000
  H   H65       1.0  0.8005433280547222  0.6277545611935408  0.6433162135784798  1.0000
  H   H66       1.0  0.8336217582835701  0.8199370731543213  0.7166822155440472  1.0000
  H   H67       1.0  0.8275602866593132  0.7252673520379389  0.6497435964146734  1.0000
  H   H68       1.0  0.7868150412683191  0.8132299281409345  0.7788462188629738  1.0000
  H   H69       1.0  0.05909467917353341  0.34312826774081623  0.3301436514923566  1.0000
  H   H70       1.0  0.15840755399198514  0.2757799241961081  0.34791954830539146  1.0000
  H   H71       1.0  0.11157233753997528  0.1757114432624789  0.21925523010177983  1.0000
  H   H72       1.0  0.1652606950963715  0.17750445268666226  0.28402871702081717  1.0000
  H   H73       1.0  0.9406891549639554  0.8463026472125038  0.16957218382913203  1.0000
  H   H74       1.0  0.845352563627891  0.775899335804688  0.1534111932078517  1.0000
  H   H75       1.0  0.8433493856134717  0.6772478380839715  0.21748033943047324  1.0000
  H   H76       1.0  0.900796392940535  0.6747309996810529  0.2814928274064457  1.0000
  C   C1        1.0  0.2965309958574949  0.5038118272206163  0.43952845700235343  1.0000
  C   C2        1.0  0.3007762391950806  0.4299286668106391  0.46750593456399514  1.0000
  C   C3        1.0  0.40533700636876085  0.40519429209945196  0.5035383229229282  1.0000
  C   C4        1.0  0.4980162505730803  0.5399460955160651  0.48446068175314144  1.0000
  C   C5        1.0  0.3970889792499221  0.5593343798459572  0.4441491146409292  1.0000
  C   C6        1.0  0.3991319337612822  0.6333532234510673  0.4116765928280657  1.0000
  C   C7        1.0  0.49302947328223456  0.689532808023003  0.4245895706601104  1.0000
  C   C8        1.0  0.4125279067579227  0.327870312844702  0.5316632944394685  1.0000
  C   C9        1.0  0.31872954739742454  0.2637870918936541  0.5213431426529951  1.0000
  C   C10       1.0  0.284268284406096  0.2329266783592488  0.4664318322482259  1.0000
  C   C11       1.0  0.2043139841493726  0.16644845208509915  0.45903588110982  1.0000
  C   C12       1.0  0.1558308692699129  0.13149131131577013  0.5064539780297537  1.0000
  C   C13       1.0  0.18487232034000556  0.16460810777404333  0.560873652358147  1.0000
  C   C14       1.0  0.26681219819345603  0.22980762098165292  0.5681161633799691  1.0000
  C   C15       1.0  0.30746567902050265  0.6514842007158775  0.36355552827947696  1.0000
  C   C16       1.0  0.26086389299319285  0.7313154225596251  0.3535578314131413  1.0000
  C   C17       1.0  0.17712692628616372  0.7477471547997823  0.3064853321435805  1.0000
  C   C18       1.0  0.13585085451525458  0.6837299759115681  0.27009751719730707  1.0000
  C   C19       1.0  0.1787974399131187  0.6037026511798658  0.2803832071224477  1.0000
  C   C20       1.0  0.2668456103095309  0.588601823412475  0.32544385680731125  1.0000
  C   C21       1.0  0.1252520306835692  0.5329487638456032  0.24579366760637816  1.0000
  C   C22       1.0  0.1243237767122878  0.3688215744248426  0.1126445385520469  1.0000
  C   C23       1.0  0.8815611407903814  0.3305032237602177  0.2038160891304202  1.0000
  C   C24       1.0  0.17198395789743867  0.13054307809731117  0.40073874912116747  1.0000
  C   C25       1.0  0.5660755772507359  0.2718933298616548  0.26420850769912363  1.0000
  C   C26       1.0  0.4851676575236468  0.3822163841774469  0.339297330501374  1.0000
  C   C27       1.0  0.8245789197555453  0.10234364415475741  0.2208440392102844  1.0000
  C   C28       1.0  0.7359600137413979  0.0876490830458607  0.17597656220146973  1.0000
  C   C29       1.0  0.8768708189239262  0.03180710578207879  0.2562605159081954  1.0000
  C   C30       1.0  0.882382492527057  0.8670174713374693  0.3903663775848685  1.0000
  C   C31       1.0  0.12350161686212147  0.8320728953045348  0.2968935627035592  1.0000
  C   C32       1.0  0.8307673789940253  0.6297538995940215  0.10078487706628893  1.0000
  C   C33       1.0  0.44378109936557303  0.7632176985207267  0.23534220016667723  1.0000
  C   C34       1.0  0.5266582963624913  0.873252744169811  0.16056614155847634  1.0000
  C   C35       1.0  0.7046842853677904  0.4983362869509023  0.5585394137735806  1.0000
  C   C36       1.0  0.7000740506980563  0.5725170657496435  0.530784880478798  1.0000
  C   C37       1.0  0.5950736437877922  0.597446098215144  0.4949559712869913  1.0000
  C   C38       1.0  0.5025739775448557  0.4626117698678414  0.514003338239313  1.0000
  C   C39       1.0  0.6039843835916585  0.44280257705860043  0.5539017744091482  1.0000
  C   C40       1.0  0.6031210463826612  0.3679413311221182  0.5854122993552977  1.0000
  C   C41       1.0  0.5091877985871847  0.31185665119221534  0.5725194004392196  1.0000
  C   C42       1.0  0.5882532621980231  0.6744520530014384  0.4664336567192322  1.0000
  C   C43       1.0  0.6819157463261264  0.7385041473686869  0.4776461750126089  1.0000
  C   C44       1.0  0.7129155958206184  0.7697336691921282  0.532801426407552  1.0000
  C   C45       1.0  0.7952358491142633  0.8347053256639113  0.541631682985404  1.0000
  C   C46       1.0  0.8487614342487931  0.868321944134877  0.4951611460448931  1.0000
  C   C47       1.0  0.8222369555782478  0.8353182331991534  0.4405134491863836  1.0000
  C   C48       1.0  0.7385989349037843  0.7712373071647393  0.43188924695376585  1.0000
  C   C49       1.0  0.6954027721540256  0.34921196095120177  0.6330163342502361  1.0000
  C   C50       1.0  0.7437021073938226  0.26971145615259934  0.6422611071468582  1.0000
  C   C51       1.0  0.8271492559863985  0.2532901044601132  0.6893824264209274  1.0000
  C   C52       1.0  0.8665889739964143  0.31699687189044573  0.7265808540854125  1.0000
  C   C53       1.0  0.8219034401438419  0.39676676845473924  0.7169618526608518  1.0000
  C   C54       1.0  0.733952607016917  0.41155390691439925  0.6718281912106789  1.0000
  C   C55       1.0  0.8721706833275392  0.46799043732825396  0.7521480895251927  1.0000
  C   C56       1.0  0.8603705457417375  0.6286512786375769  0.8881709839993522  1.0000
  C   C57       1.0  0.1167041092615904  0.6689852964812529  0.8057736559169513  1.0000
  C   C58       1.0  0.8253066230183564  0.8701785614959262  0.6003793880572559  1.0000
  C   C59       1.0  0.424314009663469  0.7327872198860702  0.7340343662905228  1.0000
  C   C60       1.0  0.5042336420903836  0.622407993059504  0.6597095449072442  1.0000
  C   C61       1.0  0.297192646009293  0.0016117503664148003  0.9419870982859707  1.0000
  C   C62       1.0  0.303114413238049  0.0756921830102115  0.969806774330934  1.0000
  C   C63       1.0  0.4081657202287303  0.09936039210680289  0.005988209504316402  1.0000
  C   C64       1.0  0.4976667553385214  0.9632427612804122  0.987369319570533  1.0000
  C   C65       1.0  0.39624809837599867  0.944579646617335  0.9471818850784646  1.0000
  C   C66       1.0  0.39526050455637574  0.8692438755231819  0.9161599814951986  1.0000
  C   C67       1.0  0.48743864046738855  0.8119404968802258  0.9298838847892912  1.0000
  C   C68       1.0  0.4161258630647565  0.17624615028224605  0.0346083636503351  1.0000
  C   C69       1.0  0.3227168478269391  0.2407511604564618  0.0239242136996012  1.0000
  C   C70       1.0  0.28859705220058635  0.27143412456425153  0.9688608315257741  1.0000
  C   C71       1.0  0.2050079065441538  0.33591570740583176  0.960615280144637  1.0000
  C   C72       1.0  0.153802565188812  0.36995158221003516  0.007579950108009802  1.0000
  C   C73       1.0  0.1834209400299116  0.3374932674924978  0.06216097920223971  1.0000
  C   C74       1.0  0.26795972003419166  0.27371888548745454  0.0702044601572638  1.0000
  C   C75       1.0  0.3027603029381964  0.850302213661763  0.8686741673311005  1.0000
  C   C76       1.0  0.25433411439601633  0.7707164764214269  0.8605996771388649  1.0000
  C   C77       1.0  0.1705869450235653  0.7531942711648584  0.8138413791789034  1.0000
  C   C78       1.0  0.13084689288943  0.8159138892890924  0.7758092863441918  1.0000
  C   C79       1.0  0.17605703102393727  0.8955945651169017  0.7840962262697033  1.0000
  C   C80       1.0  0.2641337361192555  0.9116842327635197  0.8289906958838387  1.0000
  C   C81       1.0  0.1259008988134909  0.9655830019558211  0.7475685963886037  1.0000
  C   C82       1.0  0.12907854006992642  0.131771496857418  0.6120830149936013  1.0000
  C   C83       1.0  0.8815720112177701  0.16910390721085386  0.6988214445607  1.0000
  C   C84       1.0  0.1697692685980456  0.36987572844815025  0.9018880086584817  1.0000
  C   C85       1.0  0.5551304913350279  0.23534587678506108  0.7525018980397038  1.0000
  C   C86       1.0  0.5008023721288026  0.14389554783962674  0.843348984627518  1.0000
  C   C87       1.0  0.7043929467898947  0.0023611614215184  0.0620326888918612  1.0000
  C   C88       1.0  0.6985635189939785  0.9283653829475114  0.0342693114509984  1.0000
  C   C89       1.0  0.5934041386118452  0.9045795441491222  0.9984051642894799  1.0000
  C   C90       1.0  0.5039056711063452  0.0407112226950588  0.016705519013513  1.0000
  C   C91       1.0  0.6049964611635728  0.059021793446845515  0.05717542070138389  1.0000
  C   C92       1.0  0.6043905066761538  0.13320125046374193  0.08946951759682523  1.0000
  C   C93       1.0  0.5116037061823775  0.19039003475701585  0.07644694099475663  1.0000
  C   C94       1.0  0.5842275693357024  0.8269578501789995  0.9708271659090144  1.0000
  C   C95       1.0  0.6768358402582563  0.7618834747335229  0.9810272968302345  1.0000
  C   C96       1.0  0.7147040403151195  0.731671521044511  0.0357986040121432  1.0000
  C   C97       1.0  0.7946149736198435  0.6648557542823993  0.0425248064976813  1.0000
  C   C98       1.0  0.8398072275857871  0.6289145331687893  0.9945629126113787  1.0000
  C   C99       1.0  0.8072720678444797  0.6612996450823803  0.9401685991375504  1.0000
  C   C100      1.0  0.7252734496520007  0.7266571370219878  0.9337474105768352  1.0000
  C   C101      1.0  0.696502910810338  0.1505868142562576  0.1375169363834985  1.0000
  C   C102      1.0  0.7443332882573941  0.23005151008373304  0.14710484602345994  1.0000
  C   C103      1.0  0.8284379354675123  0.246184159433227  0.19402981898068114  1.0000
  C   C104      1.0  0.8691962197863887  0.18201047060333048  0.23052988075147604  1.0000
  S   S1        1.0  0.4282351897874079  0.29744059200661616  0.2949414656734604  1.0000
  S   S2        1.0  0.5833328182623562  0.7904794851059762  0.20692601333620086  1.0000
  S   S3        1.0  0.5629492495999813  0.7079237558026038  0.7032952104959947  1.0000
  S   S4        1.0  0.42574207188263097  0.21284322062679448  0.790752273383518  1.0000
  O   O1        1.0  0.34958996352978733  0.33647640224263853  0.24555998050828262  1.0000
  O   O2        1.0  0.14643557413815964  0.33400927114402634  0.3330209160327939  1.0000
  O   O3        1.0  0.1721514577660344  0.20237438083820794  0.24552048410483712  1.0000
  O   O4        1.0  0.1316419032818459  0.3225984550099099  0.1566608776997072  1.0000
  O   O5        1.0  0.0699219346783622  0.4379486523474796  0.10693829845840244  1.0000
  O   O6        1.0  0.9604846627536645  0.3421925060542463  0.24565877832776553  1.0000
  O   O7        1.0  0.8432898916549475  0.38593633155707613  0.1675221940395488  1.0000
  O   O8        1.0  0.1812858334129075  0.46525470919943496  0.24863095551708622  1.0000
  O   O9        1.0  0.02363905730010169  0.5489925392600697  0.2173099502915861  1.0000
  O   O10       1.0  0.1445200205720738  0.054303065879537406  0.4003765566519633  1.0000
  O   O11       1.0  0.17458449724102817  0.1764362351035658  0.356957244901146  1.0000
  O   O12       1.0  0.6566433413753573  0.83198415089435  0.2569427375951748  1.0000
  O   O13       1.0  0.9367299744449795  0.9360229031312812  0.396617778561712  1.0000
  O   O14       1.0  0.16215688325556948  0.8873928729155196  0.3330476879133998  1.0000
  O   O15       1.0  0.8207889053162416  0.9642040803028422  0.2536466421058847  1.0000
  O   O16       1.0  0.977607151175576  0.048071735097728704  0.2853135999790908  1.0000
  O   O17       1.0  0.857808508529793  0.5533543351198207  0.10138259171866083  1.0000
  O   O18       1.0  0.8315189915473057  0.6763329293202959  0.14433956771886614  1.0000
  O   O19       1.0  0.6447630009207684  0.6714467126934663  0.7522604540090185  1.0000
  O   O20       1.0  0.8472608069417901  0.668627403112879  0.6659965400854376  1.0000
  O   O21       1.0  0.8477646773790115  0.793285810450918  0.7551245877354947  1.0000
  O   O22       1.0  0.8444864316628512  0.6726272722348624  0.8433094155259298  1.0000
  O   O23       1.0  0.918102641167415  0.5607113617625431  0.8940138002933369  1.0000
  O   O24       1.0  0.0391833778637078  0.6555831706688126  0.7637321415975435  1.0000
  O   O25       1.0  0.1531239025926823  0.6142242342420445  0.8430614059381369  1.0000
  O   O26       1.0  0.8175520757617037  0.536249316491272  0.745560212075695  1.0000
  O   O27       1.0  0.9686876894423405  0.45214892177222055  0.7844561498841146  1.0000
  O   O28       1.0  0.8611916529162896  0.9446163858955856  0.6012507082524438  1.0000
  O   O29       1.0  0.8119361826081574  0.8251529825752189  0.6437360938416533  1.0000
  O   O30       1.0  0.34703298543109173  0.15818518309863092  0.7502002185190407  1.0000
  O   O31       1.0  0.151652180896356  0.16697967335721134  0.835765694071185  1.0000
  O   O32       1.0  0.16799960929386507  0.29468227947646863  0.7476077367261527  1.0000
  O   O33       1.0  0.1424173026524542  0.17524201509294096  0.6571868659081801  1.0000
  O   O34       1.0  0.07184498720555867  0.0638684940715919  0.6052999826852954  1.0000
  O   O35       1.0  0.9612005530868117  0.158253814651232  0.7402368143377914  1.0000
  O   O36       1.0  0.8432692970973504  0.11302677636652451  0.6630234206188065  1.0000
  O   O37       1.0  0.1761081923306378  0.0349403677726059  0.7553433099309148  1.0000
  O   O38       1.0  0.034150502695496195  0.9478965762267252  0.712668719912152  1.0000
  O   O39       1.0  0.13147805302980936  0.4439070534401283  0.9007993893665971  1.0000
  O   O40       1.0  0.1805754427620982  0.3240848370868292  0.8587745048586441  1.0000
  O   O41       1.0  0.8543977195508105  0.8342095384629291  0.1683632276818372  1.0000
  O   O42       1.0  0.838001523073217  0.7013625367285529  0.2563152177771216  1.0000
  O   O43       1.0  0.8757016057032205  0.8215204517338605  0.3460508659968654  1.0000
  O   O44       1.0  0.0432813844573801  0.8436672630108718  0.2555199454178024  1.0000
