data_image0
_chemical_formula_structural       Zn16H48C112S8Cl8O52
_chemical_formula_sum              "Zn16 H48 C112 S8 Cl8 O52"
_cell_length_a       18.541499094196514
_cell_length_b       19.70963868707494
_cell_length_c       32.751764558576106
_cell_angle_alpha    85.98202046763029
_cell_angle_beta     73.64261798444385
_cell_angle_gamma    62.092067717172

_space_group_name_H-M_alt    "P 1"
_space_group_IT_number       1

loop_
  _space_group_symop_operation_xyz
  'x, y, z'

loop_
  _atom_site_type_symbol
  _atom_site_label
  _atom_site_symmetry_multiplicity
  _atom_site_fract_x
  _atom_site_fract_y
  _atom_site_fract_z
  _atom_site_occupancy
  Zn  Zn1       1.0  0.8731107600332423  0.5561804475165673  0.5190796570759841  1.0000
  Zn  Zn2       1.0  0.03967622579562402  0.4817862566508211  0.438430455308591  1.0000
  Zn  Zn3       1.0  0.04261148112919231  0.39940882093324603  0.5244061675469851  1.0000
  Zn  Zn4       1.0  0.04604718567453857  0.5612046956240276  0.5174352347913569  1.0000
  Zn  Zn5       1.0  0.6257218807630663  0.19103635554680662  0.732306347638989  1.0000
  Zn  Zn6       1.0  0.46287885666308887  0.35087853756700577  0.7263312075751214  1.0000
  Zn  Zn7       1.0  0.456998212509518  0.26468220469296005  0.8124829350894416  1.0000
  Zn  Zn8       1.0  0.4546229652850117  0.1920259405087066  0.7287781483850395  1.0000
  Zn  Zn9       1.0  0.4617845432769414  0.764589988839255  0.31274098894081687  1.0000
  Zn  Zn10      1.0  0.4554058032229235  0.6898354850496349  0.23100493599230987  1.0000
  Zn  Zn11      1.0  0.6253264969076399  0.6949329730749982  0.22983677366143232  1.0000
  Zn  Zn12      1.0  0.4566435645458281  0.8515406737734282  0.22624302985433786  1.0000
  Zn  Zn13      1.0  0.03786085257635084  0.8988454973295747  0.023732362495401626  1.0000
  Zn  Zn14      1.0  0.04871876873029629  0.05801148401762651  0.019147784817860697  1.0000
  Zn  Zn15      1.0  0.8760929249555716  0.058603992262163694  0.0196222953501035  1.0000
  Zn  Zn16      1.0  0.03804064072620848  0.9849300555935585  0.937348204580644  1.0000
  H   H1        1.0  0.6940803661724999  0.7838120404749348  0.5945540801495  1.0000
  H   H2        1.0  0.8050929897588404  0.9652559404766878  0.6553325726446317  1.0000
  H   H3        1.0  0.18746494265646868  0.27365421322160444  0.3504931978240079  1.0000
  H   H4        1.0  0.3128878079940945  0.9733594192949514  0.4016882291504443  1.0000
  H   H5        1.0  0.8102639596978137  0.24370150487367684  0.6539907799806455  1.0000
  H   H6        1.0  0.5444036736774933  0.48582415784567706  0.6196891833569039  1.0000
  H   H7        1.0  0.5498441981869959  0.5263208430085413  0.665007594314325  1.0000
  H   H8        1.0  0.6511360795679549  0.5693339687308239  0.6167762372514218  1.0000
  H   H9        1.0  0.6456182384763522  0.5291198327110108  0.5714206615283715  1.0000
  H   H10       1.0  0.29283474542339144  0.6037616741391789  0.2954344041360031  1.0000
  H   H11       1.0  0.3496243975138498  0.6724447910478021  0.43490409031845445  1.0000
  H   H12       1.0  0.25924793729479484  0.7607691179214058  0.432188170657028  1.0000
  H   H13       1.0  0.16214383980548763  0.7104259347839703  0.47722610729601195  1.0000
  H   H14       1.0  0.252257102034271  0.6221170517512817  0.480007418632347  1.0000
  H   H15       1.0  0.8091019122714512  0.6036367138656404  0.2955457921198246  1.0000
  H   H16       1.0  0.548009245844831  0.7612131950564347  0.43115522453693705  1.0000
  H   H17       1.0  0.5427336826203657  0.672985228745482  0.4335883057530551  1.0000
  H   H18       1.0  0.6433258600398801  0.6228068982671999  0.4796903007348091  1.0000
  H   H19       1.0  0.6487817089151237  0.7109289651581391  0.47707797082808406  1.0000
  H   H20       1.0  0.308124661321635  0.45722754577624175  0.6466056531199341  1.0000
  H   H21       1.0  0.32881675944552313  0.18030759567610494  0.6296019396762915  1.0000
  H   H22       1.0  0.23818433015246396  0.22081794176387604  0.6749786871993776  1.0000
  H   H23       1.0  0.14255576336781664  0.2743404762306839  0.6263175235316822  1.0000
  H   H24       1.0  0.23330888076793593  0.233740361610984  0.5810570282725251  1.0000
  H   H25       1.0  0.3121835605135956  0.5893744605286527  0.786859395695643  1.0000
  H   H26       1.0  0.18802589110566706  0.66023402317402  0.9630239793636121  1.0000
  H   H27       1.0  0.6906941105165956  0.14759119932498524  0.9553267638538043  1.0000
  H   H28       1.0  0.954836978494484  0.07790646890222772  0.8161762351790782  1.0000
  H   H29       1.0  0.9498634124712666  0.9895236798066166  0.8188209293405889  1.0000
  H   H30       1.0  0.8478552804645929  0.0398312378196692  0.7735188685732125  1.0000
  H   H31       1.0  0.8526969634630961  0.1282240283093117  0.7709826048780781  1.0000
  H   H32       1.0  0.1921689179110331  0.051833838437872315  0.8452450860053844  1.0000
  H   H33       1.0  0.17159862466544243  0.21607777943409448  0.9751987740696322  1.0000
  H   H34       1.0  0.2625450448373527  0.1279899842482166  0.9775312024941344  1.0000
  H   H35       1.0  0.35764036518913406  0.174368216045778  0.9262583680624701  1.0000
  H   H36       1.0  0.26669734162754105  0.26231280618082314  0.9239770932664156  1.0000
  H   H37       1.0  0.5775495752242888  0.4674493551651794  0.15599135685644677  1.0000
  H   H38       1.0  0.928711489612205  0.2824687565989237  0.0940265987653532  1.0000
  H   H39       1.0  0.1919719770093804  0.7946307283078584  0.10316691829515888  1.0000
  H   H40       1.0  0.2620472096483297  0.0312541731979721  0.07504258939624717  1.0000
  H   H41       1.0  0.17116735867908517  0.07149261867514412  0.12036153426971907  1.0000
  H   H42       1.0  0.26633910714487286  0.017855973158901903  0.1690289845541173  1.0000
  H   H43       1.0  0.35727510047217925  0.9777614097270091  0.12381232861469733  1.0000
  H   H44       1.0  0.6909162837846807  0.0066685076167374  0.09620686403041387  1.0000
  H   H45       1.0  0.9498484048929754  0.7228155918895923  0.08535982469957294  1.0000
  H   H46       1.0  0.9547263031803793  0.7631690288137067  0.13091515218265212  1.0000
  H   H47       1.0  0.8524073005562868  0.7208679424522658  0.17870319070805601  1.0000
  H   H48       1.0  0.847716508113514  0.6802272160932362  0.1332526199185793  1.0000
  C   C1        1.0  0.8629156678568111  0.5671170940668375  0.4307704922853972  1.0000
  C   C2        1.0  0.12536455522758416  0.31347553979258447  0.43997616206559087  1.0000
  C   C3        1.0  0.8647734739977649  0.4285813637253214  0.5687477123124367  1.0000
  C   C4        1.0  0.13943935679612446  0.43532407903754944  0.5681222437078901  1.0000
  C   C5        1.0  0.8737101580752623  0.6845799450536276  0.5607390523902891  1.0000
  C   C6        1.0  0.13770800694235402  0.5680372440248364  0.4298878650667958  1.0000
  C   C7        1.0  0.6382334403978618  0.31884328438530923  0.6817189607299383  1.0000
  C   C8        1.0  0.37611388477652963  0.43440531165581575  0.8113367680193234  1.0000
  C   C9        1.0  0.6341107786990251  0.18155648155093473  0.8207068131266766  1.0000
  C   C10       1.0  0.3610671681268442  0.18006594300400994  0.8168769814042491  1.0000
  C   C11       1.0  0.6256390035240713  0.0651711320021633  0.6883777633642367  1.0000
  C   C12       1.0  0.3629036552671111  0.31931313958884294  0.680797711090527  1.0000
  C   C13       1.0  0.36333565262113143  0.6809661851515544  0.3197902498485945  1.0000
  C   C14       1.0  0.6259574044736168  0.5656441701923854  0.18858439374598393  1.0000
  C   C15       1.0  0.6371280162627925  0.6821349260097734  0.3191555399054025  1.0000
  C   C16       1.0  0.6339260881999421  0.8220063697112965  0.18040066376241984  1.0000
  C   C17       1.0  0.3751522765088778  0.933899411588591  0.31191341006115886  1.0000
  C   C18       1.0  0.3616228837465342  0.8159641865422886  0.18109765558728697  1.0000
  C   C19       1.0  0.13816036539420656  0.9317970514827466  0.06853739619607774  1.0000
  C   C20       1.0  0.8791960516469786  0.18461612511270437  0.06155188111380025  1.0000
  C   C21       1.0  0.8627400564731786  0.9307917922368891  0.06898517493189618  1.0000
  C   C22       1.0  0.8626242438050655  0.0690282059999276  0.9309827107104025  1.0000
  C   C23       1.0  0.12231592509843364  0.8153151967017963  0.9385441278797941  1.0000
  C   C24       1.0  0.1382520414763562  0.06878807938837642  0.9312699585645702  1.0000
  C   C25       1.0  0.7371829019390642  0.8022683875916032  0.6006105518460244  1.0000
  C   C26       1.0  0.761996496984821  0.9468844886955453  0.6491899393831346  1.0000
  C   C27       1.0  0.8247394801788271  0.7591319348325883  0.5858870916477413  1.0000
  C   C28       1.0  0.6744253231621257  0.9902693489515288  0.66367994226173  1.0000
  C   C29       1.0  0.7849594284659817  0.8785363522393865  0.6261276589930631  1.0000
  C   C30       1.0  0.7141986612933878  0.8707433538659971  0.6235690616555798  1.0000
  C   C31       1.0  0.20114650404902795  0.22649423747026992  0.37133183516009877  1.0000
  C   C32       1.0  0.29921743259164657  0.020533975252448  0.3808756594014255  1.0000
  C   C33       1.0  0.17450656319711297  0.23859706133594472  0.41534226071880903  1.0000
  C   C34       1.0  0.3259144504149418  0.008476103510084  0.33685113908065734  1.0000
  C   C35       1.0  0.25380471517986086  0.09987473062763999  0.39351869573771125  1.0000
  C   C36       1.0  0.24660186510918444  0.14715142746950255  0.3587333877759917  1.0000
  C   C37       1.0  0.6955066597766191  0.34661313406842004  0.6530036907403272  1.0000
  C   C38       1.0  0.8105278144375203  0.39748750928318094  0.5974008097125676  1.0000
  C   C39       1.0  0.6659568361787009  0.41833425601327434  0.6360992432223327  1.0000
  C   C40       1.0  0.840283388326064  0.32424254855364865  0.6148459113804775  1.0000
  C   C41       1.0  0.7219501264410226  0.44203487201613717  0.6093906106440699  1.0000
  C   C42       1.0  0.7842543945600866  0.30025623557196474  0.6415671084234089  1.0000
  C   C43       1.0  0.5875429141781225  0.4922903316820922  0.634350798855678  1.0000
  C   C44       1.0  0.6508613912629356  0.519341474271535  0.6041247668237304  1.0000
  C   C45       1.0  0.3059804289618455  0.6527281718369196  0.34787874040412686  1.0000
  C   C46       1.0  0.1940419125473268  0.5959780290338088  0.4003683528438699  1.0000
  C   C47       1.0  0.2798711742606343  0.663681223152885  0.3922372714681899  1.0000
  C   C48       1.0  0.22033969273975632  0.585626905689992  0.3549858273292016  1.0000
  C   C49       1.0  0.226010778253503  0.6360360891003439  0.4170996746107462  1.0000
  C   C50       1.0  0.2745848683698853  0.6130502746374945  0.3299892754196775  1.0000
  C   C51       1.0  0.28574270286281217  0.6978379439740935  0.4304400789421337  1.0000
  C   C52       1.0  0.22485418659746162  0.6663928756415275  0.4586872778628646  1.0000
  C   C53       1.0  0.6942055009108615  0.6531301259579508  0.34747579640414716  1.0000
  C   C54       1.0  0.8087704444927296  0.5956001156282157  0.40090548970901085  1.0000
  C   C55       1.0  0.6644179880659136  0.6638623198673486  0.3918153814213241  1.0000
  C   C56       1.0  0.8388464496289176  0.585307381085741  0.3554988193884156  1.0000
  C   C57       1.0  0.7201696562159655  0.635938006752511  0.417144551410594  1.0000
  C   C58       1.0  0.7829471174473284  0.6131273597705161  0.3300651846386486  1.0000
  C   C59       1.0  0.5857733750981853  0.6982870292339882  0.42957505758875664  1.0000
  C   C60       1.0  0.648773807961568  0.6667988496785142  0.4583945549519868  1.0000
  C   C61       1.0  0.3056635163565034  0.34884526596295024  0.6526011432572147  1.0000
  C   C62       1.0  0.19601120606402841  0.40925712423050703  0.5968086607199652  1.0000
  C   C63       1.0  0.2718915947173315  0.30684403358192475  0.6397104083970787  1.0000
  C   C64       1.0  0.2306529171867169  0.4519254188757672  0.6102326406261511  1.0000
  C   C65       1.0  0.21913659297112528  0.33657390952838995  0.6128823903551107  1.0000
  C   C66       1.0  0.28334050140618666  0.4223222582410103  0.6372197996113653  1.0000
  C   C67       1.0  0.2677794524215358  0.2316816139147306  0.6428505888445883  1.0000
  C   C68       1.0  0.20798979213783036  0.26513486892119437  0.6124484734278468  1.0000
  C   C69       1.0  0.2991658755189235  0.5811962653070212  0.8208214868089029  1.0000
  C   C70       1.0  0.20092936456632765  0.6684829167857275  0.929065728901982  1.0000
  C   C71       1.0  0.3269842329419461  0.5089051032495105  0.8364546924330227  1.0000
  C   C72       1.0  0.17250143858494454  0.7407963319903319  0.9134563292373342  1.0000
  C   C73       1.0  0.2469951440879824  0.6103179656598527  0.8954008776508005  1.0000
  C   C74       1.0  0.2532045443652535  0.6393711567382638  0.8544854465833112  1.0000
  C   C75       1.0  0.8049246079284913  0.0975242038007806  0.9029695680949388  1.0000
  C   C76       1.0  0.6887828172100188  0.1543646735866062  0.8503449397241382  1.0000
  C   C77       1.0  0.8338562133429407  0.0865782062442264  0.858626931826798  1.0000
  C   C78       1.0  0.6596607324452253  0.1651310422517298  0.8957332881405335  1.0000
  C   C79       1.0  0.7773352856185411  0.11430782171220244  0.8336992913832403  1.0000
  C   C80       1.0  0.7162189155483388  0.13765260052279868  0.9207937264805821  1.0000
  C   C81       1.0  0.9118812869318378  0.05243807381518911  0.8205408508467044  1.0000
  C   C82       1.0  0.8480217910108366  0.08388090719997623  0.7921936232080639  1.0000
  C   C83       1.0  0.19500157446979935  0.09682445776769551  0.9024235517132907  1.0000
  C   C84       1.0  0.304166319606928  0.15056467994341463  0.844242157380279  1.0000
  C   C85       1.0  0.22850567283111894  0.1374492902169138  0.91697434608821  1.0000
  C   C86       1.0  0.26954058392684743  0.1090991353019604  0.8295917025797832  1.0000
  C   C87       1.0  0.2809563914337119  0.1629897257265256  0.8886288174820931  1.0000
  C   C88       1.0  0.21706397489018772  0.0833191260401094  0.8579566159109928  1.0000
  C   C89       1.0  0.2326371893682264  0.170586025181592  0.9560817605927596  1.0000
  C   C90       1.0  0.2921643835998111  0.19957198328803116  0.9240201637165127  1.0000
  C   C91       1.0  0.6452731804537138  0.4483109160931704  0.14950170837614246  1.0000
  C   C92       1.0  0.8609463473156681  0.3018380548868008  0.10050248826980374  1.0000
  C   C93       1.0  0.676473506563802  0.49101554793799135  0.16358087679682137  1.0000
  C   C94       1.0  0.8295220661648414  0.25928463156893866  0.08643413891494586  1.0000
  C   C95       1.0  0.7939885003519437  0.3707730227361524  0.12341975207824865  1.0000
  C   C96       1.0  0.7123188452584088  0.3795427213699655  0.12649025624905616  1.0000
  C   C97       1.0  0.19495441412206552  0.9027231107356641  0.09695099947294492  1.0000
  C   C98       1.0  0.3044839442254029  0.8423681199888476  0.1527486762861017  1.0000
  C   C99       1.0  0.22844369029857567  0.9448943755084476  0.1099661231429039  1.0000
  C   C100      1.0  0.26975736182119175  0.7997052046907885  0.13940057953955423  1.0000
  C   C101      1.0  0.281025154919888  0.9151956387763748  0.13686258047378888  1.0000
  C   C102      1.0  0.21706657695432333  0.8293568178368461  0.11243076281431999  1.0000
  C   C103      1.0  0.23228326870791702  0.020205530568489408  0.10707461221098669  1.0000
  C   C104      1.0  0.29191018105446903  0.9866993129981193  0.1375531101195975  1.0000
  C   C105      1.0  0.8050455067816171  0.9030326461065029  0.09724073353370949  1.0000
  C   C106      1.0  0.6887122800547946  0.8527436747715172  0.1519709046349503  1.0000
  C   C107      1.0  0.8338786488074561  0.8311079254642307  0.1139179864768778  1.0000
  C   C108      1.0  0.6597050284626537  0.926144237561523  0.13469721234382348  1.0000
  C   C109      1.0  0.7772491560403479  0.8076969396855349  0.14027486579574602  1.0000
  C   C110      1.0  0.7163556332791786  0.9499058725396025  0.10843750445228291  1.0000
  C   C111      1.0  0.9118216674481092  0.7569617359131229  0.11595884917221606  1.0000
  C   C112      1.0  0.8478430684629071  0.73031790360222  0.14588313873273512  1.0000
  S   S1        1.0  0.8794883511818271  0.8011456825684391  0.5998381314976838  1.0000
  S   S2        1.0  0.6196602864749463  0.9484115763373285  0.6495683965181129  1.0000
  S   S3        1.0  0.20428703284164132  0.15417394312071053  0.4416352426060257  1.0000
  S   S4        1.0  0.2961619668162143  0.09296230141823973  0.3106187490516348  1.0000
  S   S5        1.0  0.29789481768494863  0.511072385330671  0.8918570225021795  1.0000
  S   S6        1.0  0.20165667314949312  0.7386083436015342  0.8580383011926642  1.0000
  S   S7        1.0  0.7870047373276919  0.44810435908297563  0.14899998472741768  1.0000
  S   S8        1.0  0.7190417207915589  0.30243276520380397  0.10090964407019946  1.0000
  Cl  Cl1       1.0  0.9471843691404017  0.2586210030216379  0.6048877927204827  1.0000
  Cl  Cl2       1.0  0.18661462910922214  0.5404028993936265  0.32685300554258123  1.0000
  Cl  Cl3       1.0  0.9457570538640142  0.5390314299502068  0.32769929082691357  1.0000
  Cl  Cl4       1.0  0.21137762362512544  0.5432563057566427  0.5945015124040722  1.0000
  Cl  Cl5       1.0  0.5529005379896789  0.2124535697561427  0.9238867153685674  1.0000
  Cl  Cl6       1.0  0.2879930279286498  0.0876660597347865  0.7760437969829468  1.0000
  Cl  Cl7       1.0  0.2880099950591273  0.7089178453196966  0.15557065543370635  1.0000
  Cl  Cl8       1.0  0.552995858514599  0.9921364792057904  0.14439223753908692  1.0000
  O   O1        1.0  0.9982262481037338  0.50065865373913  0.5007811360654414  1.0000
  O   O2        1.0  0.8234044700178345  0.5848351384428911  0.4705447871995076  1.0000
  O   O3        1.0  0.10345408842476896  0.37280263828967014  0.41847007646680356  1.0000
  O   O4        1.0  0.9449614752944626  0.3870740052742222  0.5589441545830239  1.0000
  O   O5        1.0  0.9427913819409003  0.5276383395582799  0.41488641669604925  1.0000
  O   O6        1.0  0.8246546759548963  0.49578929528372145  0.5564155023376143  1.0000
  O   O7        1.0  0.10890575031090317  0.3125717472955287  0.4806265231768164  1.0000
  O   O8        1.0  0.11697834598243159  0.38668725436252777  0.5598068678980254  1.0000
  O   O9        1.0  0.9546666736188314  0.6570960318335539  0.5501352656341396  1.0000
  O   O10       1.0  0.11802754134395599  0.5019200196424407  0.554318019525688  1.0000
  O   O11       1.0  0.8317998593166679  0.6542995712233904  0.5518438491931761  1.0000
  O   O12       1.0  0.11843215692928774  0.5235173917694452  0.414365178177249  1.0000
  O   O13       1.0  0.11386125767153722  0.5911944241226552  0.4692935026039677  1.0000
  O   O14       1.0  0.5008619786381061  0.24965671697012942  0.7498889279990593  1.0000
  O   O15       1.0  0.6731931838580679  0.25187871095712216  0.6949460615914873  1.0000
  O   O16       1.0  0.3979482763592159  0.43626088044863565  0.7707958921751441  1.0000
  O   O17       1.0  0.5539473902384203  0.21874829522461436  0.8365043183348106  1.0000
  O   O18       1.0  0.5585762972610624  0.3652213880884716  0.6905299535292782  1.0000
  O   O19       1.0  0.674057255463275  0.16455793570049343  0.780935508937965  1.0000
  O   O20       1.0  0.39241958936044335  0.3744136458203898  0.8324869294564793  1.0000
  O   O21       1.0  0.38094425907991075  0.21964890609748983  0.8367247506533174  1.0000
  O   O22       1.0  0.5446562050689323  0.09542008355534651  0.696575438076998  1.0000
  O   O23       1.0  0.38562789456452856  0.16400992102506254  0.7768568099608116  1.0000
  O   O24       1.0  0.6675900260055272  0.09336360387500521  0.699341823229986  1.0000
  O   O25       1.0  0.3877786338366248  0.3643663765263201  0.6910920425265701  1.0000
  O   O26       1.0  0.38224223358370313  0.25099641782491483  0.6921052795346795  1.0000
  O   O27       1.0  0.5004482918799623  0.7504230052221318  0.25022730016919326  1.0000
  O   O28       1.0  0.38697394497410204  0.7185559514739807  0.33841907790736053  1.0000
  O   O29       1.0  0.5452281403169863  0.592593117169649  0.19928016663133963  1.0000
  O   O30       1.0  0.6723772168919242  0.6690252679522785  0.2790230063800365  1.0000
  O   O31       1.0  0.3838296530377577  0.665276107088836  0.2797137343080749  1.0000
  O   O32       1.0  0.557426861193818  0.7178824708021025  0.33789200679655806  1.0000
  O   O33       1.0  0.6673847876835596  0.5967499741986516  0.19737669031361796  1.0000
  O   O34       1.0  0.6738868413954648  0.7543868593480241  0.19230201080926426  1.0000
  O   O35       1.0  0.3920932256724115  0.9359451452120238  0.2713050089033118  1.0000
  O   O36       1.0  0.5537070201398319  0.8638141651444047  0.19056988368184588  1.0000
  O   O37       1.0  0.3966010225814002  0.8739322576550352  0.33300355911024576  1.0000
  O   O38       1.0  0.3882879692674948  0.7471692660166696  0.19203370927960609  1.0000
  O   O39       1.0  0.37970700336325774  0.8661016448256692  0.191922951897169  1.0000
  O   O40       1.0  0.0007277003630861003  3.929940690029912e-05  0.9999100385466945  1.0000
  O   O41       1.0  0.1123877990389061  0.886961341686309  0.05891710264999969  1.0000
  O   O42       1.0  0.9601433523451491  0.15540491960939562  0.05167073635781343  1.0000
  O   O43       1.0  0.8279673140799063  0.9986907396296161  0.056812949279873154  1.0000
  O   O44       1.0  0.12019866023739208  0.9994347312018517  0.0563574246340792  1.0000
  O   O45       1.0  0.942321671304889  0.8838756666895905  0.059369557669086144  1.0000
  O   O46       1.0  0.8365098765889558  0.1555846385751067  0.051992223627045954  1.0000
  O   O47       1.0  0.8278474812213547  0.0845379493639413  0.9710596932169436  1.0000
  O   O48       1.0  0.102614998685098  0.8753424088418175  0.917296528077081  1.0000
  O   O49       1.0  0.9422092094739513  0.03135896596971581  0.9122514871599278  1.0000
  O   O50       1.0  0.10282024291878855  0.8136059950773388  0.979112393351194  1.0000
  O   O51       1.0  0.1200851762497024  0.08470551464890261  0.9711868670437553  1.0000
  O   O52       1.0  0.11267746902663592  0.031667189699142305  0.9137253552912908  1.0000
