data_image0
_chemical_formula_structural       Ni6H78C57N6O30
_chemical_formula_sum              "Ni6 H78 C57 N6 O30"
_cell_length_a       8.367320755213184
_cell_length_b       16.996722493847606
_cell_length_c       17.011763560221837
_cell_angle_alpha    117.35881302337104
_cell_angle_beta     99.47661321413564
_cell_angle_gamma    99.41619319319646

_space_group_name_H-M_alt    "P 1"
_space_group_IT_number       1

loop_
  _space_group_symop_operation_xyz
  'x, y, z'

loop_
  _atom_site_type_symbol
  _atom_site_label
  _atom_site_symmetry_multiplicity
  _atom_site_fract_x
  _atom_site_fract_y
  _atom_site_fract_z
  _atom_site_occupancy
  Ni  Ni1       1.0  0.03550984076409973  0.8448625942911933  0.06081573326585509  1.0000
  Ni  Ni2       1.0  0.19093576047728794  0.21616941612050766  0.1548810026273841  1.0000
  Ni  Ni3       1.0  0.9744945884574323  0.9387075110522431  0.7838513105904636  1.0000
  Ni  Ni4       1.0  0.5983595513154186  0.15664377213744274  0.9394334661281648  1.0000
  Ni  Ni5       1.0  0.4416343897398533  0.7822588493199303  0.8434861016690505  1.0000
  Ni  Ni6       1.0  0.6592439746468629  0.060800743840367495  0.21707311584435024  1.0000
  H   H1        1.0  0.021740653119188408  0.020946111265430997  0.12179201848538673  1.0000
  H   H2        1.0  0.0010054986883858007  0.10101970903821919  0.9788743510182984  1.0000
  H   H3        1.0  0.8997018320129586  0.8778248048098262  0.8988666579817846  1.0000
  H   H4        1.0  0.2067380049235226  0.0186734924873306  0.11338154332182171  1.0000
  H   H5        1.0  0.1880920922261495  0.0946519653099429  0.9808660321152802  1.0000
  H   H6        1.0  0.09296033045894357  0.8859079941253539  0.9051134716661906  1.0000
  H   H7        1.0  0.42258769074585  0.9813296035092094  0.8784867445693862  1.0000
  H   H8        1.0  0.4415979298535789  0.8969927881704293  0.01883686770837285  1.0000
  H   H9        1.0  0.5443399928897819  0.12132934472248277  0.10265093854323479  1.0000
  H   H10       1.0  0.6134855824830581  0.980684693113801  0.887414742572723  1.0000
  H   H11       1.0  0.6331238479555097  0.9066617143126192  0.018994849191407866  1.0000
  H   H12       1.0  0.7263712262473875  0.11235783643154919  0.09318764337867691  1.0000
  H   H13       1.0  0.7230905641422539  0.6898992988184104  0.024000736110643524  1.0000
  H   H14       1.0  0.03331701474738224  0.33409953513126567  0.309846386867207  1.0000
  H   H15       1.0  0.6984813419209176  0.9760438840053067  0.6664642911425033  1.0000
  H   H16       1.0  0.7200233325944511  0.6014555508413224  0.9133179269911551  1.0000
  H   H17       1.0  0.11812507532812329  0.31127592136435567  0.3979852220834701  1.0000
  H   H18       1.0  0.8059022239133496  0.08711904084741208  0.6891131451846634  1.0000
  H   H19       1.0  0.936414208097453  0.6247613801198354  0.8559485370318002  1.0000
  H   H20       1.0  0.3111832713726272  0.2304279162028351  0.3744509424679805  1.0000
  H   H21       1.0  0.0800825377216157  0.14433191313446508  0.7698296191357061  1.0000
  H   H22       1.0  0.09743577090350194  0.6087318811492891  0.9218501965287091  1.0000
  H   H23       1.0  0.4884437426774397  0.3125266820808292  0.39089891206465677  1.0000
  H   H24       1.0  0.17507120508805943  0.0788267079898759  0.6876698534507215  1.0000
  H   H25       1.0  0.9416666699135804  0.700343987565212  0.12060385023652731  1.0000
  H   H26       1.0  0.24166417177623603  0.42041776597695696  0.2997465032964399  1.0000
  H   H27       1.0  0.8201739809704878  0.8799891558707884  0.5797909777639704  1.0000
  H   H28       1.0  0.14642782685838557  0.721963273337103  0.1117231640582688  1.0000
  H   H29       1.0  0.4246582503363215  0.3897142559281832  0.2780647357531549  1.0000
  H   H30       1.0  0.03372450320539143  0.8884083624646165  0.6102330193892341  1.0000
  H   H31       1.0  0.2936543304909805  0.4449556227150354  0.9843174699864791  1.0000
  H   H32       1.0  0.8491549313020242  0.5395911674857955  0.5548332060188201  1.0000
  H   H33       1.0  0.30877988445067933  0.015353655089597898  0.46061159012349867  1.0000
  H   H34       1.0  0.7343504076996368  0.6037303360951398  0.08163376716059643  1.0000
  H   H35       1.0  0.13059876385585062  0.4777139067141291  0.3963684741291332  1.0000
  H   H36       1.0  0.6519065759047822  0.9200382896700035  0.522860768476484  1.0000
  H   H37       1.0  0.6660701266410101  0.4956420903260294  0.07287770468714419  1.0000
  H   H38       1.0  0.1699469934928572  0.5765759807157307  0.5046535539713517  1.0000
  H   H39       1.0  0.5923110757342729  0.9302215752481261  0.42450919113034047  1.0000
  H   H40       1.0  0.6145015792864541  0.5073384354618893  0.9746248272935818  1.0000
  H   H41       1.0  0.10725797680503758  0.46629129985500123  0.49233781241876073  1.0000
  H   H42       1.0  0.6417631235735399  0.0279934230033589  0.5349773164166863  1.0000
  H   H43       1.0  0.359397512318573  0.6851643429952929  0.1320528002784869  1.0000
  H   H44       1.0  0.6740790876018538  0.44683046534694876  0.3147981417486179  1.0000
  H   H45       1.0  0.226399271845608  0.8683849197080418  0.5537902883081429  1.0000
  H   H46       1.0  0.3496867190127659  0.6554043669839158  0.01695571577935329  1.0000
  H   H47       1.0  0.6944366789942437  0.3614717161091079  0.34466117313254335  1.0000
  H   H48       1.0  0.33198474691712937  0.983674451036478  0.6389942939722032  1.0000
  H   H49       1.0  0.4450098119109072  0.5962010322194543  0.06518826468505516  1.0000
  H   H50       1.0  0.8488755517290087  0.468967599462907  0.4037315362432849  1.0000
  H   H51       1.0  0.3791800947642869  0.9351577489404332  0.5316756520824839  1.0000
  H   H52       1.0  0.16852076189313442  0.29159951231464737  0.909954569707587  1.0000
  H   H53       1.0  0.8774608604210813  0.6186064392567728  0.708098939983664  1.0000
  H   H54       1.0  0.25767926700475396  0.08882225536029856  0.38069873431806667  1.0000
  H   H55       1.0  0.955818047675919  0.25450499746986566  0.8431737667900876  1.0000
  H   H56       1.0  0.7022223988376554  0.5891973181570194  0.745512534634635  1.0000
  H   H57       1.0  0.11254686205499814  0.1561039995014255  0.4102126583502681  1.0000
  H   H58       1.0  0.001804605616072801  0.2561419017302455  0.9487105085832539  1.0000
  H   H59       1.0  0.7460724503172785  0.6928429871959736  0.7433363268706543  1.0000
  H   H60       1.0  0.051869124443250314  0.05011473452076132  0.306797783283173  1.0000
  H   H61       1.0  0.7255689975227779  0.27545432915924545  0.8808941154438372  1.0000
  H   H62       1.0  0.45047401845275914  0.6049562080839905  0.7241956020901981  1.0000
  H   H63       1.0  0.8450251738328376  0.1191978329508174  0.39420796272980857  1.0000
  H   H64       1.0  0.6080737875072161  0.35624073785993454  0.9161538094443955  1.0000
  H   H65       1.0  0.25220154564387803  0.5594157607058321  0.6433907188560825  1.0000
  H   H66       1.0  0.6918965190903777  0.08437015747837509  0.439711708883209  1.0000
  H   H67       1.0  0.9077607879295112  0.39914016415958287  0.1028022781322875  1.0000
  H   H68       1.0  0.5086703386166533  0.7040298074719118  0.6010952859438419  1.0000
  H   H69       1.0  0.805231716667514  0.8971415741041896  0.2959603865571339  1.0000
  H   H70       1.0  0.7610401523853482  0.3628196956709573  0.151110397562725  1.0000
  H   H71       1.0  0.39783900040718834  0.788490631198016  0.6377250582628946  1.0000
  H   H72       1.0  0.6099099687546429  0.8489130882839717  0.21149254628416966  1.0000
  H   H73       1.0  0.42173372308200646  0.30989251622212066  0.9713175292796521  1.0000
  H   H74       1.0  0.11228317511635313  0.6611549916638849  0.690326093974754  1.0000
  H   H75       1.0  0.4506057148940458  0.028606437928360193  0.33835022196343806  1.0000
  H   H76       1.0  0.536608721384809  0.39949475659063427  0.08540731919185152  1.0000
  H   H77       1.0  0.13648388890140956  0.6856171186064444  0.6006829836777002  1.0000
  H   H78       1.0  0.45105420213297986  0.9143723002320384  0.31356957491497883  1.0000
  C   C1        1.0  0.7217907465395257  0.7349618237980877  0.9276710075585655  1.0000
  C   C2        1.0  0.9865680441448175  0.19251405944174843  0.264265508993482  1.0000
  C   C3        1.0  0.7936237483734417  0.07211919719108552  0.8077907853998738  1.0000
  C   C4        1.0  0.7763714603339266  0.6746472680255591  0.9654715971218762  1.0000
  C   C5        1.0  0.1015851667545107  0.2905716063090579  0.3249180950750842  1.0000
  C   C6        1.0  0.8102879251074527  0.034692277420944585  0.70977820554792  1.0000
  C   C7        1.0  0.03635492813359068  0.6608898428028241  0.9211341742620505  1.0000
  C   C8        1.0  0.3752217878437776  0.2597978392129008  0.3386364831438868  1.0000
  C   C9        1.0  0.1148374851874152  0.07913053423400378  0.7404029714951791  1.0000
  C   C10       1.0  0.16186161748269262  0.7330458040764256  0.9153020670667048  1.0000
  C   C11       1.0  0.42880432001003765  0.18201137117351607  0.2663675131118879  1.0000
  C   C12       1.0  0.2463247686444987  0.08455079824916109  0.8181105957720761  1.0000
  C   C13       1.0  0.019518656869273253  0.6761768463035904  0.07316404246299144  1.0000
  C   C14       1.0  0.34350767554946776  0.3968916015014726  0.3237876954704362  1.0000
  C   C15       1.0  0.9457214646613039  0.9273207581922661  0.6033307184177161  1.0000
  C   C16       1.0  0.021163489652486957  0.5773753562816778  0.04035194785962647  1.0000
  C   C17       1.0  0.44393127519673936  0.46268231497251827  0.42256553401810487  1.0000
  C   C18       1.0  0.9804899334346049  0.9604881934017938  0.5376715106963417  1.0000
  C   C19       1.0  0.1751003450330302  0.5548653194165067  0.03124545474427253  1.0000
  C   C20       1.0  0.6204520945616138  0.4763114332057724  0.44506483575800354  1.0000
  C   C21       1.0  0.14335978323208562  0.9691445910645341  0.5240239749752291  1.0000
  C   C22       1.0  0.17507108920253242  0.4624793285510904  0.9918700844022369  1.0000
  C   C23       1.0  0.7129371928561453  0.5294135613818368  0.5373776388253901  1.0000
  C   C24       1.0  0.1827672839187073  0.008172949288265802  0.4707921267841257  1.0000
  C   C25       1.0  0.029106117568694904  0.39127503488604276  0.960649385604974  1.0000
  C   C26       1.0  0.6381873067683658  0.5693348467087558  0.6085477265801487  1.0000
  C   C27       1.0  0.06804640118993892  0.039281849876744  0.43059471097245716  1.0000
  C   C28       1.0  0.8770386028808945  0.4136812571907242  0.974447443381635  1.0000
  C   C29       1.0  0.4636228849621916  0.5605370596950009  0.5861599736278224  1.0000
  C   C30       1.0  0.9023863719811375  0.0260046875321578  0.43948902322546973  1.0000
  C   C31       1.0  0.8749445220964633  0.5070220132638212  0.01626419857747401  1.0000
  C   C32       1.0  0.36806282309686383  0.5088341214209819  0.4929201310053131  1.0000
  C   C33       1.0  0.8585734867050834  0.9848638087178118  0.49151796858097196  1.0000
  C   C34       1.0  0.7148875682832454  0.5298744506926666  0.03722849319690607  1.0000
  C   C35       1.0  0.18496224425914684  0.5067581711829447  0.47012763238148386  1.0000
  C   C36       1.0  0.6777353125014829  0.9649550192374929  0.4940701288654168  1.0000
  C   C37       1.0  0.34001227169679293  0.6267518238815839  0.06291568601089627  1.0000
  C   C38       1.0  0.7133813473187801  0.43610845723371466  0.3731913544062238  1.0000
  C   C39       1.0  0.2764319165663948  0.9374954954747704  0.5644115147051421  1.0000
  C   C40       1.0  0.03954560655930812  0.2935317907462007  0.9136350037186534  1.0000
  C   C41       1.0  0.7465596263090931  0.6203480379652716  0.7062018304820086  1.0000
  C   C42       1.0  0.12520429759794643  0.0855002766059556  0.37919569887606747  1.0000
  C   C43       1.0  0.7170195772338699  0.3371179319796694  0.9404116615874116  1.0000
  C   C44       1.0  0.38012461310060536  0.6029141507311664  0.6626255466440938  1.0000
  C   C45       1.0  0.7766690408961808  0.0598518082578749  0.3965568491879169  1.0000
  C   C46       1.0  0.810560127179457  0.3396917224896185  0.09042718643278395  1.0000
  C   C47       1.0  0.47067627147770713  0.750775514383065  0.6605755365992039  1.0000
  C   C48       1.0  0.7202085148745212  0.9096053939748997  0.2490410035453649  1.0000
  C   C49       1.0  0.8950671689006313  0.26621354351441073  0.08880963116374113  1.0000
  C   C50       1.0  0.6284350441725765  0.8226368047786606  0.7341348213385501  1.0000
  C   C51       1.0  0.8060643559418497  0.9111743275808236  0.17714424304377724  1.0000
  C   C52       1.0  0.44578112930610553  0.2659054402609442  0.07025472405736367  1.0000
  C   C53       1.0  0.17967184548553666  0.8041298252156109  0.7342272544679247  1.0000
  C   C54       1.0  0.3753161970836913  0.9297908132404655  0.19539334676591835  1.0000
  C   C55       1.0  0.5176722574827156  0.3269761892674054  0.03338012610352331  1.0000
  C   C56       1.0  0.19062174450717612  0.7061689706125732  0.673131345793003  1.0000
  C   C57       1.0  0.4842807305108252  0.9665258310068409  0.29325592555251484  1.0000
  N   N1        1.0  0.9609053962651829  0.6982811941395182  0.9991256855889432  1.0000
  N   N2        1.0  0.26257298050359174  0.3006851862085114  0.30147730250349974  1.0000
  N   N3        1.0  0.9612565477023552  0.0010816810748153  0.6995656438069632  1.0000
  N   N4        1.0  0.6720163214320396  0.3070351781547629  0.007323813287108294  1.0000
  N   N5        1.0  0.364883993497081  0.6999372567717899  0.692807715202953  1.0000
  N   N6        1.0  0.6647568418366419  0.9926482343172862  0.2995859155346565  1.0000
  O   O1        1.0  0.8232745697983289  0.813398827133099  0.9577046720623417  1.0000
  O   O2        1.0  0.009748715981359644  0.14431840184037983  0.18587299929256326  1.0000
  O   O3        1.0  0.8650318443375511  0.041723246345526384  0.8558136159573949  1.0000
  O   O4        1.0  0.09295153037376032  0.9799586464964561  0.09705876487492293  1.0000
  O   O5        1.0  0.11364595872258579  0.1178736932026752  0.019703202752637608  1.0000
  O   O6        1.0  0.9958103608498095  0.9024705161403332  0.8826989619021433  1.0000
  O   O7        1.0  0.5387066194874349  0.020855634409265595  0.9032519424603154  1.0000
  O   O8        1.0  0.5177850109476907  0.8813244943204309  0.9792029468870352  1.0000
  O   O9        1.0  0.6352047933327114  0.09599339585486182  0.11688200897629743  1.0000
  O   O10       1.0  0.576269047051767  0.7031265864341022  0.8722730196137576  1.0000
  O   O11       1.0  0.8726373747514559  0.16881031265913995  0.295821251883865  1.0000
  O   O12       1.0  0.7037388594340898  0.1276416985647657  0.831649244528606  1.0000
  O   O13       1.0  0.1784156908176371  0.8179356395498798  0.969462191553241  1.0000
  O   O14       1.0  0.36072522260922574  0.1516267807925331  0.1815804061596538  1.0000
  O   O15       1.0  0.20866942368952124  0.030068454090319097  0.8484457172663584  1.0000
  O   O16       1.0  0.23890725321518155  0.7013047269434836  0.8542093143825725  1.0000
  O   O17       1.0  0.5375675731973716  0.15245179596864492  0.2979000621837146  1.0000
  O   O18       1.0  0.3845645844050267  0.1456990042106554  0.8477057805169821  1.0000
  O   O19       1.0  0.036187627222084  0.29628354349243574  0.14765467802038756  1.0000
  O   O20       1.0  0.7392986491177922  0.8517502755393379  0.704221626428577  1.0000
  O   O21       1.0  0.8875931615339996  0.8519956890811213  0.1479718712059323  1.0000
  O   O22       1.0  0.8193082894950834  0.18192785584655977  0.031573109391594266  1.0000
  O   O23       1.0  0.636910261999745  0.8494016498514155  0.8183030765941482  1.0000
  O   O24       1.0  0.7881016653622981  0.9687177547547988  0.1504427255888315  1.0000
  O   O25       1.0  0.3613771065208553  0.297995723425835  0.12712954180504704  1.0000
  O   O26       1.0  0.06316089164640466  0.8290120372802717  0.70215596370101  1.0000
  O   O27       1.0  0.23392453710362565  0.8729075883937013  0.17051667827011832  1.0000
  O   O28       1.0  0.4735042875320091  0.18702243206622876  0.039306626032221494  1.0000
  O   O29       1.0  0.28609211330192613  0.8519768499126528  0.8131112302476424  1.0000
  O   O30       1.0  0.43387847834070215  0.960835529375231  0.14757070339427247  1.0000
