data_image0
_chemical_formula_structural       Zn2H48C52N4O12
_chemical_formula_sum              "Zn2 H48 C52 N4 O12"
_cell_length_a       10.53393103981155
_cell_length_b       10.504893612978337
_cell_length_c       13.0543
_cell_angle_alpha    93.91108471680201
_cell_angle_beta     113.57092411125797
_cell_angle_gamma    114.91739463019915

_space_group_name_H-M_alt    "P 1"
_space_group_IT_number       1

loop_
  _space_group_symop_operation_xyz
  'x, y, z'

loop_
  _atom_site_type_symbol
  _atom_site_label
  _atom_site_symmetry_multiplicity
  _atom_site_fract_x
  _atom_site_fract_y
  _atom_site_fract_z
  _atom_site_occupancy
  Zn  Zn1       1.0  0.25256205539276516  0.5026255830160551  0.7499966723150207  1.0000
  Zn  Zn2       1.0  0.7474362619016757  0.4973741255039669  0.2500036113465851  1.0000
  H   H1        1.0  0.9498610069078948  0.7676588474922141  0.0826816219569366  1.0000
  H   H2        1.0  0.8151062211661185  0.1324668112796132  0.5826699204717228  1.0000
  H   H3        1.0  0.0501393818433797  0.23234086102780083  0.9173185640894133  1.0000
  H   H4        1.0  0.18489416758515628  0.8675328972404017  0.41733026557463393  1.0000
  H   H5        1.0  0.5626484048886198  0.5422042283938282  0.9369091199271934  1.0000
  H   H6        1.0  0.8943298599994588  0.374172917532789  0.437124406426406  1.0000
  H   H7        1.0  0.4373515312044559  0.4577965750923099  0.06309098015602636  1.0000
  H   H8        1.0  0.10566949302339868  0.625826790987233  0.5628754454120182  1.0000
  H   H9        1.0  0.9263850096369594  0.805162532072373  0.20665326811757714  1.0000
  H   H10       1.0  0.9021863096229339  0.2805051357534296  0.7067550402331333  1.0000
  H   H11       1.0  0.07361596218454027  0.19483827141376509  0.7933479322046891  1.0000
  H   H12       1.0  0.09781407912833368  0.7194945727665925  0.29324514581322336  1.0000
  H   H13       1.0  0.7555748708106406  0.9346159965894215  0.6825756873636591  1.0000
  H   H14       1.0  0.24830394491685587  0.927230450109228  0.18277144019313593  1.0000
  H   H15       1.0  0.2444244822122172  0.0653837119305933  0.31742263241252994  1.0000
  H   H16       1.0  0.7516959911762199  0.0727703533769102  0.8172286598900839  1.0000
  H   H17       1.0  0.8935185281555674  0.898590516271426  0.5747938799771287  1.0000
  H   H18       1.0  0.17636693599916942  0.6809287710499206  0.07478141507530713  1.0000
  H   H19       1.0  0.10648186059570007  0.10140919224859599  0.42520630606922066  1.0000
  H   H20       1.0  0.8236330000939133  0.3190720324362175  0.9252186850079125  1.0000
  H   H21       1.0  0.5321143485988243  0.6351011540246319  0.49137641928736986  1.0000
  H   H22       1.0  0.35593946501096235  0.9583285828866934  0.9912353906358432  1.0000
  H   H23       1.0  0.46788558749425835  0.3648996494615133  0.508625212858078  1.0000
  H   H24       1.0  0.6440598880118884  0.0416711256333215  0.008764461202574148  1.0000
  H   H25       1.0  0.48055488104953514  0.5424889195850611  0.6509096662662086  1.0000
  H   H26       1.0  0.6082454537095572  0.1701402156083915  0.15088988106305115  1.0000
  H   H27       1.0  0.5194444719733156  0.45751078893495384  0.3490901855722085  1.0000
  H   H28       1.0  0.39175389931330057  0.8298594929116305  0.8491099707753659  1.0000
  H   H29       1.0  0.023042674725921565  0.7463902255750483  0.6271771049922987  1.0000
  H   H30       1.0  0.3805342324038603  0.6035562750701543  0.1269385658086576  1.0000
  H   H31       1.0  0.9769577140253458  0.2536094829449738  0.3728230810540506  1.0000
  H   H32       1.0  0.6194646679607985  0.3964445284159837  0.8730612000666296  1.0000
  H   H33       1.0  0.8758171347517701  0.6593798378060001  0.8893665541879866  1.0000
  H   H34       1.0  0.7301329111550955  0.014197330713450598  0.38952437540919477  1.0000
  H   H35       1.0  0.12418059947243877  0.3406187757478989  0.11063194916658857  1.0000
  H   H36       1.0  0.26986909639482076  0.9858034727726945  0.6104771591210036  1.0000
  H   H37       1.0  0.35931337706259103  0.7261147379288246  0.3634373472346366  1.0000
  H   H38       1.0  0.13703489787274492  0.0033002278860366  0.8633464555464059  1.0000
  H   H39       1.0  0.6406870116886835  0.2738849705911974  0.6365628388117128  1.0000
  H   H40       1.0  0.8629650382203305  0.9967005756001015  0.1366528785056998  1.0000
  H   H41       1.0  0.7485366961252851  0.8174020633630477  0.8410956003589829  1.0000
  H   H42       1.0  0.5240910359088957  0.0932757839083607  0.3414636505268475  1.0000
  H   H43       1.0  0.25146265689756575  0.1825976451569744  0.15890348544832014  1.0000
  H   H44       1.0  0.4759077340437301  0.9067228296455383  0.6585359530667743  1.0000
  H   H45       1.0  0.8810187613554702  0.5472980107846226  0.11586526258636082  1.0000
  H   H46       1.0  0.0682565833759767  0.23454502782760042  0.615868875149786  1.0000
  H   H47       1.0  0.11898059166738045  0.45270169773539953  0.8841345892520636  1.0000
  H   H48       1.0  0.9317433527171061  0.7654557756585376  0.38413122493343366  1.0000
  C   C1        1.0  0.039168225009959215  0.6039603175684789  0.7931693406253257  1.0000
  C   C2        1.0  0.6892537345593934  0.7541557252989222  0.29310927305318285  1.0000
  C   C3        1.0  0.9608311280128915  0.3960393909515432  0.20683051121309148  1.0000
  C   C4        1.0  0.31074723726210607  0.2458450781872159  0.7068919272690833  1.0000
  C   C5        1.0  0.9586897881223633  0.6950669735928798  0.762358534121553  1.0000
  C   C6        1.0  0.5673683672374706  0.8037445509468171  0.26234374812297284  1.0000
  C   C7        1.0  0.04131060062890407  0.3049327349271351  0.2376408858936827  1.0000
  C   C8        1.0  0.432632604584029  0.196256252539321  0.7376574521992935  1.0000
  C   C9        1.0  0.9625671099567014  0.7622201507735866  0.6735532591007212  1.0000
  C   C10       1.0  0.4113644602773832  0.7107578380941675  0.17346805276104496  1.0000
  C   C11       1.0  0.037432695724341186  0.2377784627803123  0.326446678700833  1.0000
  C   C12       1.0  0.5886359284738845  0.2892418704258475  0.8265328993164188  1.0000
  C   C13       1.0  0.8893663723287374  0.8478235070782816  0.6443298978569625  1.0000
  C   C14       1.0  0.2966908570356991  0.7547721912245464  0.14436973693440072  1.0000
  C   C15       1.0  0.11063505215095398  0.1521762014417405  0.3556698563661981  1.0000
  C   C16       1.0  0.7033095317155754  0.2452275172954685  0.8556312151430701  1.0000
  C   C17       1.0  0.8131387203530024  0.8679446045015666  0.7052546229702867  1.0000
  C   C18       1.0  0.33756119455962613  0.8922846063856653  0.20545617584667744  1.0000
  C   C19       1.0  0.18686166839826507  0.1320551040184483  0.29474479704494877  1.0000
  C   C20       1.0  0.6624397772618665  0.1077161971004728  0.7945442584444746  1.0000
  C   C21       1.0  0.8086516251671226  0.8017177686584773  0.7941169798908942  1.0000
  C   C22       1.0  0.49266952273742237  0.9858768355027365  0.29438789672018106  1.0000
  C   C23       1.0  0.19134876358415198  0.19828193986153758  0.2058824401243412  1.0000
  C   C24       1.0  0.50733144908407  0.0141239679834015  0.705611771539857  1.0000
  C   C25       1.0  0.8800258010746801  0.7143394722730747  0.8219380523022647  1.0000
  C   C26       1.0  0.6077269949163763  0.9423168933122099  0.32211215076633676  1.0000
  C   C27       1.0  0.11997355194817767  0.2856602362469403  0.17806026747391704  1.0000
  C   C28       1.0  0.3922739769051232  0.0576839101739282  0.6778890495559293  1.0000
  C   C29       1.0  0.19896847041324145  0.6307234794763943  0.5440392402950066  1.0000
  C   C30       1.0  0.4133854984276296  0.34528004652123906  0.04420419390660863  1.0000
  C   C31       1.0  0.8010302995393843  0.3692751340774976  0.4559595972674939  1.0000
  C   C32       1.0  0.58661547339387  0.654720756964899  0.9557962403845435  1.0000
  C   C33       1.0  0.21986046316600746  0.6861495695106399  0.454491607953905  1.0000
  C   C34       1.0  0.26830433571361567  0.23450013421667387  0.954629971673114  1.0000
  C   C35       1.0  0.7801421274541339  0.3138523289416142  0.545508642758861  1.0000
  C   C36       1.0  0.7316960530376589  0.765499574303341  0.04537021437323569  1.0000
  C   C37       1.0  0.3404362288741395  0.6861911782232042  0.43387136329865666  1.0000
  C   C38       1.0  0.2475108508195376  0.0928706464439131  0.9338628728396255  1.0000
  C   C39       1.0  0.65956474294736  0.3138096252629339  0.5661298370236094  1.0000
  C   C40       1.0  0.7524889548615049  0.9071279671099859  0.06613706496192849  1.0000
  C   C41       1.0  0.4358826079324273  0.6344726434716819  0.5041291433854835  1.0000
  C   C42       1.0  0.3694393053062655  0.0676502917992394  0.004044683547732556  1.0000
  C   C43       1.0  0.5641145432215566  0.365524875116094  0.4958691117242892  1.0000
  C   C44       1.0  0.6305616665152342  0.9323505116868986  0.9959557507434197  1.0000
  C   C45       1.0  0.40835694277275536  0.583032230114668  0.5928764625022254  1.0000
  C   C46       1.0  0.5097315166365418  0.1842696584223944  0.0928422538187731  1.0000
  C   C47       1.0  0.5916424102500953  0.4169674784053541  0.40712415536731317  1.0000
  C   C48       1.0  0.4902694551849506  0.8157311450637508  0.9071581804723788  1.0000
  C   C49       1.0  0.11839000434413552  0.7468030278023292  0.3835594545155984  1.0000
  C   C50       1.0  0.1368220222766752  0.2650201248827244  0.8836455980357625  1.0000
  C   C51       1.0  0.8816103844071318  0.2531966807176858  0.6164399654996372  1.0000
  C   C52       1.0  0.8631767476759504  0.7349784886711745  0.11635400555785931  1.0000
  N   N1        1.0  0.29128877244195905  0.5808269683487453  0.6120523490944831  1.0000
  N   N2        1.0  0.5312327098852947  0.32091267048413386  0.11212771064348451  1.0000
  N   N3        1.0  0.7087111636511236  0.41917383513739276  0.3879485170198577  1.0000
  N   N4        1.0  0.4687672262077881  0.6790881330020042  0.8878723894397352  1.0000
  O   O1        1.0  0.020360625289292344  0.531576487231966  0.8649266369047195  1.0000
  O   O2        1.0  0.8333502451856061  0.8450094441495821  0.36497475293497655  1.0000
  O   O3        1.0  0.9796397634619751  0.4684232212880488  0.13507354914163014  1.0000
  O   O4        1.0  0.16665014356566835  0.1549902643704399  0.6350254331113732  1.0000
  O   O5        1.0  0.12284109162282414  0.607090825705896  0.7432097468131572  1.0000
  O   O6        1.0  0.6360443293735826  0.6201318721964952  0.24291450633392478  1.0000
  O   O7        1.0  0.8771588444702516  0.3929099777802421  0.2567903532700625  1.0000
  O   O8        1.0  0.36395560671949306  0.3798689312896428  0.757085593749295  1.0000
  O   O9        1.0  0.9726072537948269  0.6913079549025198  0.38816243174106546  1.0000
  O   O10       1.0  0.1970118305511832  0.41578600996174936  0.8882086509476605  1.0000
  O   O11       1.0  0.02739209922802389  0.3086917536175022  0.6118374200973589  1.0000
  O   O12       1.0  0.8029853206028007  0.5842115086260335  0.11179037019322634  1.0000
