data_image0
_chemical_formula_structural       Zn2H28C26N2O8
_chemical_formula_sum              "Zn2 H28 C26 N2 O8"
_cell_length_a       7.931246533199069
_cell_length_b       8.719315312147176
_cell_length_c       9.784287143262574
_cell_angle_alpha    74.68574157132349
_cell_angle_beta     76.08240448942931
_cell_angle_gamma    77.50200240345906

_space_group_name_H-M_alt    "P 1"
_space_group_IT_number       1

loop_
  _space_group_symop_operation_xyz
  'x, y, z'

loop_
  _atom_site_type_symbol
  _atom_site_label
  _atom_site_symmetry_multiplicity
  _atom_site_fract_x
  _atom_site_fract_y
  _atom_site_fract_z
  _atom_site_occupancy
  Zn  Zn1       1.0  0.917819333206985  0.9893712603891347  0.3894332195862448  1.0000
  Zn  Zn2       1.0  0.08218351547513687  0.010612015323651696  0.6105721654628624  1.0000
  H   H1        1.0  0.14913781722393074  0.41399657967954795  0.6442009967986808  1.0000
  H   H2        1.0  0.8508755540378701  0.5859998893855264  0.355792855266188  1.0000
  H   H3        1.0  0.24315389151135486  0.4339534467221072  0.7860225246398047  1.0000
  H   H4        1.0  0.7568753508890822  0.5660489256298717  0.2139576305285048  1.0000
  H   H5        1.0  0.2632320576333171  0.5753365536758326  0.6181906274611038  1.0000
  H   H6        1.0  0.7367718250530118  0.4246691823938491  0.38179541792604976  1.0000
  H   H7        1.0  0.4364019738866105  0.31633609271462865  0.5087909977510564  1.0000
  H   H8        1.0  0.5636139766977878  0.683674557077275  0.4911894750608497  1.0000
  H   H9        1.0  0.563846638003085  0.3174980459533714  0.7813468021819149  1.0000
  H   H10       1.0  0.4361561013372537  0.6825136748370186  0.21863687386234426  1.0000
  H   H11       1.0  0.15366334921582575  0.6813722527157041  0.9326080444418994  1.0000
  H   H12       1.0  0.8463567242718072  0.31860898927322984  0.06739875410442413  1.0000
  H   H13       1.0  0.2611037264904538  0.6972715408618343  0.0687421992005  1.0000
  H   H14       1.0  0.7388871695544594  0.3026862160182518  0.9312720613297006  1.0000
  H   H15       1.0  0.37113509226983865  0.5851064171460225  0.935233785774557  1.0000
  H   H16       1.0  0.6288572571084571  0.414869109709926  0.06479807104580004  1.0000
  H   H17       1.0  0.1348956368351111  0.391590003812155  0.048725695899577204  1.0000
  H   H18       1.0  0.8651010235605837  0.6083793305917098  0.9512691350383665  1.0000
  H   H19       1.0  0.21577757773217593  0.48918816661341685  0.30319690925932014  1.0000
  H   H20       1.0  0.7841998578775603  0.5108134811568164  0.6967920576558911  1.0000
  H   H21       1.0  0.9703347378610587  0.8688484736630784  0.12276212335575569  1.0000
  H   H22       1.0  0.029667333871117297  0.1311856278278896  0.8772332292217443  1.0000
  H   H23       1.0  0.8007158710315423  0.8758089800441979  0.9387366973077254  1.0000
  H   H24       1.0  0.19928760616968333  0.12423121663075423  0.061257827836243534  1.0000
  H   H25       1.0  0.3540999385006742  0.1312384915338995  0.18808683234423285  1.0000
  H   H26       1.0  0.6458872252003759  0.8687652214042957  0.8119192149875759  1.0000
  H   H27       1.0  0.5470469377861845  0.1209903277574469  0.3568537799705638  1.0000
  H   H28       1.0  0.45292968994090177  0.8790135524286669  0.6431623663634343  1.0000
  C   C1        1.0  0.26278712396871373  0.4466480544929681  0.668978965177118  1.0000
  C   C2        1.0  0.7372163767272042  0.5533591526163093  0.33101392632929116  1.0000
  C   C3        1.0  0.4284762729268224  0.3466072794528969  0.6119365674043565  1.0000
  C   C4        1.0  0.5715390807398039  0.6533997395024684  0.3880449627245853  1.0000
  C   C5        1.0  0.5665903381263748  0.2902188631661744  0.6781736240113291  1.0000
  C   C6        1.0  0.43342475671104796  0.7097823442497246  0.3218156044956899  1.0000
  C   C7        1.0  0.7281820964085595  0.18647138443527211  0.6214293959863257  1.0000
  C   C8        1.0  0.2718202271399547  0.8135214687659412  0.3785715457378703  1.0000
  C   C9        1.0  0.24405252449108875  0.6160268196957618  0.006260192325008454  1.0000
  C   C10       1.0  0.7559595723631887  0.3839695941376818  0.9937328887851822  1.0000
  C   C11       1.0  0.17971210509836064  0.46767806892819414  0.10114921091727783  1.0000
  C   C12       1.0  0.8202891464631961  0.5322994542199312  0.8988661515501523  1.0000
  C   C13       1.0  0.17264535228685668  0.4191831691393944  0.24429120769387694  1.0000
  C   C14       1.0  0.8273350022901554  0.5808014381202468  0.7557292672094463  1.0000
  C   C15       1.0  0.11152107949500588  0.26671022131015576  0.33156213912350563  1.0000
  C   C16       1.0  0.8884819628198739  0.7332781943475766  0.6684500513927888  1.0000
  C   C17       1.0  0.8329206445535957  0.9264607851681672  0.131678161863185  1.0000
  C   C18       1.0  0.16707140096269055  0.0735717841182506  0.8683143436073878  1.0000
  C   C19       1.0  0.7352120342438367  0.9287966297626369  0.030885611764929998  1.0000
  C   C20       1.0  0.2647848379916624  0.0712444953120368  0.9691047880700625  1.0000
  C   C21       1.0  0.5569665406365375  0.0006439639165378991  0.04948465192548914  1.0000
  C   C22       1.0  0.4430305353321414  0.9993826721376351  0.9505094857570814  1.0000
  C   C23       1.0  0.49016444766338924  0.0731177141669264  0.16760012976884298  1.0000
  C   C24       1.0  0.5098276492299333  0.9268943642154568  0.8323987286024989  1.0000
  C   C25       1.0  0.596347040950498  0.06752429134638051  0.26304572383887864  1.0000
  C   C26       1.0  0.40363133164682785  0.932484289121746  0.7369647822722957  1.0000
  N   N1        1.0  0.7653134331485347  0.9940920279135242  0.24630916798669494  1.0000
  N   N2        1.0  0.2346767318295164  0.005922746972352403  0.7536975283435938  1.0000
  O   O1        1.0  0.8526016598352442  0.1497490368777505  0.6927833936343079  1.0000
  O   O2        1.0  0.14738935848340154  0.8502351747210852  0.3072208822769655  1.0000
  O   O3        1.0  0.7340103166017825  0.13854073485771323  0.5073019647014689  1.0000
  O   O4        1.0  0.2659842002451355  0.861432462538737  0.4926994169948601  1.0000
  O   O5        1.0  0.14427053302485154  0.21871764452220083  0.4589883677796039  1.0000
  O   O6        1.0  0.8557349575510926  0.7812789119100075  0.5410120418719302  1.0000
  O   O7        1.0  0.03498469687405498  0.19225360532325203  0.2737947428159942  1.0000
  O   O8        1.0  0.9650187428067484  0.8077254612589327  0.7262279910150798  1.0000
