data_image0
_chemical_formula_structural       Ca4Cu2H12C12O24
_chemical_formula_sum              "Ca4 Cu2 H12 C12 O24"
_cell_length_a       6.370969776884208
_cell_length_b       8.74042541782565
_cell_length_c       12.11964643206763
_cell_angle_alpha    111.14497600708516
_cell_angle_beta     100.12531642389115
_cell_angle_gamma    90.00910790856587

_space_group_name_H-M_alt    "P 1"
_space_group_IT_number       1

loop_
  _space_group_symop_operation_xyz
  'x, y, z'

loop_
  _atom_site_type_symbol
  _atom_site_label
  _atom_site_symmetry_multiplicity
  _atom_site_fract_x
  _atom_site_fract_y
  _atom_site_fract_z
  _atom_site_occupancy
  Ca  Ca1       1.0  0.4330456277496779  0.5244350176958789  0.3157991885562907  1.0000
  Ca  Ca2       1.0  0.06682818082666131  0.20855044261054456  0.6841895416008866  1.0000
  Ca  Ca3       1.0  0.5669555478337858  0.47556067827724763  0.6841985339199327  1.0000
  Ca  Ca4       1.0  0.9331751702684629  0.7914514034239489  0.3158091774068269  1.0000
  Cu  Cu1       1.0  0.24997341525253347  0.0927110230019395  0.999923688223113  1.0000
  Cu  Cu2       1.0  0.7500284230880183  0.9072920360337592  7.850616246702517e-05  1.0000
  H   H1        1.0  0.11744547103717916  0.860225186223204  0.7598733245592798  1.0000
  H   H2        1.0  0.3827936698371772  0.10022656754563293  0.240012852469853  1.0000
  H   H3        1.0  0.8825540190571743  0.13977045863224194  0.24013330078559392  1.0000
  H   H4        1.0  0.6172143491040318  0.8997740396581265  0.759985984493902  1.0000
  H   H5        1.0  0.9304506243690015  0.35190752305219053  0.031244632344133542  1.0000
  H   H6        1.0  0.5695795782494245  0.320164916371887  0.96837006593978  1.0000
  H   H7        1.0  0.06955054291112361  0.6480881679953683  0.9687539131732948  1.0000
  H   H8        1.0  0.4304094985684373  0.6798381622471796  0.031631746810546806  1.0000
  H   H9        1.0  0.01568873748631462  0.6833877141805119  0.5652889153203944  1.0000
  H   H10       1.0  0.4841928221282005  0.1180647387422908  0.43449318011877114  1.0000
  H   H11       1.0  0.9843133383799341  0.3166178090605243  0.4347131236192325  1.0000
  H   H12       1.0  0.5158058777275232  0.8819383559740789  0.565503774850491  1.0000
  C   C1        1.0  0.2605808097305768  0.8066830490199025  0.7931828469203168  1.0000
  C   C2        1.0  0.23939164813692324  0.0135743476857755  0.2067299693176068  1.0000
  C   C3        1.0  0.7394236106455594  0.19331383598686366  0.20682127181104454  1.0000
  C   C4        1.0  0.760610575553855  0.9864324248974443  0.7932691112548511  1.0000
  C   C5        1.0  0.06218577045474662  0.4031508177838318  0.10985862112986673  1.0000
  C   C6        1.0  0.43781483756475836  0.29278784363248894  0.8897727292517601  1.0000
  C   C7        1.0  0.9378140485019915  0.596847345458258  0.8901387953158493  1.0000
  C   C8        1.0  0.5621772315489155  0.7072127892818758  0.11022542490762541  1.0000
  C   C9        1.0  0.8422645720248811  0.6548883053272122  0.5289546630762204  1.0000
  C   C10       1.0  0.6575840835982875  0.12582005018149536  0.4709052332088035  1.0000
  C   C11       1.0  0.15773841032669372  0.3451098370109165  0.4710455236622124  1.0000
  C   C12       1.0  0.3424142558172179  0.8741793457640911  0.5290923664499873  1.0000
  O   O1        1.0  0.3229562064046689  0.6791936076200145  0.7229676958104747  1.0000
  O   O2        1.0  0.17699276805536365  0.9563154578107387  0.276933358912018  1.0000
  O   O3        1.0  0.6770483850704923  0.32080570218750637  0.2770428518045307  1.0000
  O   O4        1.0  0.8230047628793359  0.043692538826491  0.7230680728279849  1.0000
  O   O5        1.0  0.3535209227545267  0.8827492683311109  0.9035702519831332  1.0000
  O   O6        1.0  0.14622878241084444  0.9794828965722858  0.09642585488916215  1.0000
  O   O7        1.0  0.6464872506790231  0.11725375382226132  0.09643665994666863  1.0000
  O   O8        1.0  0.853772059743207  0.0205263285031663  0.9035753887763818  1.0000
  O   O9        1.0  0.2169936491737161  0.3125085144708564  0.12034912714253213  1.0000
  O   O10       1.0  0.2830582913350953  0.1915567582682556  0.879270865741148  1.0000
  O   O11       1.0  0.7830063740953861  0.6874920932742725  0.8796514260220363  1.0000
  O   O12       1.0  0.7169335402528818  0.8084414104407713  0.12072744386419039  1.0000
  O   O13       1.0  0.06013050537564622  0.5458854246203728  0.18588130853689938  1.0000
  O   O14       1.0  0.4397482361095514  0.359589101649668  0.8138218298913742  1.0000
  O   O15       1.0  0.9398680964755641  0.4541164503072679  0.8141136665523447  1.0000
  O   O16       1.0  0.5602453042420237  0.6404102936356254  0.18617696409614845  1.0000
  O   O17       1.0  0.7706144407481832  0.6716888722108578  0.4288958217502668  1.0000
  O   O18       1.0  0.7291300452259507  0.24251106883919252  0.571114883915847  1.0000
  O   O19       1.0  0.2293882226798446  0.3283055959843467  0.5711008944716909  1.0000
  O   O20       1.0  0.27086780253147685  0.7574833888445696  0.42888467271723846  1.0000
  O   O21       1.0  0.7289348797078006  0.6073240306597187  0.587152724469192  1.0000
  O   O22       1.0  0.7709871577496159  0.020158600752708405  0.4126873605241954  1.0000
  O   O23       1.0  0.27106935296264123  0.3926704196951506  0.4128466114609212  1.0000
  O   O24       1.0  0.22900788705320713  0.979839576605805  0.5873087811266586  1.0000
