data_image0
_chemical_formula_structural       Cd2H36C44N8O8
_chemical_formula_sum              "Cd2 H36 C44 N8 O8"
_cell_length_a       8.09184968945
_cell_length_b       11.414649626869409
_cell_length_c       12.959344275174647
_cell_angle_alpha    116.10585883326793
_cell_angle_beta     108.2270569102398
_cell_angle_gamma    90.00997415958018

_space_group_name_H-M_alt    "P 1"
_space_group_IT_number       1

loop_
  _space_group_symop_operation_xyz
  'x, y, z'

loop_
  _atom_site_type_symbol
  _atom_site_label
  _atom_site_symmetry_multiplicity
  _atom_site_fract_x
  _atom_site_fract_y
  _atom_site_fract_z
  _atom_site_occupancy
  Cd  Cd1       1.0  0.00010186748028929573  0.08294051820035968  0.9998697318213983  1.0000
  Cd  Cd2       1.0  0.49990613040773013  0.583699862589576  0.0001874801280408083  1.0000
  H   H1        1.0  0.5925535599635625  0.8971673968162008  0.15536844788532994  1.0000
  H   H2        1.0  0.4072144902654885  0.7412915263463233  0.8448540611142547  1.0000
  H   H3        1.0  0.06234203628591217  0.3965292663288834  0.15486572408792648  1.0000
  H   H4        1.0  0.9375955037262216  0.24169964709595598  0.8448949084424624  1.0000
  H   H5        1.0  0.6003107165396743  0.3021104019259795  0.1992862250607388  1.0000
  H   H6        1.0  0.39950186938650495  0.1017273817105462  0.8006018869616582  1.0000
  H   H7        1.0  0.09923944632700447  0.8029537264060734  0.1996124145602706  1.0000
  H   H8        1.0  0.9006527791477056  0.6028255868441691  0.8004378368438835  1.0000
  H   H9        1.0  0.4701762822093016  0.4278393353350722  0.1984840806460539  1.0000
  H   H10       1.0  0.5291208897828525  0.2286668621395123  0.8015477305809425  1.0000
  H   H11       1.0  0.22923888678521817  0.9285685028343308  0.1990989990020111  1.0000
  H   H12       1.0  0.7707760926007694  0.7290323467004782  0.8009095302200108  1.0000
  H   H13       1.0  0.6785020147881157  0.2569717131602047  0.3863868059285024  1.0000
  H   H14       1.0  0.3213077105254243  0.8700568223808176  0.6134147157504302  1.0000
  H   H15       1.0  0.20786584867398258  0.7567905195913978  0.3862589651971148  1.0000
  H   H16       1.0  0.7921437471767163  0.37062688183905823  0.6134695778110028  1.0000
  H   H17       1.0  0.4645257516765967  0.6019465733439303  0.38554422840049074  1.0000
  H   H18       1.0  0.535322522163071  0.2162495118049961  0.6146429042842242  1.0000
  H   H19       1.0  0.4215517156930773  0.1024722580690778  0.38660219021157616  1.0000
  H   H20       1.0  0.5783082285279164  0.7159188174996415  0.613545517787081  1.0000
  H   H21       1.0  0.6460767267032211  0.9255231291149998  0.981542699065372  1.0000
  H   H22       1.0  0.3536710176565379  0.943586941258779  0.01842443632241934  1.0000
  H   H23       1.0  0.8347333856345289  0.4252237578093556  0.9811968990877277  1.0000
  H   H24       1.0  0.1646798777080818  0.44416448740797415  0.018677799532731885  1.0000
  H   H25       1.0  0.09264273382373742  0.1355050926763326  0.2983318503407233  1.0000
  H   H26       1.0  0.9071924080503281  0.8366042522341673  0.7015111580538261  1.0000
  H   H27       1.0  0.7063424541918907  0.6354455119711773  0.29824271767667204  1.0000
  H   H28       1.0  0.29487781350719194  0.3371161527929729  0.7022110462581566  1.0000
  H   H29       1.0  0.6890044860661961  0.8354222799012945  0.3034312856727438  1.0000
  H   H30       1.0  0.3108131776969856  0.5315626418974587  0.6967288666122541  1.0000
  H   H31       1.0  0.11473442087588381  0.3351478511526196  0.3032305909707275  1.0000
  H   H32       1.0  0.8860939306700147  0.0318718995633986  0.6969401115573743  1.0000
  H   H33       1.0  0.7037582492015488  0.8429324207366162  0.5001625231241248  1.0000
  H   H34       1.0  0.29669625562269886  0.3426504219452867  0.5000824389528091  1.0000
  H   H35       1.0  0.030745794426906104  0.21190500189849362  0.5002773927065931  1.0000
  H   H36       1.0  0.9695726473588594  0.7114660116264631  0.4998283919538905  1.0000
  C   C1        1.0  0.332502993023013  0.249998215166265  0.17054182585501115  1.0000
  C   C2        1.0  0.6674068444725947  0.0789623482386048  0.8292188250056896  1.0000
  C   C3        1.0  0.33799620597343966  0.7504055157889624  0.17097782859185173  1.0000
  C   C4        1.0  0.6615435746649325  0.5790286405619582  0.8288728502166548  1.0000
  C   C5        1.0  0.4977264051207939  0.3540173544494182  0.23143238870344623  1.0000
  C   C6        1.0  0.5019564751604407  0.12187207781255442  0.7685105182849271  1.0000
  C   C7        1.0  0.2341836923969751  0.854669855692208  0.231927089368824  1.0000
  C   C8        1.0  0.7657243122918658  0.6223226512423494  0.7680875257027465  1.0000
  C   C9        1.0  0.5630485487406746  0.4212959216978047  0.3699924990501841  1.0000
  C   C10       1.0  0.43680736902710043  0.050861048434640614  0.6299588233440616  1.0000
  C   C11       1.0  0.307334855804811  0.9215329184562008  0.3704968065551951  1.0000
  C   C12       1.0  0.692620957893837  0.5510381708634924  0.6294901550700445  1.0000
  C   C13       1.0  0.6545393881901802  0.3572095078744013  0.43593042764702256  1.0000
  C   C14       1.0  0.34536284947338214  0.9208313729641944  0.5638920389831981  1.0000
  C   C15       1.0  0.28156331247183897  0.8570538535409186  0.4360804717578688  1.0000
  C   C16       1.0  0.7184185267455092  0.42115913244392533  0.5637373274610411  1.0000
  C   C17       1.0  0.5364101071830304  0.5508507641220957  0.4355561771345008  1.0000
  C   C18       1.0  0.46358027356936304  0.11512005733533928  0.5645793436727968  1.0000
  C   C19       1.0  0.3995965748299355  0.051177394235089886  0.4364270362013372  1.0000
  C   C20       1.0  0.6003184567459813  0.6148997767868566  0.5636936417382046  1.0000
  C   C21       1.0  0.7333956928704097  0.9688640548552031  0.07615656707984185  1.0000
  C   C22       1.0  0.26634581474597496  0.8921697362649466  0.9238042561204549  1.0000
  C   C23       1.0  0.8422625534483288  0.4684784559621916  0.07582124510251016  1.0000
  C   C24       1.0  0.15748995856380077  0.39282452168706067  0.9241264687073424  1.0000
  C   C25       1.0  0.9621420283414821  0.07833602999320989  0.24243790696407788  1.0000
  C   C26       1.0  0.037670607204674404  0.8353445551448573  0.7574829707651246  1.0000
  C   C27       1.0  0.7808334285721515  0.5783568334431806  0.24229104955752234  1.0000
  C   C28       1.0  0.2200713032835182  0.3359626737355086  0.7579829995103892  1.0000
  C   C29       1.0  0.8480280334956021  0.020622721621840902  0.2733905735839032  1.0000
  C   C30       1.0  0.1517697310572004  0.7466543240961485  0.7266754930055369  1.0000
  C   C31       1.0  0.9257126605478235  0.5203847811565223  0.2730854437577719  1.0000
  C   C32       1.0  0.07503059142143802  0.24723576975204506  0.7270048284616948  1.0000
  C   C33       1.0  0.8615582613349703  0.02211060214023061  0.3887068663105495  1.0000
  C   C34       1.0  0.1384298797679406  0.6330162924496747  0.6113909090418587  1.0000
  C   C35       1.0  0.027322963014320592  0.5216386457209907  0.38832837023149114  1.0000
  C   C36       1.0  0.9733237681964299  0.1334163376746602  0.6117719096756246  1.0000
  C   C37       1.0  0.7693388433476828  0.9184886973339417  0.38968262741748544  1.0000
  C   C38       1.0  0.2307558057271137  0.5284812864146105  0.6104224844589794  1.0000
  C   C39       1.0  0.12044807299392353  0.41805718423265864  0.3894143695338101  1.0000
  C   C40       1.0  0.8801352763410649  0.028801503650612407  0.6107413473440316  1.0000
  C   C41       1.0  0.7793004934462785  0.9221272084011928  0.5002011282793575  1.0000
  C   C42       1.0  0.2211066439626137  0.42174528322560423  0.49995955567435857  1.0000
  C   C43       1.0  0.9636927147994784  0.1290319083690505  0.5002589958536277  1.0000
  C   C44       1.0  0.03658805006183735  0.6285841370053403  0.49980578827985767  1.0000
  N   N1        1.0  0.88888143743133  0.04531559326424879  0.1198918826322881  1.0000
  N   N2        1.0  0.11094438936484612  0.924928606908189  0.8799704444123505  1.0000
  N   N3        1.0  0.7310555609828243  0.5453172690241955  0.11974987908563155  1.0000
  N   N4        1.0  0.2691835160508589  0.4256179173660116  0.8804187727692961  1.0000
  N   N5        1.0  0.7049214039881805  0.9519724142182892  0.16606745520837043  1.0000
  N   N6        1.0  0.294791354180937  0.7852997625399708  0.8340271960781037  1.0000
  N   N7        1.0  0.9607784539328819  0.45142334697602843  0.1656462285586358  1.0000
  N   N8        1.0  0.0392648438921341  0.28585817237519956  0.8342416411237747  1.0000
  O   O1        1.0  0.33624768602803107  0.1434475466466907  0.1765779915766004  1.0000
  O   O2        1.0  0.6640744664161603  0.9662929720337631  0.8230105830064857  1.0000
  O   O3        1.0  0.34000426541904716  0.6438768195252464  0.17700069767095525  1.0000
  O   O4        1.0  0.6588768814567773  0.46632493891503657  0.8225250142690469  1.0000
  O   O5        1.0  0.19016440361935594  0.2773619191267116  0.10913926139723876  1.0000
  O   O6        1.0  0.8095556158365724  0.16788885730547778  0.8906334905869855  1.0000
  O   O7        1.0  0.4187725294674181  0.7775692042613045  0.1094027204061377  1.0000
  O   O8        1.0  0.5812122754439245  0.667929011004965  0.8906650643981922  1.0000
