data_image0
_chemical_formula_structural       Cd3H18C22Br4N12O2
_chemical_formula_sum              "Cd3 H18 C22 Br4 N12 O2"
_cell_length_a       7.3622501707016506
_cell_length_b       7.9556763621488376
_cell_length_c       12.870195115255767
_cell_angle_alpha    89.05433038775016
_cell_angle_beta     89.09434626269795
_cell_angle_gamma    69.64884054297393

_space_group_name_H-M_alt    "P 1"
_space_group_IT_number       1

loop_
  _space_group_symop_operation_xyz
  'x, y, z'

loop_
  _atom_site_type_symbol
  _atom_site_label
  _atom_site_symmetry_multiplicity
  _atom_site_fract_x
  _atom_site_fract_y
  _atom_site_fract_z
  _atom_site_occupancy
  Cd  Cd1       1.0  0.5000090286183436  2.944130230298636e-06  2.495801140899719e-06  1.0000
  Cd  Cd2       1.0  0.640078838735434  0.7089455922124016  0.2618467637514357  1.0000
  Cd  Cd3       1.0  0.3599197546537168  0.2910547670633008  0.7381529206500872  1.0000
  H   H1        1.0  0.7416595508896503  0.4277983341640804  0.05994382227876119  1.0000
  H   H2        1.0  0.2583465366005483  0.5721967293797334  0.9400550803894062  1.0000
  H   H3        1.0  0.03376042213529468  0.18559320486419756  0.9817491520247826  1.0000
  H   H4        1.0  0.9662495107466856  0.8144059372881569  0.018250480392517  1.0000
  H   H5        1.0  0.3918195305456534  0.2974577348085247  0.1958809127166958  1.0000
  H   H6        1.0  0.6081825662119441  0.702543986028637  0.8041226292160103  1.0000
  H   H7        1.0  0.03040361976640328  0.7681915946772263  0.6504749030915561  1.0000
  H   H8        1.0  0.969592794802061  0.2318073981558513  0.34952402484584155  1.0000
  H   H9        1.0  0.7892762168568553  0.0063118038790222  0.7563360271915724  1.0000
  H   H10       1.0  0.21071935043448048  0.9936858227105391  0.2436644682669495  1.0000
  H   H11       1.0  0.478990610242782  0.24397731627105654  0.49520147691836053  1.0000
  H   H12       1.0  0.5210033993123986  0.7560243322474988  0.5047990002482408  1.0000
  H   H13       1.0  0.7050883252757173  0.0191027743389611  0.3786734496845625  1.0000
  H   H14       1.0  0.29490653155660596  0.9809002404231107  0.6213254599609214  1.0000
  H   H15       1.0  0.4950192169189619  0.45504545529732343  0.3614666193471407  1.0000
  H   H16       1.0  0.5049720875743658  0.5449561623413216  0.6385338723398418  1.0000
  H   H17       1.0  0.6916155820947619  0.42965941574379213  0.424416548892367  1.0000
  H   H18       1.0  0.3083781204160516  0.5703395411290939  0.5755831706472279  1.0000
  C   C1        1.0  0.8869153842276488  0.39666062263324875  0.09100252152090599  1.0000
  C   C2        1.0  0.11308934373582966  0.6033344203903324  0.9089971654892678  1.0000
  C   C3        1.0  0.04711396905281618  0.265128724769923  0.0475047421660193  1.0000
  C   C4        1.0  0.9528951305436092  0.7348690612994773  0.9524949036087802  1.0000
  C   C5        1.0  0.245454886296443  0.3266046811095648  0.1669329311006393  1.0000
  C   C6        1.0  0.7545496154744382  0.673394384042119  0.8330690616028632  1.0000
  C   C7        1.0  0.08291934710203458  0.4529908835853576  0.2145108082085514  1.0000
  C   C8        1.0  0.9170824635985682  0.5470081608469781  0.785489644851708  1.0000
  C   C9        1.0  0.08964782868153526  0.5446835648211771  0.3108653116431839  1.0000
  C   C10       1.0  0.9103482508593854  0.455312716045107  0.6891359669944491  1.0000
  C   C11       1.0  0.9942035679237263  0.7176587521662227  0.4401723468040402  1.0000
  C   C12       1.0  0.005791801158181882  0.28234291687257235  0.5598273460205618  1.0000
  C   C13       1.0  0.876048007444318  0.8633221262116991  0.5061110158478286  1.0000
  C   C14       1.0  0.12394872816010863  0.13667956842761697  0.4938871155529583  1.0000
  C   C15       1.0  0.9065024895654475  0.8675459965183306  0.6133507664495497  1.0000
  C   C16       1.0  0.09349423904318852  0.13245569304069693  0.386648142033053  1.0000
  C   C17       1.0  0.7738399200231568  0.9994959754613855  0.6725428477510462  1.0000
  C   C18       1.0  0.22615784008044665  0.0005030277313621995  0.3274568500079695  1.0000
  C   C19       1.0  0.600656383888186  0.13445301526770237  0.5273280165965204  1.0000
  C   C20       1.0  0.39934220250517444  0.8655473389277187  0.472672444886811  1.0000
  C   C21       1.0  0.7259723474968423  0.007192983470567095  0.46246003625022064  1.0000
  C   C22       1.0  0.2740248933613785  0.9928073603651766  0.5375396554114928  1.0000
  Br  Br1       1.0  0.7213690914328551  0.006742170424253397  0.16677786469664113  1.0000
  Br  Br2       1.0  0.2786505812310337  0.9932597460520539  0.8332263599353879  1.0000
  Br  Br3       1.0  0.3956954297607211  0.7265587714810163  0.1011126851508948  1.0000
  Br  Br4       1.0  0.6043123717442  0.2734565351888562  0.8988821898273045  1.0000
  N   N1        1.0  0.9055616529402997  0.48903709411212043  0.173318775469113  1.0000
  N   N2        1.0  0.09443985771172696  0.5109592637548274  0.8266801428823242  1.0000
  N   N3        1.0  0.22556963000074157  0.23367065786865734  0.0847419108789609  1.0000
  N   N4        1.0  0.7744348717701396  0.7663284072830265  0.9152600818245418  1.0000
  N   N5        1.0  0.24072300674338717  0.5021425740835282  0.3766441313108757  1.0000
  N   N6        1.0  0.7592725395605697  0.4978550372651894  0.6233586953930795  1.0000
  N   N7        1.0  0.1785662514526365  0.6108940463574939  0.45958691704365146  1.0000
  N   N8        1.0  0.8214264055716142  0.3891075867211029  0.5404135673831475  1.0000
  N   N9        1.0  0.9324249111323082  0.6773830467970826  0.34830226102068446  1.0000
  N   N10       1.0  0.06756962466405274  0.322617266158751  0.6516974451614104  1.0000
  N   N11       1.0  0.617568176579553  0.12630955995005164  0.6312695567301461  1.0000
  N   N12       1.0  0.3824271925023552  0.8736921090887362  0.36873013609445576  1.0000
  O   O1        1.0  0.6317073141167668  0.45104892987387035  0.35338484616391236  1.0000
  O   O2        1.0  0.3682863883940468  0.5489500269990086  0.6466148733756824  1.0000
