data_image0
_chemical_formula_structural       Ni4H56C80N8O18
_chemical_formula_sum              "Ni4 H56 C80 N8 O18"
_cell_length_a       13.708556291211863
_cell_length_b       13.708647189801894
_cell_length_c       18.006691636395022
_cell_angle_alpha    103.10368705477396
_cell_angle_beta     103.10289635074106
_cell_angle_gamma    113.87011522543617

_space_group_name_H-M_alt    "P 1"
_space_group_IT_number       1

loop_
  _space_group_symop_operation_xyz
  'x, y, z'

loop_
  _atom_site_type_symbol
  _atom_site_label
  _atom_site_symmetry_multiplicity
  _atom_site_fract_x
  _atom_site_fract_y
  _atom_site_fract_z
  _atom_site_occupancy
  Ni  Ni1       1.0  0.19490375022640904  0.21082276179242143  0.19814923522409342  1.0000
  Ni  Ni2       1.0  0.003400154970613276  0.9874358404734238  0.1981399387919964  1.0000
  Ni  Ni3       1.0  0.9608079679205732  0.44489744768674927  0.6981488969350097  1.0000
  Ni  Ni4       1.0  0.7374205447222055  0.25338739770784735  0.6981331444378612  1.0000
  H   H1        1.0  0.008957426873983815  0.24973249273628542  0.2412544572954687  1.0000
  H   H2        1.0  0.9911943241850169  0.41481087318877025  0.3161809294027763  1.0000
  H   H3        1.0  0.3478728297985257  0.629800720025024  0.36020685651026707  1.0000
  H   H4        1.0  0.34898883793593444  0.4557818661620274  0.2824874960828084  1.0000
  H   H5        1.0  0.07499349537206261  0.6161042396279939  0.3875717266170469  1.0000
  H   H6        1.0  0.3119131334648203  0.6778707658344842  0.4977504476290235  1.0000
  H   H7        1.0  0.1861848355056211  0.47730261921200423  0.5022645442314726  1.0000
  H   H8        1.0  0.08032911903816149  0.3883706469105591  0.5856576383437186  1.0000
  H   H9        1.0  0.04067925296167382  0.6687047715230962  0.6773248466844279  1.0000
  H   H10       1.0  0.14473706178973345  0.7719590960169997  0.598190235155748  1.0000
  H   H11       1.0  0.3375816434387248  0.06413061118286126  0.053949074252756225  1.0000
  H   H12       1.0  0.3746924480175054  0.9622054746964325  0.9385512402136413  1.0000
  H   H13       1.0  0.22164134925724008  0.7688190670496056  0.8403915499609624  1.0000
  H   H14       1.0  0.00018606103247279995  0.778501835945477  0.9724639625844489  1.0000
  H   H15       1.0  0.2326629045755909  0.9915308359085555  0.24149002670247208  1.0000
  H   H16       1.0  0.3251360874569472  0.9012102861874283  0.31640807465928594  1.0000
  H   H17       1.0  0.01228306898276091  0.7304313532427003  0.36021013208372926  1.0000
  H   H18       1.0  0.9337646712229954  0.8270157906645323  0.2826130840378129  1.0000
  H   H19       1.0  0.31242241001425  0.7711640098452293  0.3875814456514349  1.0000
  H   H20       1.0  0.1858479491723202  0.8196638056895793  0.49779200509208715  1.0000
  H   H21       1.0  0.3159375184626684  0.024732420256946063  0.5022401470595597  1.0000
  H   H22       1.0  0.5051300938587602  0.19715462773987016  0.5855664429207934  1.0000
  H   H23       1.0  0.6368357367663863  0.00870625850905793  0.677099062216314  1.0000
  H   H24       1.0  0.45365210172301584  0.8262322278309071  0.5981086275334988  1.0000
  H   H25       1.0  0.7164534138667591  0.9897644167374227  0.05386187620395332  1.0000
  H   H26       1.0  0.5637690723561877  0.9761827825772542  0.9384989834331422  1.0000
  H   H27       1.0  0.6185911447148558  0.0714689954317439  0.840327614173603  1.0000
  H   H28       1.0  0.9721947218717092  0.19386838239249507  0.9722650198822153  1.0000
  H   H29       1.0  0.9997354076895207  0.2589524143959068  0.7412585971145873  1.0000
  H   H30       1.0  0.1648197381879372  0.2411917914856974  0.8161853327637091  1.0000
  H   H31       1.0  0.3797963149332518  0.5978796951621704  0.8602116000921  1.0000
  H   H32       1.0  0.20576643145179938  0.5989849998054807  0.7824953245611752  1.0000
  H   H33       1.0  0.3661104758033532  0.3250047063151484  0.8875759141472059  1.0000
  H   H34       1.0  0.42788343173211274  0.5619242095756435  0.9977533431389602  1.0000
  H   H35       1.0  0.22732424301276677  0.4362090174459894  0.0022781563390524315  1.0000
  H   H36       1.0  0.13837970935313854  0.330346492580162  0.08566102978679174  1.0000
  H   H37       1.0  0.41870216060578264  0.2906683122533451  0.17731517681134085  1.0000
  H   H38       1.0  0.5219529343065759  0.3947306405172811  0.09818289560934096  1.0000
  H   H39       1.0  0.8141301609792395  0.5875750745545787  0.5539559691944264  1.0000
  H   H40       1.0  0.712214746302003  0.6246958729217198  0.4385594599795866  1.0000
  H   H41       1.0  0.5188343283292269  0.47164701587354324  0.34038804417497204  1.0000
  H   H42       1.0  0.5284931115371236  0.2501839574225074  0.4724531278907165  1.0000
  H   H43       1.0  0.7415303795137547  0.48264754064640414  0.7414821456770397  1.0000
  H   H44       1.0  0.6512233485710227  0.5751364481131419  0.8164063632547426  1.0000
  H   H45       1.0  0.48041424265085214  0.2622809678726059  0.8601955115641432  1.0000
  H   H46       1.0  0.5769902341611868  0.1837488192951966  0.7826018625152144  1.0000
  H   H47       1.0  0.5211684331254745  0.5624284906473563  0.8875782662961171  1.0000
  H   H48       1.0  0.5696732257732221  0.43585687700463205  0.9977913601324673  1.0000
  H   H49       1.0  0.774741931810617  0.5659414682074909  0.002233789454869995  1.0000
  H   H50       1.0  0.9471657397695168  0.7551340217628848  0.08557355093484637  1.0000
  H   H51       1.0  0.7587194225651999  0.8868378620988864  0.17711995436600608  1.0000
  H   H52       1.0  0.5762367389293035  0.7036545232741817  0.0981190360705427  1.0000
  H   H53       1.0  0.7397623930707911  0.9664404161077442  0.5538524736262574  1.0000
  H   H54       1.0  0.7261952394633014  0.8137748146355648  0.4384836063180231  1.0000
  H   H55       1.0  0.8214760893687585  0.8686043217683307  0.3403148385546616  1.0000
  H   H56       1.0  0.9438579322779506  0.22219952627168763  0.4722628908080254  1.0000
  C   C1        1.0  0.08062913249761296  0.33590394277338476  0.2664270118252361  1.0000
  C   C2        1.0  0.07227861481646874  0.42891014480818507  0.3092175236304016  1.0000
  C   C3        1.0  0.16790581398313983  0.5376052637386266  0.3445617405695529  1.0000
  C   C4        1.0  0.26957850874760686  0.5479635340970007  0.3342329339659074  1.0000
  C   C5        1.0  0.27151743781167426  0.4518936233334543  0.29070436661817917  1.0000
  C   C6        1.0  0.16399257168249903  0.6368484557811626  0.3962481492230907  1.0000
  C   C7        1.0  0.23359932096739305  0.6853564293376165  0.4905642686330722  1.0000
  C   C8        1.0  0.174731398808639  0.6331814097872409  0.542811915446805  1.0000
  C   C9        1.0  0.1564299910438436  0.5240232438554314  0.5405315887411746  1.0000
  C   C10       1.0  0.09792449002613778  0.4736921014063641  0.5867902098534756  1.0000
  C   C11       1.0  0.0745432844267952  0.6305018870707784  0.6372609146940674  1.0000
  C   C12       1.0  0.13265253981743547  0.6866767993154284  0.5928240590945606  1.0000
  C   C13       1.0  0.16746865708906716  0.9279897538679548  0.02100959189306204  1.0000
  C   C14       1.0  0.2727372337360024  0.9793512350439001  0.010789423741584927  1.0000
  C   C15       1.0  0.29261887093002775  0.9221080693025101  0.9462849457116108  1.0000
  C   C16       1.0  0.2075508717080369  0.8138740144755944  0.8915202801671996  1.0000
  C   C17       1.0  0.10209409393264937  0.7615691886644315  0.901116156363898  1.0000
  C   C18       1.0  0.08285098820955761  0.8192672051648346  0.9661124195583569  1.0000
  C   C19       1.0  0.14624037348688296  0.9910550238813725  0.08998847111725188  1.0000
  C   C20       1.0  0.007991581882713162  0.6439176389474356  0.8422475590333462  1.0000
  C   C21       1.0  0.18607729051191071  0.9305665872560096  0.2666209530566804  1.0000
  C   C22       1.0  0.23709978741003115  0.8802422199520946  0.30939458169153516  1.0000
  C   C23       1.0  0.17664767966510206  0.8068278054396599  0.3446287699465884  1.0000
  C   C24       1.0  0.06467126517583921  0.7862530957603724  0.33425509101516576  1.0000
  C   C25       1.0  0.01939680241645905  0.8389762915316155  0.29078565154948427  1.0000
  C   C26       1.0  0.2321262267869741  0.7591336406510223  0.3962712416314957  1.0000
  C   C27       1.0  0.25696082792721603  0.8049972026293374  0.49058359912300636  1.0000
  C   C28       1.0  0.36810655836299594  0.9094787877768838  0.5427627669930075  1.0000
  C   C29       1.0  0.38405616272209664  0.016331662506004978  0.5404383964542561  1.0000
  C   C30       1.0  0.48879617466145947  0.11298171964242719  0.586667164603199  1.0000
  C   C31       1.0  0.5628350008587263  0.006801221982812297  0.637114306854521  1.0000
  C   C32       1.0  0.4602940920538218  0.9061199982290091  0.5927513035985755  1.0000
  C   C33       1.0  0.8535405414278614  0.09297363489207558  0.020878324852482553  1.0000
  C   C34       1.0  0.7380808489911106  0.03136738287630445  0.010702525300025944  1.0000
  C   C35       1.0  0.6535745812282558  0.02400433155524704  0.9462006520589483  1.0000
  C   C36       1.0  0.6838164980506749  0.07749765916950245  0.8914346455639618  1.0000
  C   C37       1.0  0.7988780305590667  0.1393948276234342  0.9009845891813839  1.0000
  C   C38       1.0  0.8831820107060226  0.14673004846896745  0.9659483018241489  1.0000
  C   C39       1.0  0.9437582727576201  0.09892988289371378  0.08988157767597472  1.0000
  C   C40       1.0  0.8341104809036679  0.19821218780042935  0.8421151572264804  1.0000
  C   C41       1.0  0.08590469802919655  0.3306278711760343  0.7664317904287898  1.0000
  C   C42       1.0  0.1789137725355021  0.3222776416653447  0.80921768063331  1.0000
  C   C43       1.0  0.28760491281248335  0.4179065254554218  0.8445668364569912  1.0000
  C   C44       1.0  0.29796196955156534  0.5195832066179663  0.8342400979072125  1.0000
  C   C45       1.0  0.20188465963426705  0.5215139211326305  0.7907057652929907  1.0000
  C   C46       1.0  0.3868586086856355  0.41400542387180667  0.8962526972727006  1.0000
  C   C47       1.0  0.4353677473568426  0.483610998027679  0.9905697424216484  1.0000
  C   C48       1.0  0.383187756479586  0.4247408313434988  0.04281442010477585  1.0000
  C   C49       1.0  0.2740385132550003  0.4064468003405679  0.040537573694599933  1.0000
  C   C50       1.0  0.2236986443802707  0.3479351406090813  0.08678994113735433  1.0000
  C   C51       1.0  0.38050437149074423  0.3245394874109381  0.13725321172611163  1.0000
  C   C52       1.0  0.43667962519155884  0.38265223575084656  0.09281788760388576  1.0000
  C   C53       1.0  0.6779823497946112  0.41745972807000714  0.521006181934041  1.0000
  C   C54       1.0  0.7293559955524956  0.5227347713230516  0.5107956738141298  1.0000
  C   C55       1.0  0.6721171711657307  0.5426162069336514  0.4462887394228333  1.0000
  C   C56       1.0  0.5638798574132694  0.45755845723745386  0.39152217992623417  1.0000
  C   C57       1.0  0.5115705253164011  0.35209462520744245  0.40111161805574375  1.0000
  C   C58       1.0  0.5692659649632718  0.3328513171525885  0.4661049871162959  1.0000
  C   C59       1.0  0.7410546121565675  0.39623384077504664  0.589983941010786  1.0000
  C   C60       1.0  0.39392727234255187  0.2580109462466353  0.3422406910073832  1.0000
  C   C61       1.0  0.6805603850723116  0.4360730908781606  0.7666159264252599  1.0000
  C   C62       1.0  0.6302403532021048  0.4870902952417141  0.809387495241758  1.0000
  C   C63       1.0  0.5568309063777193  0.4266539102208001  0.8446254592329652  1.0000
  C   C64       1.0  0.5362326360677941  0.3146636905686153  0.834242063555621  1.0000
  C   C65       1.0  0.5889496111358385  0.2693829187573799  0.7907776002473171  1.0000
  C   C66       1.0  0.5091426549887288  0.4821328593271872  0.8962759706734998  1.0000
  C   C67       1.0  0.5550053764761175  0.5069708520828443  0.9905866915838786  1.0000
  C   C68       1.0  0.6594885280220028  0.6181118190837013  0.042761801594309645  1.0000
  C   C69       1.0  0.7663406260809184  0.6340609282282301  0.040437367377698895  1.0000
  C   C70       1.0  0.8629969870722434  0.7388047886681759  0.0866737132573905  1.0000
  C   C71       1.0  0.7568165502070202  0.8128367731170556  0.1371284342355709  1.0000
  C   C72       1.0  0.6561301184225883  0.7102960833478845  0.09276266594707756  1.0000
  C   C73       1.0  0.8429582390289242  0.10353347056047835  0.5208702299674854  1.0000
  C   C74       1.0  0.7813584930096555  0.9880717404821698  0.5106876614255428  1.0000
  C   C75       1.0  0.7740122029716334  0.9035807388753483  0.4461898439346897  1.0000
  C   C76       1.0  0.8275034610196955  0.9338294310485581  0.39142245841050305  1.0000
  C   C77       1.0  0.8893862185253385  0.04889107162097885  0.4009775889928378  1.0000
  C   C78       1.0  0.896721355954  0.13318760375703687  0.4659470808646589  1.0000
  C   C79       1.0  0.8489260253128919  0.19375388668120763  0.5898740608020604  1.0000
  C   C80       1.0  0.9482172414941914  0.08412439530670938  0.34211528964211635  1.0000
  N   N1        1.0  0.17884895928288108  0.34768370267078563  0.25740218835438367  1.0000
  N   N2        1.0  0.057521349791514374  0.5259149449453561  0.6343043379263094  1.0000
  N   N3        1.0  0.07882832256316874  0.9098453196179931  0.2575196297019033  1.0000
  N   N4        1.0  0.5768074965449372  0.10841938655183014  0.6342059063318571  1.0000
  N   N5        1.0  0.09767355138513527  0.42885163538885257  0.7574013510555773  1.0000
  N   N6        1.0  0.27592782853654546  0.3075277844369637  0.13429716166929503  1.0000
  N   N7        1.0  0.6598273312527783  0.3288156859650401  0.7575182970682662  1.0000
  N   N8        1.0  0.8584314238351568  0.8268129989836197  0.1342179431473341  1.0000
  O   O1        1.0  0.22563858005042192  0.09243651733876851  0.13375280653385602  1.0000
  O   O2        1.0  0.0519717072199342  0.9391296731673151  0.09961911592814231  1.0000
  O   O3        1.0  0.9166149952750333  0.5999943051008716  0.8539717451416282  1.0000
  O   O4        1.0  0.036157191188380136  0.6021342738395604  0.783380759151683  1.0000
  O   O5        1.0  0.9081514182541143  0.04134149603350334  0.1336522667502678  1.0000
  O   O6        1.0  0.04765515924624001  0.16055580660414392  0.09953603853138299  1.0000
  O   O7        1.0  0.9372636916916122  0.253926761833327  0.8538870950424525  1.0000
  O   O8        1.0  0.7471105061762985  0.18124289550912212  0.7832986324288244  1.0000
  O   O9        1.0  0.8424319554005708  0.47562748316198633  0.6337548119370879  1.0000
  O   O10       1.0  0.689130809287015  0.30195959811517553  0.5996104011754753  1.0000
  O   O11       1.0  0.34998188415983833  0.16659689956429707  0.3539617320861481  1.0000
  O   O12       1.0  0.3521428329863739  0.2861631106883352  0.28337814117078614  1.0000
  O   O13       1.0  0.7913442454821792  0.15814069455730373  0.6336490653809222  1.0000
  O   O14       1.0  0.910554625027139  0.2976504332393831  0.5995329231290683  1.0000
  O   O15       1.0  0.003931385614762902  0.18728630259492718  0.3538878972502104  1.0000
  O   O16       1.0  0.9312645064852064  0.9971342400413548  0.2833005510877913  1.0000
  O   O17       1.0  0.12487286428290645  0.12488884743378045  0.24961701141013043  1.0000
  O   O18       1.0  0.8748841420263745  0.3748684333314573  0.7496142355667105  1.0000
