data_image0
_chemical_formula_structural       Zn6H80C120N8O24
_chemical_formula_sum              "Zn6 H80 C120 N8 O24"
_cell_length_a       10.569921386000908
_cell_length_b       12.444899801104397
_cell_length_c       25.45994383095902
_cell_angle_alpha    93.74644798654894
_cell_angle_beta     89.9999665709201
_cell_angle_gamma    90.00003527429716

_space_group_name_H-M_alt    "P 1"
_space_group_IT_number       1

loop_
  _space_group_symop_operation_xyz
  'x, y, z'

loop_
  _atom_site_type_symbol
  _atom_site_label
  _atom_site_symmetry_multiplicity
  _atom_site_fract_x
  _atom_site_fract_y
  _atom_site_fract_z
  _atom_site_occupancy
  Zn  Zn1       1.0  0.4999987898685204  0.5000018647615363  0.5000001688316758  1.0000
  Zn  Zn2       1.0  0.5000027726794369  9.363699860006894e-07  0.9999999653008516  1.0000
  Zn  Zn3       1.0  0.7676885592196498  0.579811472680987  0.5602328141808997  1.0000
  Zn  Zn4       1.0  0.7676883951932112  0.9201916571647428  0.939766060035737  1.0000
  Zn  Zn5       1.0  0.232307128356112  0.4201889634020546  0.4397654831986983  1.0000
  Zn  Zn6       1.0  0.232311076705514  0.07981125264475249  0.06023386585022909  1.0000
  H   H1        1.0  0.6246727904026983  0.9893200435510817  0.16428907471669163  1.0000
  H   H2        1.0  0.6246781770018686  0.5106874605249132  0.3357157645515372  1.0000
  H   H3        1.0  0.37533330406309773  0.0106885313424527  0.8357117677328603  1.0000
  H   H4        1.0  0.37533454002301875  0.489307543812174  0.6642879070652085  1.0000
  H   H5        1.0  0.35730273663696005  0.9623444989745735  0.20939654941916072  1.0000
  H   H6        1.0  0.3573101004081635  0.5376562924492133  0.2906046594603353  1.0000
  H   H7        1.0  0.6427024117473933  0.0376559225277049  0.7906013547842222  1.0000
  H   H8        1.0  0.6427026166185  0.462345987231842  0.7093999659246748  1.0000
  H   H9        1.0  0.341659199857844  0.8649770926681553  0.2866424830483609  1.0000
  H   H10       1.0  0.34166201372810423  0.6350261642677635  0.2133603576736434  1.0000
  H   H11       1.0  0.6583440563669569  0.13502895016620187  0.713355158193913  1.0000
  H   H12       1.0  0.6583469189714392  0.36496976186510477  0.786646477947123  1.0000
  H   H13       1.0  0.43500417947736025  0.7782561956633742  0.3623622911188562  1.0000
  H   H14       1.0  0.43500243392654875  0.721742250321675  0.1376396317398587  1.0000
  H   H15       1.0  0.5649990767447831  0.22174343529082555  0.6376359876579443  1.0000
  H   H16       1.0  0.5649951458036568  0.278252007213581  0.86236559397733  1.0000
  H   H17       1.0  0.8067515730367704  0.8696551226879802  0.3116513525796378  1.0000
  H   H18       1.0  0.8067525284793857  0.6303417186041357  0.1883453425393853  1.0000
  H   H19       1.0  0.1932535753461337  0.13033636945895208  0.6883443811258941  1.0000
  H   H20       1.0  0.19325356598481847  0.3696628452184854  0.8116558000754567  1.0000
  H   H21       1.0  0.7133640195020161  0.9567855477446301  0.23649726536116586  1.0000
  H   H22       1.0  0.7133695349195434  0.5432137474164873  0.2635018645250824  1.0000
  H   H23       1.0  0.2866411288821951  0.04320997005645209  0.7634985613542896  1.0000
  H   H24       1.0  0.2866460203519877  0.4567949587287146  0.7365025165003019  1.0000
  H   H25       1.0  0.5351051328966037  0.6936465512972063  0.4247111293559129  1.0000
  H   H26       1.0  0.5351054293114359  0.8063550948438518  0.0752888806926464  1.0000
  H   H27       1.0  0.46489244684298103  0.3063578666907532  0.5752860815077909  1.0000
  H   H28       1.0  0.46489404258481676  0.1936446673585336  0.9247129366614005  1.0000
  H   H29       1.0  0.7943455265565544  0.7690727101351128  0.38511107657557625  1.0000
  H   H30       1.0  0.7943438208634743  0.730924168393436  0.114886800714352  1.0000
  H   H31       1.0  0.20565772966623536  0.23092443251037756  0.6148851805192592  1.0000
  H   H32       1.0  0.20565754319370907  0.26907153898881114  0.8851141372791602  1.0000
  H   H33       1.0  0.6960786586725405  0.18343073646159513  0.5076244531175576  1.0000
  H   H34       1.0  0.6960868609773597  0.3165728261650145  0.9923772865896723  1.0000
  H   H35       1.0  0.3039141906586877  0.8165714411315431  0.4923774200431481  1.0000
  H   H36       1.0  0.3039135570027227  0.6834316939063851  0.007622676500162097  1.0000
  H   H37       1.0  0.9643342168666748  0.2744221123756034  0.5289926821781137  1.0000
  H   H38       1.0  0.9643386042962803  0.225578283048982  0.971006566877378  1.0000
  H   H39       1.0  0.035658632466521595  0.7255807828489083  0.4710068505333496  1.0000
  H   H40       1.0  0.035660867598835494  0.7744215374863826  0.0289968231774864  1.0000
  H   H41       1.0  0.13250868800562898  0.15582408606556436  0.5314463662130606  1.0000
  H   H42       1.0  0.1325159982432567  0.34417998584348897  0.9685555122512497  1.0000
  H   H43       1.0  0.8674860534889746  0.8441780040286132  0.4685531478962233  1.0000
  H   H44       1.0  0.8674863118965561  0.6558221771688931  0.0314459677332408  1.0000
  H   H45       1.0  0.7700744422480952  0.024879432517039394  0.48363577581270784  1.0000
  H   H46       1.0  0.7700758869288719  0.47512181262992204  0.016361904483865403  1.0000
  H   H47       1.0  0.22992029924677126  0.9751234627079767  0.5163637568985564  1.0000
  H   H48       1.0  0.22992453105037206  0.5248819314771396  0.9836388263543868  1.0000
  H   H49       1.0  0.5591894363433453  0.7768209008630218  0.5664439515337989  1.0000
  H   H50       1.0  0.5591853627047881  0.7231821049460547  0.9335545739607554  1.0000
  H   H51       1.0  0.44080435906930393  0.22318042784981168  0.43355672349920843  1.0000
  H   H52       1.0  0.44081032487235206  0.27681989764892007  0.0664425810971991  1.0000
  H   H53       1.0  0.561756198271361  0.9746339512824348  0.5974212646320467  1.0000
  H   H54       1.0  0.5617491971175355  0.5253683090754392  0.9025788144144117  1.0000
  H   H55       1.0  0.438242327544323  0.025366616050533294  0.40258057132408714  1.0000
  H   H56       1.0  0.4382464904578923  0.47463378101898707  0.0974206996947657  1.0000
  H   H57       1.0  0.7645331489398332  0.056534484075498895  0.630864391317786  1.0000
  H   H58       1.0  0.764527428595784  0.4434634639838392  0.8691368104070989  1.0000
  H   H59       1.0  0.23546537687562352  0.9434644584125633  0.3691370142591666  1.0000
  H   H60       1.0  0.23547015113803127  0.5565338828255617  0.1308649511411915  1.0000
  H   H61       1.0  0.2825922357461792  0.7268184315416305  0.6286688440121537  1.0000
  H   H62       1.0  0.28258734202303504  0.773178017186339  0.871330377988464  1.0000
  H   H63       1.0  0.717401559666335  0.27317799347  0.371329753532919  1.0000
  H   H64       1.0  0.7174092916302611  0.22681849532549592  0.1286705786075402  1.0000
  H   H65       1.0  0.25390797536064  0.540038054626855  0.5906801066086871  1.0000
  H   H66       1.0  0.2539069373489013  0.9599576322463576  0.9093206756059332  1.0000
  H   H67       1.0  0.7460877122124144  0.4599576090041707  0.4093196518598177  1.0000
  H   H68       1.0  0.746092534547401  0.040040490527886184  0.09068031819373351  1.0000
  H   H69       1.0  0.0360690789119431  0.47663057804250986  0.562686384658484  1.0000
  H   H70       1.0  0.0360695937561815  0.023367748989649304  0.9373138114530875  1.0000
  H   H71       1.0  0.9639247165030437  0.5233689945762308  0.437310321418515  1.0000
  H   H72       1.0  0.9639308242198369  0.9766296124037339  0.0626883432701035  1.0000
  H   H73       1.0  0.9972680624451654  0.03079363326648379  0.6523463657547524  1.0000
  H   H74       1.0  0.9972586070715863  0.4692105571822366  0.8476462853120665  1.0000
  H   H75       1.0  0.0027323555325650993  0.9692036406274481  0.3476534299172159  1.0000
  H   H76       1.0  0.0027361344244454  0.5307914599957256  0.1523512629211936  1.0000
  H   H77       1.0  0.18415446273260727  0.9108134200045938  0.652484847714291  1.0000
  H   H78       1.0  0.18414474819948617  0.5891899315594528  0.8475066991878819  1.0000
  H   H79       1.0  0.8158450091663384  0.08918211237823928  0.3475113721769745  1.0000
  H   H80       1.0  0.8158490472143354  0.4108105191063344  0.1524919913671212  1.0000
  C   C1        1.0  0.45561068892082807  0.028829943628743093  0.1203992201790669  1.0000
  C   C2        1.0  0.455612540681777  0.47117371224756954  0.37960290789538215  1.0000
  C   C3        1.0  0.5443954055453445  0.9711753378252581  0.8795995819865325  1.0000
  C   C4        1.0  0.5443963920205519  0.5288245271950983  0.6204012313049034  1.0000
  C   C5        1.0  0.521859347156628  0.9927879463253716  0.1674985594140779  1.0000
  C   C6        1.0  0.5218637900473837  0.5072170154693793  0.33250428009245064  1.0000
  C   C7        1.0  0.4781486394712359  0.007216515415045401  0.832499830974136  1.0000
  C   C8        1.0  0.47814987305878276  0.49278205827184957  0.6675006640597304  1.0000
  C   C9        1.0  0.46079073295712897  0.9597210612443728  0.21004224827272117  1.0000
  C   C10       1.0  0.46079904555219287  0.5402798282557981  0.2899601180683007  1.0000
  C   C11       1.0  0.5392125232650142  0.040278569709819606  0.7899560305040866  1.0000
  C   C12       1.0  0.5392136714736607  0.45972085574683746  0.7100448632879477  1.0000
  C   C13       1.0  0.5199074911949353  0.9163037339964999  0.2556945515886326  1.0000
  C   C14       1.0  0.5199111704224463  0.583695517941379  0.24430619224420982  1.0000
  C   C15       1.0  0.480099549351408  0.0836950334948838  0.744302135884972  1.0000
  C   C16       1.0  0.4800996544412328  0.4163035557990966  0.7556987519082697  1.0000
  C   C17       1.0  0.44393810236080344  0.8666916954250891  0.2927019398474968  1.0000
  C   C18       1.0  0.4439418700877625  0.6333075457988926  0.2072996065326649  1.0000
  C   C19       1.0  0.5560660999430026  0.13330871149369725  0.7072955711807795  1.0000
  C   C20       1.0  0.5560680086940406  0.3666883074180163  0.7927052632119782  1.0000
  C   C21       1.0  0.4963386333578512  0.8179511934188  0.3351176195757333  1.0000
  C   C22       1.0  0.4963377665705194  0.6820448256220145  0.1648830548746076  1.0000
  C   C23       1.0  0.5036636767843419  0.18204757407134758  0.6648790678983686  1.0000
  C   C24       1.0  0.5036617053221732  0.31795020787809136  0.8351214030939574  1.0000
  C   C25       1.0  0.628529771615966  0.8169621780784482  0.3424376870880508  1.0000
  C   C26       1.0  0.628529862393968  0.683033822857382  0.1575606001273755  1.0000
  C   C27       1.0  0.3714734846065824  0.1830333397221366  0.6575581396276107  1.0000
  C   C28       1.0  0.371472447743713  0.3169635385364983  0.8424415545956164  1.0000
  C   C29       1.0  0.7042399346541045  0.8693472458770158  0.3062360464095306  1.0000
  C   C30       1.0  0.7042408823099605  0.6306487948033704  0.19376222466414111  1.0000
  C   C31       1.0  0.295764267649325  0.13064663249566877  0.6937589567516512  1.0000
  C   C32       1.0  0.2957623739090208  0.36935181628057023  0.8062407908170925  1.0000
  C   C33       1.0  0.6517779082777863  0.9179230921677612  0.2639139863236721  1.0000
  C   C34       1.0  0.6517834906982855  0.5820753655326882  0.23608513809094941  1.0000
  C   C35       1.0  0.34822818618613377  0.0820716642524673  0.7360830013153078  1.0000
  C   C36       1.0  0.34823017241090065  0.41792764636323193  0.7639175400199322  1.0000
  C   C37       1.0  0.7163344449809658  0.6573476752573271  0.46155585253674053  1.0000
  C   C38       1.0  0.7163357666503741  0.8426516068787817  0.0384428835414496  1.0000
  C   C39       1.0  0.2836621886764377  0.34265435650437576  0.5384420888715198  1.0000
  C   C40       1.0  0.2836646513262835  0.15734326620589906  0.9615572494997693  1.0000
  C   C41       1.0  0.6369289809516019  0.7053502077235972  0.42125780873167423  1.0000
  C   C42       1.0  0.6369302103603616  0.7946490618947804  0.0787417306264402  1.0000
  C   C43       1.0  0.3630695448680328  0.2946517948721236  0.5787393463259747  1.0000
  C   C44       1.0  0.36307399193820084  0.20534588410710333  0.9212603682903975  1.0000
  C   C45       1.0  0.6909843023317349  0.763060326818042  0.3841794286847389  1.0000
  C   C46       1.0  0.6909816532857034  0.7369373171644681  0.1158188824194326  1.0000
  C   C47       1.0  0.3090180078099394  0.23693683041044272  0.6158172215853953  1.0000
  C   C48       1.0  0.30901592644953974  0.2630599567287177  0.8841809132528411  1.0000
  C   C49       1.0  0.7317289224587852  0.3548155677680427  0.5246146210962053  1.0000
  C   C50       1.0  0.7317304103132257  0.1451887895358936  0.9753863432625637  1.0000
  C   C51       1.0  0.26826581903638663  0.6451864931596559  0.4753841066626663  1.0000
  C   C52       1.0  0.2682671694217973  0.8548158617839546  0.024617158404410602  1.0000
  C   C53       1.0  0.7720849131428977  0.24093975460068862  0.5169591940971898  1.0000
  C   C54       1.0  0.772093089980025  0.25906302821160654  0.9830421176280665  1.0000
  C   C55       1.0  0.22790604402806738  0.7590631697898116  0.48304112496488477  1.0000
  C   C56       1.0  0.22790922015919782  0.7409399836813364  0.016960560484022807  1.0000
  C   C57       1.0  0.8945976384012796  0.21136259515709807  0.51933642366577  1.0000
  C   C58       1.0  0.8946030006928821  0.28864022280148294  0.9806640755892531  1.0000
  C   C59       1.0  0.10539710309272722  0.7886403438176399  0.4806642885711057  1.0000
  C   C60       1.0  0.10539647120469911  0.7113627453409849  0.019337422997530506  1.0000
  C   C61       1.0  0.9448818050128619  0.10325964355279636  0.5093438136059874  1.0000
  C   C62       1.0  0.9448862802517082  0.3967439621835138  0.99065551400475  1.0000
  C   C63       1.0  0.05511293648225999  0.8967440568030438  0.49065573770725734  1.0000
  C   C64       1.0  0.05511413772811119  0.6032597527570615  0.0093444304830967  1.0000
  C   C65       1.0  0.07526132333833857  0.08654221789898027  0.517886095322595  1.0000
  C   C66       1.0  0.07526582259852428  0.41346258533822317  0.9821146344237163  1.0000
  C   C67       1.0  0.924734364238162  0.913462273004697  0.48211308141733156  1.0000
  C   C68       1.0  0.9247345953812951  0.5865411296023524  0.017885310064130504  1.0000
  C   C69       1.0  0.8708348798547975  0.014431114341299203  0.49106767327536727  1.0000
  C   C70       1.0  0.8708372887205656  0.4855709888313056  0.008930004140623301  1.0000
  C   C71       1.0  0.12915891555977774  0.9855725714310496  0.508931484862778  1.0000
  C   C72       1.0  0.129162183178714  0.5144327115257781  0.991069547172117  1.0000
  C   C73       1.0  0.644925175148252  0.816146894640546  0.5821700080958081  1.0000
  C   C74       1.0  0.6449201518078735  0.6838561415923293  0.9178281059444942  1.0000
  C   C75       1.0  0.3550714585071546  0.18385523920385785  0.41783068553888114  1.0000
  C   C76       1.0  0.3550783740106666  0.3161442799082152  0.0821697982595921  1.0000
  C   C77       1.0  0.64732729932917  0.9261387610460615  0.5992133104685138  1.0000
  C   C78       1.0  0.6473212800007956  0.5738618756383075  0.900785140429008  1.0000
  C   C79       1.0  0.3526693343240694  0.07385939089392217  0.4007884696818635  1.0000
  C   C80       1.0  0.35267251541273476  0.4261385896107228  0.09921394330120141  1.0000
  C   C81       1.0  0.7593716534071573  0.9711885951609317  0.6181989948481004  1.0000
  C   C82       1.0  0.7593656313628399  0.5288113243771946  0.8818001999096127  1.0000
  C   C83       1.0  0.2406278184888109  0.028811181624703894  0.3818032156811455  1.0000
  C   C84       1.0  0.24063384053379616  0.47118514438565723  0.1181995771604747  1.0000
  C   C85       1.0  0.8689069760894413  0.9066820375539989  0.6204523523185657  1.0000
  C   C86       1.0  0.8688991092383771  0.5933178374019119  0.8795440668596229  1.0000
  C   C87       1.0  0.13108965756522648  0.09331604146976957  0.379547461955795  1.0000
  C   C88       1.0  0.13109563225546586  0.40668101758569714  0.1204549796665191  1.0000
  C   C89       1.0  0.85701850028218  0.7968018146062973  0.6022983268059363  1.0000
  C   C90       1.0  0.8570116277021497  0.7031996789538795  0.8976985252859748  1.0000
  C   C91       1.0  0.14298002553578468  0.20319863606073332  0.3977003637485623  1.0000
  C   C92       1.0  0.1429859520339178  0.2967983709036445  0.102300502637874  1.0000
  C   C93       1.0  0.9660155032147698  0.727155110716211  0.6018468705320572  1.0000
  C   C94       1.0  0.9660105696631617  0.7728440246703627  0.8981499025151719  1.0000
  C   C95       1.0  0.033979238280522794  0.27284285164111566  0.3981497983408744  1.0000
  C   C96       1.0  0.03398511791151289  0.2271548303175024  0.1018491440108633  1.0000
  C   C97       1.0  0.08416031721455398  0.7689617712873084  0.6198726710156919  1.0000
  C   C98       1.0  0.08415443566396157  0.7310401216891904  0.8801243644540476  1.0000
  C   C99       1.0  0.9158353703612574  0.2310370253675842  0.38012480280952593  1.0000
  C   C100      1.0  0.9158412519106844  0.26895955301274904  0.11987509384917419  1.0000
  C   C101      1.0  0.18893590939931218  0.6981571704956053  0.6162898619842068  1.0000
  C   C102      1.0  0.18893196304218657  0.801840005031721  0.8837086122357293  1.0000
  C   C103      1.0  0.811058832094602  0.3018392253497879  0.3837079492103613  1.0000
  C   C104      1.0  0.8110646706119126  0.19815810315852633  0.1162919883890368  1.0000
  C   C105      1.0  0.17274844586317065  0.5935760998358004  0.5957582474221894  1.0000
  C   C106      1.0  0.1727464327296886  0.9064227503722433  0.9042422333287519  1.0000
  C   C107      1.0  0.8272453495493223  0.40642114488990433  0.4042407619000841  1.0000
  C   C108      1.0  0.8272520930855263  0.09357456727092028  0.0957587418690267  1.0000
  C   C109      1.0  0.051626447689216114  0.558470069289683  0.5793781945378171  1.0000
  C   C110      1.0  0.0516253804121689  0.9415262581929438  0.9206210767050679  1.0000
  C   C111      1.0  0.9483673477244138  0.4415271171030496  0.4206192420836317  1.0000
  C   C112      1.0  0.948373145403046  0.05847105945021979  0.0793798984927108  1.0000
  C   C113      1.0  0.9892512956948282  0.9459834666070038  0.6389426331637367  1.0000
  C   C114      1.0  0.9892443754032739  0.5540188285838781  0.8610522434616783  1.0000
  C   C115      1.0  0.010747230122070999  0.05401458325077609  0.3610563947600128  1.0000
  C   C116      1.0  0.010751312171663599  0.4459808315348182  0.1389468216663445  1.0000
  C   C117      1.0  0.09247922972799927  0.8796949076537287  0.6388564354078383  1.0000
  C   C118      1.0  0.09247330063210768  0.620306902190343  0.8611382392370645  1.0000
  C   C119      1.0  0.9075174039278409  0.12030229332299307  0.36114139438851817  1.0000
  C   C120      1.0  0.9075223869431142  0.3796927433451103  0.1388604327157523  1.0000
  N   N1        1.0  0.7468871219972968  0.7539822106871553  0.5838634675584515  1.0000
  N   N2        1.0  0.746881197504571  0.7460208499042978  0.9161338383929092  1.0000
  N   N3        1.0  0.2531066734170437  0.24601985024028744  0.41613526020051955  1.0000
  N   N4        1.0  0.25311259791008206  0.25398037672582763  0.0838640844136691  1.0000
  N   N5        1.0  0.9513228466470094  0.623455886263926  0.5827298132559591  1.0000
  N   N6        1.0  0.9513198478059903  0.8765449100048311  0.9172685728283767  1.0000
  N   N7        1.0  0.04867189484823337  0.37654371552154947  0.4172676791713458  1.0000
  N   N8        1.0  0.048676785848655896  0.1234539887330115  0.08273165322317061  1.0000
  O   O1        1.0  0.6133657056861066  0.3715247895980766  0.5190464396783839  1.0000
  O   O2        1.0  0.6133681199977019  0.12848269692772615  0.9809538379732458  1.0000
  O   O3        1.0  0.3866318740509129  0.6284797596390701  0.4809543097621614  1.0000
  O   O4        1.0  0.3866322979825938  0.8715242677026538  0.019046967272949203  1.0000
  O   O5        1.0  0.8161742215900956  0.42630550252839317  0.5354603233466548  1.0000
  O   O6        1.0  0.816174730583242  0.0736948880342467  0.9645409231734803  1.0000
  O   O7        1.0  0.18382525031091748  0.5736972906151577  0.464536457137676  1.0000
  O   O8        1.0  0.18382568739156108  0.9263049908343316  0.0354640395820951  1.0000
  O   O9        1.0  0.6556754826792852  0.6067382769263714  0.49748267515253264  1.0000
  O   O10       1.0  0.655675945853666  0.8932642230561713  0.0025169346167857078  1.0000
  O   O11       1.0  0.3443211509785654  0.3932678242392171  0.5025165387912622  1.0000
  O   O12       1.0  0.3443254182043275  0.10673308000448857  0.9974836474054881  1.0000
  O   O13       1.0  0.8339351333404394  0.667957928781021  0.46250062672825015  1.0000
  O   O14       1.0  0.8339345570016407  0.8320405953754314  0.0374976725000948  1.0000
  O   O15       1.0  0.16606339247864807  0.33204328326710447  0.5374969029026246  1.0000
  O   O16       1.0  0.16606869921641726  0.16795269661481874  0.962503209687263  1.0000
  O   O17       1.0  0.5254475731562704  0.0485461630774324  0.08129946368277528  1.0000
  O   O18       1.0  0.525447461568632  0.45145351838858255  0.4187029496677114  1.0000
  O   O19       1.0  0.47456325171324915  0.9514575226993852  0.9186996944535509  1.0000
  O   O20       1.0  0.47456241721321385  0.5485406954001774  0.5813010965225587  1.0000
  O   O21       1.0  0.3349475411180477  0.03651784510538649  0.1222181356445589  1.0000
  O   O22       1.0  0.33494939031778864  0.46348491313104023  0.37778321320328706  1.0000
  O   O23       1.0  0.665061391591429  0.9634890320277731  0.8777803105494969  1.0000
  O   O24       1.0  0.6650614345467645  0.5365132971456388  0.6222201396463944  1.0000
