data_image0
_chemical_formula_structural       Zn16H32C112S8Cl16O52F8
_chemical_formula_sum              "Zn16 H32 C112 S8 Cl16 O52 F8"
_cell_length_a       18.457834041108516
_cell_length_b       19.66328563678758
_cell_length_c       32.84264783655157
_cell_angle_alpha    85.85620272019929
_cell_angle_beta     73.54452415980799
_cell_angle_gamma    61.81948515481137

_space_group_name_H-M_alt    "P 1"
_space_group_IT_number       1

loop_
  _space_group_symop_operation_xyz
  'x, y, z'

loop_
  _atom_site_type_symbol
  _atom_site_label
  _atom_site_symmetry_multiplicity
  _atom_site_fract_x
  _atom_site_fract_y
  _atom_site_fract_z
  _atom_site_occupancy
  Zn  Zn1       1.0  0.8719071391743471  0.5518746260765184  0.5187644493986172  1.0000
  Zn  Zn2       1.0  0.042275436923851835  0.4821820301751599  0.4388473102093259  1.0000
  Zn  Zn3       1.0  0.0464108144233109  0.4011360753309888  0.5256953150823878  1.0000
  Zn  Zn4       1.0  0.0425995413324146  0.5656792146541818  0.5157482775579753  1.0000
  Zn  Zn5       1.0  0.6251829512413424  0.18715177482576456  0.7364916907371822  1.0000
  Zn  Zn6       1.0  0.47029703359203984  0.3514458896477349  0.7270650701715341  1.0000
  Zn  Zn7       1.0  0.45211084460084555  0.2657401341799072  0.8127616371634404  1.0000
  Zn  Zn8       1.0  0.4504949997060806  0.19959245353994962  0.7262418551282794  1.0000
  Zn  Zn9       1.0  0.4660604327618504  0.7557646699628932  0.3144130774399231  1.0000
  Zn  Zn10      1.0  0.46041868669943387  0.6890759698848047  0.22959062807963465  1.0000
  Zn  Zn11      1.0  0.6262468204169951  0.7014583710791344  0.2292238552458629  1.0000
  Zn  Zn12      1.0  0.450411517757047  0.8526309107942752  0.22945121145762223  1.0000
  Zn  Zn13      1.0  0.02876416129848986  0.9014717621634889  0.026191643860698836  1.0000
  Zn  Zn14      1.0  0.06263932751804901  0.05034259311371161  0.0167449518798506  1.0000
  Zn  Zn15      1.0  0.878557895027825  0.0670955741313009  0.02144683637894936  1.0000
  Zn  Zn16      1.0  0.030141188597518555  0.9867344646732974  0.9386170928911927  1.0000
  H   H1        1.0  0.552545615402103  0.4704185270270287  0.6247018812095035  1.0000
  H   H2        1.0  0.5597341304893606  0.5099299977344104  0.6695365196553882  1.0000
  H   H3        1.0  0.6551240897447388  0.5589456808633598  0.620381514397856  1.0000
  H   H4        1.0  0.647701553360669  0.5194572518049654  0.5755825238784029  1.0000
  H   H5        1.0  0.35920412225734577  0.6651432890037513  0.4251189312632563  1.0000
  H   H6        1.0  0.2692711689272685  0.7563712374789304  0.42476603197060575  1.0000
  H   H7        1.0  0.17083773524618823  0.7105760714958862  0.47370424960855945  1.0000
  H   H8        1.0  0.26089469623698136  0.61956771811861  0.4744586153899491  1.0000
  H   H9        1.0  0.5561260788764105  0.7613848009488251  0.4237251560359355  1.0000
  H   H10       1.0  0.5496765989559338  0.6734968991349816  0.42738499868160323  1.0000
  H   H11       1.0  0.6457976636307594  0.6257525721521588  0.4758628438564331  1.0000
  H   H12       1.0  0.6525762231318384  0.7133949804294418  0.47227066916373434  1.0000
  H   H13       1.0  0.3344748968684146  0.1945487773822663  0.6314393923457403  1.0000
  H   H14       1.0  0.24243950777789547  0.2379268805784419  0.6761760353622821  1.0000
  H   H15       1.0  0.14729135368511245  0.2863048779011805  0.6270243439253067  1.0000
  H   H16       1.0  0.2395292115759703  0.24243537401827095  0.5823732203107781  1.0000
  H   H17       1.0  0.9411390507464932  0.08945236324440492  0.827733126496689  1.0000
  H   H18       1.0  0.9439883537448569  0.997708372343169  0.8269162044771151  1.0000
  H   H19       1.0  0.8462887260713219  0.045305160727068  0.7793450007776672  1.0000
  H   H20       1.0  0.8428199952345852  0.1373842128792262  0.780252023963783  1.0000
  H   H21       1.0  0.16551979118214186  0.20837991214938256  0.9700664506338016  1.0000
  H   H22       1.0  0.2581900052938836  0.12023451676089537  0.9715670976589694  1.0000
  H   H23       1.0  0.35220308701611464  0.17077238591844693  0.922894674264619  1.0000
  H   H24       1.0  0.2595373016334578  0.25886585674233226  0.9211529262053448  1.0000
  H   H25       1.0  0.26009379246293923  0.018546823288538402  0.07197688320594155  1.0000
  H   H26       1.0  0.16804839080152337  0.0633607272767449  0.11658883555590192  1.0000
  H   H27       1.0  0.2628086615171058  0.016892077899946407  0.16568661002352772  1.0000
  H   H28       1.0  0.35497362897018525  0.973272573451809  0.12099691489339656  1.0000
  H   H29       1.0  0.9391513703244028  0.7416546867968847  0.0853325229596465  1.0000
  H   H30       1.0  0.938155727260011  0.7875785250988372  0.1305048357183552  1.0000
  H   H31       1.0  0.8401425407268734  0.740159509957479  0.17839046999607439  1.0000
  H   H32       1.0  0.8415789630786747  0.6940782519311386  0.13321850341156263  1.0000
  C   C1        1.0  0.8684752572663546  0.5682728626218105  0.42986644415322683  1.0000
  C   C2        1.0  0.119711434207396  0.3146836757637175  0.44150540301630775  1.0000
  C   C3        1.0  0.8709083768059717  0.4234254553884327  0.569743585846318  1.0000
  C   C4        1.0  0.14573848118489247  0.44198701644437227  0.5643935861548499  1.0000
  C   C5        1.0  0.8668332769330509  0.6822860650690856  0.5617803666366046  1.0000
  C   C6        1.0  0.136358083040392  0.5691100163337595  0.4303688319762032  1.0000
  C   C7        1.0  0.6485072302595968  0.3091090869617333  0.6842210573061751  1.0000
  C   C8        1.0  0.37814290910419157  0.4352116133077716  0.8113991308008723  1.0000
  C   C9        1.0  0.6257361724474323  0.17956715894790423  0.8252238789510359  1.0000
  C   C10       1.0  0.35654920678190655  0.1823540571883058  0.8133133732367384  1.0000
  C   C11       1.0  0.6215322623064737  0.06763684084317839  0.6886134742912304  1.0000
  C   C12       1.0  0.3656008543004818  0.33103643669240773  0.6797588488186649  1.0000
  C   C13       1.0  0.360221227386063  0.6813530814160204  0.31615136280749573  1.0000
  C   C14       1.0  0.6344755346735128  0.564893897356569  0.19209754415718555  1.0000
  C   C15       1.0  0.6443610616218227  0.6807093293753256  0.3167043465949321  1.0000
  C   C16       1.0  0.6226137257426103  0.830501507913354  0.17825019043772283  1.0000
  C   C17       1.0  0.3769023456140843  0.9271575603300805  0.31716927234508324  1.0000
  C   C18       1.0  0.3635226936344085  0.8140887828661789  0.18187694972593252  1.0000
  C   C19       1.0  0.13468006587958578  0.9254376596369412  0.07096760175507201  1.0000
  C   C20       1.0  0.899622251943214  0.1846413218121157  0.061023666203674144  1.0000
  C   C21       1.0  0.8500461970417136  0.9429719307910815  0.06743728191953834  1.0000
  C   C22       1.0  0.8534753173724853  0.0706845482401519  0.9364919045292268  1.0000
  C   C23       1.0  0.12306660641684894  0.8173476079381032  0.9411509091367167  1.0000
  C   C24       1.0  0.13507453961529595  0.06645070766396091  0.9271456365376309  1.0000
  C   C25       1.0  0.729225128137813  0.8050823107835827  0.6008456684808864  1.0000
  C   C26       1.0  0.7572591821359896  0.9441424084576655  0.6502036117880793  1.0000
  C   C27       1.0  0.8169945574014293  0.7570834940452045  0.5869578073113858  1.0000
  C   C28       1.0  0.6695260832450816  0.9924627598406699  0.6639534506042467  1.0000
  C   C29       1.0  0.779696338021886  0.8758449670838857  0.6271305278870117  1.0000
  C   C30       1.0  0.7065559257132111  0.8735702369935581  0.6238855433262743  1.0000
  C   C31       1.0  0.1962453714929637  0.22207180579528094  0.37386681614822254  1.0000
  C   C32       1.0  0.30043312156762175  0.0185730000020783  0.38605631000542934  1.0000
  C   C33       1.0  0.16937603851090446  0.23897313719090368  0.41757528952791745  1.0000
  C   C34       1.0  0.3271091356638394  0.0019396064084276007  0.3423586532696917  1.0000
  C   C35       1.0  0.25289922106211554  0.09868848054623672  0.39803558901876107  1.0000
  C   C36       1.0  0.24432796148212088  0.14199622339867798  0.362116594751214  1.0000
  C   C37       1.0  0.7100982140789046  0.3312032594507813  0.65380901474704  1.0000
  C   C38       1.0  0.8197400771388674  0.3876913188230731  0.5969692165965556  1.0000
  C   C39       1.0  0.678309909889258  0.4039986963949573  0.6377262884852969  1.0000
  C   C40       1.0  0.8540480304949014  0.3118073096284206  0.6114445662851795  1.0000
  C   C41       1.0  0.7306980909478472  0.4309920968380395  0.6106141222077924  1.0000
  C   C42       1.0  0.800587869333647  0.28435731731559605  0.6392623409335771  1.0000
  C   C43       1.0  0.5965842091581736  0.477630268968838  0.6383508974024822  1.0000
  C   C44       1.0  0.6560907125366172  0.5083322912341259  0.6076184423071923  1.0000
  C   C45       1.0  0.30141493294066635  0.6522989049906658  0.34250977618143014  1.0000
  C   C46       1.0  0.18920143513930293  0.5987688478890476  0.39920099856244934  1.0000
  C   C47       1.0  0.2794158286336313  0.6618636945969314  0.38678589050700657  1.0000
  C   C48       1.0  0.20872614544310147  0.5894130574202167  0.35427847847809363  1.0000
  C   C49       1.0  0.22530248124560617  0.6366562838838946  0.41391757297928683  1.0000
  C   C50       1.0  0.2640727770891048  0.6149410084295751  0.32646531110404453  1.0000
  C   C51       1.0  0.29297508135959327  0.6935166176142715  0.42313602900311775  1.0000
  C   C52       1.0  0.23147542623962655  0.6648427002407828  0.4539206695295093  1.0000
  C   C53       1.0  0.7059199424457889  0.6466158817483035  0.34299444519833605  1.0000
  C   C54       1.0  0.8166260684709884  0.5913955792197854  0.3988743835208552  1.0000
  C   C55       1.0  0.6746611160170489  0.6599936440803873  0.3871505478467726  1.0000
  C   C56       1.0  0.8504432038370949  0.5739058727869876  0.354035356755688  1.0000
  C   C57       1.0  0.7276642446981827  0.6336119085188443  0.413857864570524  1.0000
  C   C58       1.0  0.7962938296030375  0.6009410245091401  0.3267663934798577  1.0000
  C   C59       1.0  0.5933245868878317  0.6982453377604331  0.4236051504982756  1.0000
  C   C60       1.0  0.6536124515865043  0.6682456839141935  0.45394189553776  1.0000
  C   C61       1.0  0.3105073746741169  0.3646036799800356  0.6503390716929973  1.0000
  C   C62       1.0  0.2014777869876171  0.4198131884451612  0.5935066245185611  1.0000
  C   C63       1.0  0.27633046818831997  0.32205855202362  0.6382649046687803  1.0000
  C   C64       1.0  0.23501655173314645  0.4649190057550922  0.6053317302931803  1.0000
  C   C65       1.0  0.22407978369915332  0.34849770735289815  0.611204143921242  1.0000
  C   C66       1.0  0.2884763522521539  0.43782287258803615  0.6329649866273288  1.0000
  C   C67       1.0  0.2726554592988535  0.24647839981712852  0.643637346740988  1.0000
  C   C68       1.0  0.21324280978170415  0.2765340331453814  0.6129185354642319  1.0000
  C   C69       1.0  0.30372722391957313  0.5839031345834726  0.8228633885764652  1.0000
  C   C70       1.0  0.1989727204982473  0.6684358363859674  0.929868490870142  1.0000
  C   C71       1.0  0.3282591808384441  0.5098547656942428  0.8365439174504703  1.0000
  C   C72       1.0  0.17381158111556513  0.7425413546662796  0.9161541152382997  1.0000
  C   C73       1.0  0.24577946807525577  0.6102148114053776  0.896110362302828  1.0000
  C   C74       1.0  0.25596178126748015  0.6422130322149897  0.8565422324261291  1.0000
  C   C75       1.0  0.790971067112942  0.0967438681013064  0.9108416271249599  1.0000
  C   C76       1.0  0.6781831923260883  0.1507548467282334  0.8560109085563924  1.0000
  C   C77       1.0  0.8212379596782572  0.08924595645537178  0.8665942097451451  1.0000
  C   C78       1.0  0.6453973827809277  0.15676356624501153  0.9011065701225434  1.0000
  C   C79       1.0  0.7672645521307403  0.11528372996088619  0.8403704091944706  1.0000
  C   C80       1.0  0.7004976777336652  0.13041732646501464  0.9278519632171724  1.0000
  C   C81       1.0  0.9020527526012075  0.060465612323163505  0.8296043300646333  1.0000
  C   C82       1.0  0.8407396790816577  0.090244056010782  0.799820539216235  1.0000
  C   C83       1.0  0.19338636570284262  0.09086683831480971  0.8957481881754888  1.0000
  C   C84       1.0  0.3021859682556852  0.1486241737288267  0.8394079648861493  1.0000
  C   C85       1.0  0.2262551711953975  0.1318677395622387  0.910577467980403  1.0000
  C   C86       1.0  0.2716792430695847  0.10493139293959082  0.8232463433035238  1.0000
  C   C87       1.0  0.2781457753755276  0.15955247587582022  0.8836774300943873  1.0000
  C   C88       1.0  0.21873173524119954  0.0766494798354032  0.8507863306717172  1.0000
  C   C89       1.0  0.2278107713491054  0.1641114690449257  0.950653537519614  1.0000
  C   C90       1.0  0.28668353811629294  0.19563166836931603  0.9201499414256845  1.0000
  C   C91       1.0  0.6617211250106864  0.44321755676250524  0.15272267325834585  1.0000
  C   C92       1.0  0.8783017822117858  0.305700695421855  0.10048925880456495  1.0000
  C   C93       1.0  0.6877423896676123  0.4905459898538426  0.16687574813518324  1.0000
  C   C94       1.0  0.8514212784872728  0.2589803228681049  0.08647314901787694  1.0000
  C   C95       1.0  0.8097636075041524  0.3734412492712949  0.12467078531057754  1.0000
  C   C96       1.0  0.7306624032602546  0.3760985424020475  0.12849507019465287  1.0000
  C   C97       1.0  0.19192945409867715  0.8922286385826155  0.09946414520211988  1.0000
  C   C98       1.0  0.3031882740416166  0.838478719891832  0.15511730596222867  1.0000
  C   C99       1.0  0.22633090930447955  0.9353409570854582  0.11073961988290654  1.0000
  C   C100      1.0  0.2686299751476966  0.7932353414536025  0.1446407626462971  1.0000
  C   C101      1.0  0.2789943955873753  0.9099252348074599  0.13760847395186465  1.0000
  C   C102      1.0  0.21495495484991528  0.8190926108669672  0.11715273118770855  1.0000
  C   C103      1.0  0.22971276616827657  0.0110697072857064  0.10471245701871373  1.0000
  C   C104      1.0  0.2893334420151776  0.9822273414548164  0.1353343484335241  1.0000
  C   C105      1.0  0.7869661725074837  0.9185904447888402  0.09386461043516196  1.0000
  C   C106      1.0  0.6742460482643936  0.8634338000659342  0.14872656289552574  1.0000
  C   C107      1.0  0.817298959478265  0.8476896365257076  0.11193695317947323  1.0000
  C   C108      1.0  0.6412057404074291  0.9354114297125946  0.13000414902921892  1.0000
  C   C109      1.0  0.7634005483843044  0.821472389658062  0.1382657162825325  1.0000
  C   C110      1.0  0.6962607057586752  0.9623382139116431  0.10325213715113092  1.0000
  C   C111      1.0  0.8981938209310841  0.7766960391333768  0.11540783571905429  1.0000
  C   C112      1.0  0.836966130777107  0.7469982407340936  0.14535460107656215  1.0000
  S   S1        1.0  0.8737960217550699  0.7958561115724193  0.602245907140116  1.0000
  S   S2        1.0  0.6125333687421065  0.9539920248706723  0.6486034052880002  1.0000
  S   S3        1.0  0.2035162985017963  0.155584874469703  0.44516204641222873  1.0000
  S   S4        1.0  0.29390591441774927  0.08555587533376038  0.3149308629907922  1.0000
  S   S5        1.0  0.29247799102298444  0.5108213047994424  0.8917281980118901  1.0000
  S   S6        1.0  0.2079322099121583  0.7416857953996329  0.860893563866192  1.0000
  S   S7        1.0  0.7988373895160167  0.45267049082440275  0.1502949789789342  1.0000
  S   S8        1.0  0.7402605769382619  0.29788253478759685  0.10290366136237596  1.0000
  Cl  Cl1       1.0  0.9621714202279961  0.24861360899513574  0.5946689187342431  1.0000
  Cl  Cl2       1.0  0.8488688407167545  0.191056418724493  0.653864356383963  1.0000
  Cl  Cl3       1.0  0.16176188448808662  0.5499813718651296  0.33208897132338683  1.0000
  Cl  Cl4       1.0  0.28469408749238323  0.5979259260525112  0.2727518985169084  1.0000
  Cl  Cl5       1.0  0.9583253555687744  0.5162554763935249  0.3311417277632886  1.0000
  Cl  Cl6       1.0  0.8434512124176053  0.5736840540295918  0.2732515726493716  1.0000
  Cl  Cl7       1.0  0.21211937440194367  0.5548764063685283  0.5868239736618579  1.0000
  Cl  Cl8       1.0  0.3274996625494496  0.49628899112759234  0.6439371365014781  1.0000
  Cl  Cl9       1.0  0.5371170198678785  0.19396252339135603  0.9252349512273458  1.0000
  Cl  Cl10      1.0  0.6548945642030689  0.13670219924711796  0.9818162184826921  1.0000
  Cl  Cl11      1.0  0.2990317892293249  0.0828576341091178  0.7694430931065099  1.0000
  Cl  Cl12      1.0  0.188702037399473  0.021535606673040802  0.8279501929988342  1.0000
  Cl  Cl13      1.0  0.28749741322226197  0.7065958879469464  0.16679372303864434  1.0000
  Cl  Cl14      1.0  0.18071253980271965  0.7574798635318628  0.10508129715960733  1.0000
  Cl  Cl15      1.0  0.5326484899623981  0.9930347634185708  0.13853716753745005  1.0000
  Cl  Cl16      1.0  0.6493255889169662  0.0489591565775456  0.08130016629685599  1.0000
  O   O1        1.0  0.9977427707588692  0.5009609717050268  0.5010711026608661  1.0000
  O   O2        1.0  0.8272157299923824  0.5702678425608028  0.4687204618066759  1.0000
  O   O3        1.0  0.09128710174498887  0.3735977370138742  0.4201297130642345  1.0000
  O   O4        1.0  0.9508115664917374  0.3912772296898055  0.5655293241850997  1.0000
  O   O5        1.0  0.9474132336561214  0.5505119085013989  0.4160378684780569  1.0000
  O   O6        1.0  0.8279037845220572  0.4859363231059109  0.553681010202631  1.0000
  O   O7        1.0  0.1097112630037175  0.31415667629314464  0.4817397158616288  1.0000
  O   O8        1.0  0.12191095283726132  0.3924077470484093  0.5594422029853663  1.0000
  O   O9        1.0  0.9481441092147804  0.6545840473162201  0.5533991250481379  1.0000
  O   O10       1.0  0.12663833119261625  0.5056170894051492  0.5469543267927648  1.0000
  O   O11       1.0  0.8264876139651351  0.6523224102939623  0.5508615867559712  1.0000
  O   O12       1.0  0.1360048230027857  0.5086114884213445  0.4193083513534931  1.0000
  O   O13       1.0  0.09751489815796091  0.6061295822714284  0.46704724242626844  1.0000
  O   O14       1.0  0.5000790998880689  0.25002238581377156  0.7505636725027857  1.0000
  O   O15       1.0  0.6766650011894201  0.2505937381719008  0.7056265864761857  1.0000
  O   O16       1.0  0.4135615651672141  0.4357181883349455  0.7720167159015433  1.0000
  O   O17       1.0  0.5470170903666162  0.22882819814298466  0.8385882840870239  1.0000
  O   O18       1.0  0.5695258371366877  0.35418773962275213  0.6865837396075848  1.0000
  O   O19       1.0  0.6670865971228539  0.1522486467495909  0.7866265454313108  1.0000
  O   O20       1.0  0.3814220578754261  0.37633013034213997  0.8318959185806919  1.0000
  O   O21       1.0  0.3852211949634069  0.2109822327453941  0.8347641170912966  1.0000
  O   O22       1.0  0.5399158733980016  0.09902700566152592  0.696483100313337  1.0000
  O   O23       1.0  0.36929308376058867  0.1816685487050336  0.7732451914827081  1.0000
  O   O24       1.0  0.6645369144155995  0.0942917475437284  0.6997748601351859  1.0000
  O   O25       1.0  0.38376044576767754  0.3742137448752416  0.6972126579381169  1.0000
  O   O26       1.0  0.38923158021251697  0.2592827005066241  0.6853644843453781  1.0000
  O   O27       1.0  0.501109409435813  0.7504887121347893  0.2518674815118658  1.0000
  O   O28       1.0  0.3927716721621907  0.7064537498149832  0.3370825048232647  1.0000
  O   O29       1.0  0.554022170250292  0.5878217639348406  0.20457468468786294  1.0000
  O   O30       1.0  0.6726243890014774  0.689516238596525  0.2777585775272655  1.0000
  O   O31       1.0  0.37306667093126583  0.6800044566009548  0.2760336624167082  1.0000
  O   O32       1.0  0.5660944233509826  0.7005961917166347  0.33683837243183495  1.0000
  O   O33       1.0  0.6740766020619806  0.5995636953904581  0.19911461170868716  1.0000
  O   O34       1.0  0.6670216587477859  0.7625640895512119  0.18886967496289492  1.0000
  O   O35       1.0  0.3907833567257484  0.9323315665737796  0.27690059082640067  1.0000
  O   O36       1.0  0.5415177995409906  0.8704109289034818  0.1906901055081961  1.0000
  O   O37       1.0  0.4009888575295196  0.8656617941982673  0.33698889916163927  1.0000
  O   O38       1.0  0.41094757081371125  0.7422094865217731  0.18370107819850295  1.0000
  O   O39       1.0  0.3645601941368356  0.8690386752639867  0.1999722304795455  1.0000
  O   O40       1.0  0.0026291438025439007  0.0008673809968514  0.0006835730285886002  1.0000
  O   O41       1.0  0.08880374670877716  0.8950461015192843  0.06804580582186051  1.0000
  O   O42       1.0  0.9812842973073759  0.15238731908880962  0.04893346241419048  1.0000
  O   O43       1.0  0.8240869376463567  0.014011211996603398  0.06060504704078807  1.0000
  O   O44       1.0  0.1359079326969026  0.9844020036961894  0.052138421183286744  1.0000
  O   O45       1.0  0.9273152940427141  0.8887053010972821  0.0544693595315024  1.0000
  O   O46       1.0  0.851741875971719  0.1593507303969588  0.05368249379996835  1.0000
  O   O47       1.0  0.8282158415148476  0.10206277381752933  0.9738395520928906  1.0000
  O   O48       1.0  0.10653595216200525  0.8769548048492197  0.9193415432510008  1.0000
  O   O49       1.0  0.9296601332381089  0.0192822363809526  0.9175267856631208  1.0000
  O   O50       1.0  0.10042872648783455  0.8161501748280455  0.9815043266454283  1.0000
  O   O51       1.0  0.13863127432436076  0.0662184823622738  0.9655016513848479  1.0000
  O   O52       1.0  0.08591524112139842  0.05021300393693911  0.9142264339930295  1.0000
  F   F1        1.0  0.6703840480063973  0.7895334698635921  0.5934075919321844  1.0000
  F   F2        1.0  0.8164236451985831  0.959171586064194  0.6575776553589564  1.0000
  F   F3        1.0  0.1799247124449366  0.2749278471470546  0.3448921679769726  1.0000
  F   F4        1.0  0.31730011138537867  0.9650129576371712  0.4147395192545887  1.0000
  F   F5        1.0  0.3219036586484095  0.6002360478729827  0.7819624761871751  1.0000
  F   F6        1.0  0.18103440203250218  0.6520666094348895  0.9707470823572353  1.0000
  F   F7        1.0  0.5800704186157194  0.4580230073963206  0.16050068886447386  1.0000
  F   F8        1.0  0.9606719279943549  0.28952560640704667  0.09219269560205136  1.0000
