data_image0
_chemical_formula_structural       Mg4H36C12S4N4O28
_chemical_formula_sum              "Mg4 H36 C12 S4 N4 O28"
_cell_length_a       6.023686591009076
_cell_length_b       11.232301201010674
_cell_length_c       13.175161881025195
_cell_angle_alpha    90.00013389784691
_cell_angle_beta     89.99982082844814
_cell_angle_gamma    90.00008569874734

_space_group_name_H-M_alt    "P 1"
_space_group_IT_number       1

loop_
  _space_group_symop_operation_xyz
  'x, y, z'

loop_
  _atom_site_type_symbol
  _atom_site_label
  _atom_site_symmetry_multiplicity
  _atom_site_fract_x
  _atom_site_fract_y
  _atom_site_fract_z
  _atom_site_occupancy
  Mg  Mg1       1.0  0.5286840748417916  0.8355729697242394  0.9606611320132004  1.0000
  Mg  Mg2       1.0  0.9713108064847448  0.16442681772788603  0.4606594630339487  1.0000
  Mg  Mg3       1.0  0.4713113212192895  0.3355733096607453  0.5393390992185446  1.0000
  Mg  Mg4       1.0  0.028689195946896003  0.6644249121993226  0.03934133084636221  1.0000
  H   H1        1.0  0.42471008888446704  0.7580418015313769  0.7693465921654337  1.0000
  H   H2        1.0  0.0752871950799161  0.24195883484117792  0.2693471610604021  1.0000
  H   H3        1.0  0.5752884129451915  0.25804186256038253  0.730653485439241  1.0000
  H   H4        1.0  0.9247113617087879  0.7419590715348506  0.2306515094374504  1.0000
  H   H5        1.0  0.6806894530217562  0.7412172402944394  0.7885954918457614  1.0000
  H   H6        1.0  0.8193082652285569  0.25878296320981065  0.2885949861695991  1.0000
  H   H7        1.0  0.31930900226820574  0.24121793154043306  0.711405311426411  1.0000
  H   H8        1.0  0.18069199820621415  0.7587843257164338  0.21140523567233058  1.0000
  H   H9        1.0  0.5130452611835851  0.8691384513071299  0.16410625782206978  1.0000
  H   H10       1.0  0.9869533084878341  0.1308622993761617  0.6641066342152797  1.0000
  H   H11       1.0  0.4869536473907418  0.36913873095467403  0.3358934236803107  1.0000
  H   H12       1.0  0.013046501662714101  0.630861198543073  0.8358939503907122  1.0000
  H   H13       1.0  0.5392339047518746  0.9993352176574605  0.11087893860227639  1.0000
  H   H14       1.0  0.9607633688529588  0.0006662766095146999  0.6108775764549392  1.0000
  H   H15       1.0  0.46076536395260353  0.49933473254017013  0.3891217598821797  1.0000
  H   H16       1.0  0.039237741279002605  0.5006653436651263  0.8891227501726392  1.0000
  H   H17       1.0  0.5807345856170657  0.0159829590271343  0.8251295002579013  1.0000
  H   H18       1.0  0.9192662029904002  0.9840182354621233  0.32512952967956465  1.0000
  H   H19       1.0  0.4192599264323107  0.5159835234910375  0.6748708567251996  1.0000
  H   H20       1.0  0.0807380036875642  0.484017742779777  0.1748703794474693  1.0000
  H   H21       1.0  0.5935735854461727  0.0717553084013929  0.9393839299690684  1.0000
  H   H22       1.0  0.9064280818509829  0.9282444204113106  0.43938310823160254  1.0000
  H   H23       1.0  0.40642440110026  0.5717564378696737  0.5606165375225558  1.0000
  H   H24       1.0  0.09357597055072378  0.42824451350105613  0.0606174493867329  1.0000
  H   H25       1.0  0.9450912393052134  0.007552040601140698  0.8076820074680314  1.0000
  H   H26       1.0  0.5549129888558256  0.9924437640619601  0.3076802975369048  1.0000
  H   H27       1.0  0.054904909537448504  0.5075532487738172  0.6923183328090445  1.0000
  H   H28       1.0  0.4450929012437683  0.4924436141387715  0.1923188692801219  1.0000
  H   H29       1.0  0.1701086904659945  0.11435283064518129  0.9473712735472191  1.0000
  H   H30       1.0  0.3298906961582447  0.885647406101029  0.4473704768375697  1.0000
  H   H31       1.0  0.8298910740294685  0.6143542805693514  0.5526270013366812  1.0000
  H   H32       1.0  0.6701099181984348  0.38564527257035763  0.052626960361095605  1.0000
  H   H33       1.0  0.9129062239246083  0.14213243317678348  0.0099135978571354  1.0000
  H   H34       1.0  0.587093400322111  0.8578678925271958  0.5099137094934107  1.0000
  H   H35       1.0  0.087095376957663  0.6421327074982912  0.4900863928448942  1.0000
  H   H36       1.0  0.41290703775153775  0.35786764697801476  0.9900850479026458  1.0000
  C   C1        1.0  0.0092548417585903  0.8996076859324162  0.9334641780108655  1.0000
  C   C2        1.0  0.49074630010522213  0.10039073189972213  0.43345931834785034  1.0000
  C   C3        1.0  0.9907473718782639  0.399609411204203  0.566536939103294  1.0000
  C   C4        1.0  0.5092601656501331  0.60039107057284  0.06654210764935442  1.0000
  C   C5        1.0  0.8945289087161825  0.010172252894669501  0.8880066759621954  1.0000
  C   C6        1.0  0.6054697897431538  0.9898264440221424  0.3880048885514427  1.0000
  C   C7        1.0  0.10546558726099421  0.5101732805709034  0.6119936695077257  1.0000
  C   C8        1.0  0.39453277288545513  0.489824251245075  0.1119950320837901  1.0000
  C   C9        1.0  0.9906012949135462  0.12289280419307859  0.9362892376628551  1.0000
  C   C10       1.0  0.5093970733217789  0.8771069160894672  0.4362888822759032  1.0000
  C   C11       1.0  0.009396833086349  0.622894511387699  0.5637105721519688  1.0000
  C   C12       1.0  0.49060351741098884  0.3771064485076537  0.0637092970057864  1.0000
  S   S1        1.0  0.9507955516200325  0.25148342744054025  0.8582956649191117  1.0000
  S   S2        1.0  0.5492083303736949  0.7485160778832664  0.358296515824577  1.0000
  S   S3        1.0  0.049204592183002695  0.7514844915018983  0.641704399690255  1.0000
  S   S4        1.0  0.4507968850024612  0.248516683356975  0.1417029266657224  1.0000
  N   N1        1.0  0.650794415911527  0.0035145787417079  0.894832566197536  1.0000
  N   N2        1.0  0.8492042358592543  0.9964841369899415  0.39483196149221556  1.0000
  N   N3        1.0  0.3492000616515155  0.5035166750117952  0.6051677660815642  1.0000
  N   N4        1.0  0.15079834518842014  0.4964843991474055  0.10516797233736241  1.0000
  O   O1        1.0  0.8879772876894381  0.8142578110426443  0.9661932338764531  1.0000
  O   O2        1.0  0.6120192159227784  0.18574021107399113  0.4661883258311689  1.0000
  O   O3        1.0  0.11202136963247263  0.3142596257407959  0.5338092321312544  1.0000
  O   O4        1.0  0.38798250557767494  0.6857412517504784  0.033813269286334  1.0000
  O   O5        1.0  0.2173583022048931  0.899552570481326  0.9322655619339955  1.0000
  O   O6        1.0  0.28263122706647437  0.10044495375238678  0.4322602409324007  1.0000
  O   O7        1.0  0.7826322904887631  0.3995541307506017  0.5677355550790963  1.0000
  O   O8        1.0  0.7173685983974921  0.6004490251944148  0.0677396671727664  1.0000
  O   O9        1.0  0.06119445262455509  0.22387861593323777  0.7602997546726726  1.0000
  O   O10       1.0  0.43880455332029566  0.7761184343481843  0.2603008622246676  1.0000
  O   O11       1.0  0.9388039547087531  0.7238797792516393  0.7397002552403222  1.0000
  O   O12       1.0  0.5611940979546476  0.2761211797787624  0.2396993939692535  1.0000
  O   O13       1.0  0.7111284362840707  0.26942442735342803  0.8455969588308961  1.0000
  O   O14       1.0  0.7888738724538413  0.7305750429674802  0.34559591350139846  1.0000
  O   O15       1.0  0.28887009703493055  0.7694275008210028  0.6544031413309169  1.0000
  O   O16       1.0  0.2111279730687841  0.23057459932826427  0.1544034934409098  1.0000
  O   O17       1.0  0.061634038138684816  0.34983698583312156  0.9119572187737859  1.0000
  O   O18       1.0  0.4383722311349488  0.6501613727334288  0.41195883637342945  1.0000
  O   O19       1.0  0.9383630574886083  0.8498377308049001  0.5880437997246233  1.0000
  O   O20       1.0  0.5616327121808382  0.15016281023399358  0.0880419292403118  1.0000
  O   O21       1.0  0.536262837009744  0.7482576401495891  0.8239811255452523  1.0000
  O   O22       1.0  0.9637329791130326  0.2517435511725593  0.323981158422292  1.0000
  O   O23       1.0  0.46373397764541124  0.24825924095843274  0.6760189326752695  1.0000
  O   O24       1.0  0.03626892496174611  0.7517420284784395  0.17601829046336093  1.0000
  O   O25       1.0  0.5508894707241013  0.9123824124825504  0.101127920289251  1.0000
  O   O26       1.0  0.9491128499093051  0.0876190549113716  0.6011267470966715  1.0000
  O   O27       1.0  0.44911121757672134  0.41238283510416107  0.39887260590195683  1.0000
  O   O28       1.0  0.0508918209676921  0.5876172679751547  0.898872992816635  1.0000
