data_image0
_chemical_formula_structural       HgH20C20S2N6O6
_chemical_formula_sum              "Hg1 H20 C20 S2 N6 O6"
_cell_length_a       5.465281014658416
_cell_length_b       10.429435561865827
_cell_length_c       11.55457401443381
_cell_angle_alpha    72.48509211643079
_cell_angle_beta     75.17034151888913
_cell_angle_gamma    80.42174802063963

_space_group_name_H-M_alt    "P 1"
_space_group_IT_number       1

loop_
  _space_group_symop_operation_xyz
  'x, y, z'

loop_
  _atom_site_type_symbol
  _atom_site_label
  _atom_site_symmetry_multiplicity
  _atom_site_fract_x
  _atom_site_fract_y
  _atom_site_fract_z
  _atom_site_occupancy
  Hg  Hg1       1.0  5.2822308873787024e-06  0.9999975381918275  0.9999772292936059  1.0000
  H   H1        1.0  0.549416798278429  0.28560537488476  0.619754976426286  1.0000
  H   H2        1.0  0.450642949407836  0.7143586544755108  0.3802201438864047  1.0000
  H   H3        1.0  0.34572978851720393  0.41008036825569855  0.5547401104163114  1.0000
  H   H4        1.0  0.6543439802377192  0.5898962662917242  0.44525586566395964  1.0000
  H   H5        1.0  0.14994422388274842  0.26634659457083387  0.0333214537879911  1.0000
  H   H6        1.0  0.8499948856071238  0.7336489690205993  0.9666849016171997  1.0000
  H   H7        1.0  0.25696844145070935  0.6253469772389338  0.8586844270036024  1.0000
  H   H8        1.0  0.7429412485556879  0.37467105184209964  0.1413663816785161  1.0000
  H   H9        1.0  0.26030721133981427  0.5547724305331911  0.7367952080458481  1.0000
  H   H10       1.0  0.7396683807000028  0.4452394995267212  0.26325323439586873  1.0000
  H   H11       1.0  0.022087733103475598  0.5156348051311426  0.8764595413723272  1.0000
  H   H12       1.0  0.9778686241067263  0.48438009439167456  0.12355364537385338  1.0000
  H   H13       1.0  0.13401845236216303  0.2480643788482553  0.26112240913936097  1.0000
  H   H14       1.0  0.8659348929041781  0.7518929634868812  0.7389157598102757  1.0000
  H   H15       1.0  0.14434433699545215  0.38173546906430295  0.40383549298361743  1.0000
  H   H16       1.0  0.8557074611802662  0.618242185241826  0.5961693144383773  1.0000
  H   H17       1.0  0.8183062797381664  0.1331141499369153  0.4980719870893325  1.0000
  H   H18       1.0  0.18169566222380237  0.8668511685596557  0.5019292538622154  1.0000
  H   H19       1.0  0.8108628683056693  0.002217686298997998  0.35188014696586123  1.0000
  H   H20       1.0  0.1890869265458477  0.997711499023012  0.6481545205141188  1.0000
  C   C1        1.0  0.5782148682676718  0.22424623296923582  0.9878543425617182  1.0000
  C   C2        1.0  0.4217446451123834  0.7757423040566562  0.012141264001264949  1.0000
  C   C3        1.0  0.3350797964740763  0.297934550945044  0.9828137548736181  1.0000
  C   C4        1.0  0.6648850453341807  0.7020817790579131  0.017171388051011056  1.0000
  C   C5        1.0  0.3862833541396498  0.41521650034123075  0.8922583823104236  1.0000
  C   C6        1.0  0.6136830709498823  0.5848256155787367  0.1077847809789958  1.0000
  C   C7        1.0  0.22183244066155788  0.5344180274007612  0.8383403106622185  1.0000
  C   C8        1.0  0.7780949490493753  0.46558722882483033  0.16169094246978236  1.0000
  C   C9        1.0  0.4744021852409403  0.11906429125881599  0.2961461197225788  1.0000
  C   C10       1.0  0.5257274345032386  0.8809512403639205  0.7038249673560345  1.0000
  C   C11       1.0  0.28666994964383  0.22565420148305293  0.31090500740624805  1.0000
  C   C12       1.0  0.7133544133618556  0.7743387983834182  0.6890997508990396  1.0000
  C   C13       1.0  0.29158537239935356  0.29920100255972665  0.39222804432218794  1.0000
  C   C14       1.0  0.7084844074085479  0.7008168179809431  0.6077205561566502  1.0000
  C   C15       1.0  0.48290279753276616  0.266835880836119  0.4611093296128176  1.0000
  C   C16       1.0  0.5171639426366212  0.7331885902688313  0.5388466890353599  1.0000
  C   C17       1.0  0.6699838250147748  0.1588082891242024  0.445045187098586  1.0000
  C   C18       1.0  0.3301007765076207  0.8412418656733747  0.5549109198584149  1.0000
  C   C19       1.0  0.6669535516389188  0.08578911690683097  0.36331925344872945  1.0000
  C   C20       1.0  0.33310831044533246  0.9142100456579525  0.6366839020744309  1.0000
  S   S1        1.0  0.46590921577693206  0.025755068846542894  0.19395671610806894  1.0000
  S   S2        1.0  0.5340834583639306  0.9742320324581755  0.8060472853736231  1.0000
  N   N1        1.0  0.7649531342453455  0.2926150288974512  0.9076268899759015  1.0000
  N   N2        1.0  0.2349875186758652  0.7074009705640235  0.09237368551608684  1.0000
  N   N3        1.0  0.6427135726691446  0.09491075289702168  0.05758242783043949  1.0000
  N   N4        1.0  0.35721778812007415  0.9050673476493643  0.9423793101234424  1.0000
  N   N5        1.0  0.49711726258376376  0.341464054556937  0.5393714168206715  1.0000
  N   N6        1.0  0.5030068763217271  0.6585437541129124  0.4605881240742279  1.0000
  O   O1        1.0  0.6419250436477524  0.41458247038455903  0.845107523292569  1.0000
  O   O2        1.0  0.3580124038939089  0.5854492321375346  0.15492439702840952  1.0000
  O   O3        1.0  0.5924738203280456  0.891418330756565  0.23257945858469506  1.0000
  O   O4        1.0  0.40753731512354086  0.10859205411853878  0.7674103875163497  1.0000
  O   O5        1.0  0.20261076697590133  0.04022142679048809  0.18288342453021766  1.0000
  O   O6        1.0  0.7973207173541963  0.9597799178801478  0.8171240575177097  1.0000
