data_image0
_chemical_formula_structural       Zn2H16C40N8O12
_chemical_formula_sum              "Zn2 H16 C40 N8 O12"
_cell_length_a       13.188618235274586
_cell_length_b       14.48923301116756
_cell_length_c       23.68995539009815
_cell_angle_alpha    90.07770582751567
_cell_angle_beta     90.01377901961047
_cell_angle_gamma    91.25362863250727

_space_group_name_H-M_alt    "P 1"
_space_group_IT_number       1

loop_
  _space_group_symop_operation_xyz
  'x, y, z'

loop_
  _atom_site_type_symbol
  _atom_site_label
  _atom_site_symmetry_multiplicity
  _atom_site_fract_x
  _atom_site_fract_y
  _atom_site_fract_z
  _atom_site_occupancy
  Zn  Zn1       1.0  0.39457296774190814  0.49847289306537595  0.4987178346552739  1.0000
  Zn  Zn2       1.0  0.6053759266137461  0.5014897695068257  0.4993944419016216  1.0000
  H   H1        1.0  0.33321138830114444  0.5051823044271515  0.7829093282164193  1.0000
  H   H2        1.0  0.6642836211174484  0.49680248703631236  0.2143350347767523  1.0000
  H   H3        1.0  0.659019843149636  0.5021559600035629  0.7854302882876638  1.0000
  H   H4        1.0  0.33839179143454606  0.49677507373679214  0.21349241698609228  1.0000
  H   H5        1.0  0.3362782631401445  0.5030712671020224  0.6768930317844594  1.0000
  H   H6        1.0  0.6631021880215116  0.49808109355537067  0.3204011693254856  1.0000
  H   H7        1.0  0.6612967929173054  0.5002085765372115  0.6794342415347643  1.0000
  H   H8        1.0  0.3379743266947203  0.49781960775430895  0.3195361906972849  1.0000
  H   H9        1.0  0.616678883121864  0.791961708143276  0.0401410851801813  1.0000
  H   H10       1.0  0.5689442613476245  0.7394609720695939  0.10159586298215828  1.0000
  H   H11       1.0  0.43204016462303946  0.2606489713926052  0.8966244929692663  1.0000
  H   H12       1.0  0.44944744560127964  0.1946869453164339  0.9578590770235351  1.0000
  H   H13       1.0  0.3940946144091697  0.20385603165215832  0.0360814523762087  1.0000
  H   H14       1.0  0.441195344729401  0.2553441996840746  0.0981213130072192  1.0000
  H   H15       1.0  0.5670643739999478  0.7431960240536173  0.8998319520750114  1.0000
  H   H16       1.0  0.5601185421250393  0.8068460308133395  0.96291446861823  1.0000
  C   C1        1.0  0.5006628971600264  0.6805410983442001  0.4995641297856253  1.0000
  C   C2        1.0  0.49893234522046737  0.3194322964526464  0.4990289361687914  1.0000
  C   C3        1.0  0.5001783244241623  0.5002548893451788  0.608887393918458  1.0000
  C   C4        1.0  0.49995254399549793  0.4994551423241234  0.38923881493806084  1.0000
  C   C5        1.0  0.48299382700665927  0.41308874273457263  0.1198956877006268  1.0000
  C   C6        1.0  0.5214607957469397  0.5864141873425197  0.8782297445561937  1.0000
  C   C7        1.0  0.5219054163781892  0.5823463888896259  0.12102962830237371  1.0000
  C   C8        1.0  0.4704280685481733  0.41964399670913377  0.8771796202821136  1.0000
  C   C9        1.0  0.5223416265189088  0.5826713037588931  0.0593671567473493  1.0000
  C   C10       1.0  0.47313540878516847  0.4187488060536708  0.9388147023139625  1.0000
  C   C11       1.0  0.48126510944495493  0.4150780445165694  0.0582306528501064  1.0000
  C   C12       1.0  0.5231659806968167  0.5843924099202198  0.9398812711202567  1.0000
  C   C13       1.0  0.5006197310999242  0.49958113276686333  0.0290643164590634  1.0000
  C   C14       1.0  0.49874145883969584  0.5009767345231637  0.9691100037745812  1.0000
  C   C15       1.0  0.5465748731970947  0.6654721882380558  0.0305824902668519  1.0000
  C   C16       1.0  0.45372486442479243  0.33495380394391827  0.9675821357006525  1.0000
  C   C17       1.0  0.4582998317652809  0.3329965374621865  0.028278154905301296  1.0000
  C   C18       1.0  0.5475946435825988  0.6662219080270261  0.969816906765054  1.0000
  C   C19       1.0  0.40472423993235657  0.5044609215395326  0.7599095434009655  1.0000
  C   C20       1.0  0.5931844449205884  0.49674680768116275  0.2377594774179173  1.0000
  C   C21       1.0  0.5886776355937542  0.5023605363992658  0.7612872809221473  1.0000
  C   C22       1.0  0.40916457427094605  0.4969824756763188  0.23725679015333867  1.0000
  C   C23       1.0  0.4063759573515924  0.5031017150636002  0.7011761797128386  1.0000
  C   C24       1.0  0.5925648916737957  0.4975468736035253  0.2965059419045915  1.0000
  C   C25       1.0  0.5899885219935825  0.501363763117439  0.7025577117146398  1.0000
  C   C26       1.0  0.40887769026332427  0.4974905364190718  0.2960057919829993  1.0000
  C   C27       1.0  0.49887796899489695  0.5015233531345018  0.6721450475835056  1.0000
  C   C28       1.0  0.5004882317901577  0.4980451415185385  0.3259727065299032  1.0000
  C   C29       1.0  0.4960149485414648  0.503890931710238  0.7895463525178386  1.0000
  C   C30       1.0  0.5014264237664748  0.4967317058941205  0.20857348411501417  1.0000
  C   C31       1.0  0.5013502335453738  0.7802051924595687  0.49989487109984043  1.0000
  C   C32       1.0  0.49856026343563536  0.21978029695712561  0.4994816549926071  1.0000
  C   C33       1.0  0.5010049124967254  0.8648882177100958  0.5001559146976078  1.0000
  C   C34       1.0  0.4991183850278916  0.1351070741230842  0.49990444954037366  1.0000
  C   C35       1.0  0.5005039404472669  0.9574193470886955  0.5002861151372215  1.0000
  C   C36       1.0  0.49975542173609  0.0425831400281282  0.5002166332604148  1.0000
  C   C37       1.0  0.8512597950469286  0.5014855433138193  0.49935652345214276  1.0000
  C   C38       1.0  0.1487044697018334  0.4986948280939529  0.4994919314891817  1.0000
  C   C39       1.0  0.9535262313637746  0.500482858735495  0.4995227584196726  1.0000
  C   C40       1.0  0.0464427645107932  0.49970086356118065  0.49959121022853736  1.0000
  N   N1        1.0  0.5018901971668869  0.4973728588076582  0.14756234517791708  1.0000
  N   N2        1.0  0.49515569888112054  0.5036101259935251  0.8505545311470613  1.0000
  N   N3        1.0  0.7626706381450746  0.5025020500249155  0.499197257787408  1.0000
  N   N4        1.0  0.23729385289148303  0.4976299460771685  0.499316877832399  1.0000
  N   N5        1.0  0.5673473809732458  0.7463905120535942  0.0583711629270098  1.0000
  N   N6        1.0  0.4288318559835105  0.25490551594786837  0.9398909097725364  1.0000
  N   N7        1.0  0.4418749584534822  0.250363178848211  0.0547851839162234  1.0000
  N   N8        1.0  0.5741384138102533  0.7464751430606712  0.9430639359588397  1.0000
  O   O1        1.0  0.41365609064754244  0.6406467647761716  0.49894426951659915  1.0000
  O   O2        1.0  0.5858711751001664  0.35950539909040913  0.4990147711578173  1.0000
  O   O3        1.0  0.41252615029823403  0.35698225115035603  0.49871233113633906  1.0000
  O   O4        1.0  0.5869839127440032  0.642790366434049  0.4999301211201939  1.0000
  O   O5        1.0  0.4144873202953008  0.49908659979755754  0.5839045448477407  1.0000
  O   O6        1.0  0.5858083759579884  0.5013326638771858  0.414027914914861  1.0000
  O   O7        1.0  0.41361603937122743  0.4986944136413101  0.4134971257546383  1.0000
  O   O8        1.0  0.5866628897832484  0.500547993174159  0.584818616429871  1.0000
  O   O9        1.0  0.46870438387794167  0.34231883267362667  0.1489249437535065  1.0000
  O   O10       1.0  0.541503358813401  0.6561299058467682  0.8491765160085264  1.0000
  O   O11       1.0  0.5377923677725819  0.651924658456295  0.1510144916667713  1.0000
  O   O12       1.0  0.4484995040213705  0.3511980987682009  0.8472963951576703  1.0000
