data_image0
_chemical_formula_structural       Cu12H84C108N24
_chemical_formula_sum              "Cu12 H84 C108 N24"
_cell_length_a       28.046167246112805
_cell_length_b       29.20565529884775
_cell_length_c       30.40274564520818
_cell_angle_alpha    88.38706205410983
_cell_angle_beta     88.28757971872669
_cell_angle_gamma    85.0581623722374

_space_group_name_H-M_alt    "P 1"
_space_group_IT_number       1

loop_
  _space_group_symop_operation_xyz
  'x, y, z'

loop_
  _atom_site_type_symbol
  _atom_site_label
  _atom_site_symmetry_multiplicity
  _atom_site_fract_x
  _atom_site_fract_y
  _atom_site_fract_z
  _atom_site_occupancy
  Cu  Cu1       1.0  0.7566552234461026  0.2312676524871549  0.15756717640702078  1.0000
  Cu  Cu2       1.0  0.8305408529141901  0.23166578212379105  0.23335824589287307  1.0000
  Cu  Cu3       1.0  0.7656083202165789  0.14829730346615116  0.22814924098326364  1.0000
  Cu  Cu4       1.0  0.794127910639631  0.8031067582353871  0.8459509435349801  1.0000
  Cu  Cu5       1.0  0.8842555741185052  0.7943911470805458  0.7797522149211886  1.0000
  Cu  Cu6       1.0  0.8214487169837527  0.889020881385427  0.7887846402617311  1.0000
  Cu  Cu7       1.0  0.20495051975567694  0.21507635413623657  0.8349076066719049  1.0000
  Cu  Cu8       1.0  0.12348838039968509  0.2023347412283272  0.7685201877788328  1.0000
  Cu  Cu9       1.0  0.2160983628862709  0.13156162019192408  0.7698408231518812  1.0000
  Cu  Cu10      1.0  0.22409790326802434  0.762883743446366  0.136916687969709  1.0000
  Cu  Cu11      1.0  0.1550622683253025  0.7456800733050741  0.2183343079697621  1.0000
  Cu  Cu12      1.0  0.2262354929692306  0.8240957551530314  0.2224490618334016  1.0000
  H   H1        1.0  0.7937919455208301  0.31014347713622936  0.09349685207067887  1.0000
  H   H2        1.0  0.8886930322938866  0.31532153340495467  0.2028287219717767  1.0000
  H   H3        1.0  0.6853796924733332  0.0877476094409744  0.19454709947935095  1.0000
  H   H4        1.0  0.6693576449316652  0.20480692537637418  0.10380259448218958  1.0000
  H   H5        1.0  0.8929969432760599  0.20037292779542068  0.3147455091431865  1.0000
  H   H6        1.0  0.8139626670823858  0.0805613526912552  0.30176120690261127  1.0000
  H   H7        1.0  0.8173855248581674  0.7150050055744258  0.9075024519684189  1.0000
  H   H8        1.0  0.9390102608639739  0.7025906430311651  0.8160439970789  1.0000
  H   H9        1.0  0.7448297580475582  0.9656912748378373  0.826967251312574  1.0000
  H   H10       1.0  0.6946935730621532  0.842789611531792  0.8893563472987082  1.0000
  H   H11       1.0  0.9471436453538117  0.8161331239651516  0.693480345927071  1.0000
  H   H12       1.0  0.8711831342793915  0.9494282549447346  0.7155440277301679  1.0000
  H   H13       1.0  0.16532369298510474  0.3086243163918425  0.8790677885054946  1.0000
  H   H14       1.0  0.0437939092864355  0.2784251042629933  0.8034640894239968  1.0000
  H   H15       1.0  0.3001080914776466  0.06867092600068499  0.814665266911355  1.0000
  H   H16       1.0  0.2836787309080151  0.18219146036019399  0.9041481870519659  1.0000
  H   H17       1.0  0.0681078527467136  0.16324770062702496  0.6901098727427382  1.0000
  H   H18       1.0  0.2000488451244919  0.074438515208918  0.6849487895639894  1.0000
  H   H19       1.0  0.19247808112063317  0.6879334471504703  0.0712635348725428  1.0000
  H   H20       1.0  0.10564186260302927  0.6590513375234366  0.18737470384233026  1.0000
  H   H21       1.0  0.30497841847900287  0.8911237418470889  0.19143412742509006  1.0000
  H   H22       1.0  0.29970901078095846  0.8092978167554961  0.07527833122939138  1.0000
  H   H23       1.0  0.08450158332401257  0.773257767228678  0.29812737831338143  1.0000
  H   H24       1.0  0.18885775174662459  0.8728820050913341  0.3104007495016673  1.0000
  H   H25       1.0  0.9188407102711834  0.0038868758120997994  0.5029532420226133  1.0000
  H   H26       1.0  0.06571778604306637  0.9595657605873597  0.5330194670720443  1.0000
  H   H27       1.0  0.011514157254616499  0.09603817998016947  0.4891081507225222  1.0000
  H   H28       1.0  0.015359735884381115  0.9968444349926455  0.40289699006383717  1.0000
  H   H29       1.0  0.9887442397610116  0.4965876656399644  0.0991080058246965  1.0000
  H   H30       1.0  0.03745111014686129  0.5363775629406221  0.9683063693709072  1.0000
  H   H31       1.0  0.8925065100831305  0.5112317679990568  0.009426171250765886  1.0000
  H   H32       1.0  0.9904304066157721  0.40353873976064136  0.0064804972236345  1.0000
  H   H33       1.0  0.47564417042079293  0.1016414049500156  0.015886827010227495  1.0000
  H   H34       1.0  0.4557692897895365  0.9633815469823616  0.9764344468042196  1.0000
  H   H35       1.0  0.48578950774908236  0.0038923823692300977  0.10803002354721508  1.0000
  H   H36       1.0  0.5891492991878309  0.009350740270058099  0.018321340015077684  1.0000
  H   H37       1.0  0.9323326950780026  0.3695162426237886  0.15653311036958678  1.0000
  H   H38       1.0  0.980333409388116  0.4151459753497804  0.1081151568203325  1.0000
  H   H39       1.0  0.8628516329220516  0.3712431219610082  0.08008494528089469  1.0000
  H   H40       1.0  0.888995863267425  0.4415003398732863  0.05646567072550109  1.0000
  H   H41       1.0  0.974077992047235  0.6407882338768259  0.8687509835665137  1.0000
  H   H42       1.0  0.007601887321818892  0.583456316416509  0.9202537778980895  1.0000
  H   H43       1.0  0.882977876824981  0.643841444776271  0.9278380971676936  1.0000
  H   H44       1.0  0.903758349941768  0.5742238395557777  0.9526607571545396  1.0000
  H   H45       1.0  0.11400933801093058  0.3867301493146655  0.8953979962168288  1.0000
  H   H46       1.0  0.006592271758442791  0.3981641264800473  0.9251282006108708  1.0000
  H   H47       1.0  0.023172048961356495  0.3416445381243705  0.8714599668396373  1.0000
  H   H48       1.0  0.0879547786765045  0.4591410467274101  0.942466568547722  1.0000
  H   H49       1.0  0.09449426554773767  0.5867056751566225  0.15191558468650607  1.0000
  H   H50       1.0  0.0555435119993604  0.5287565249616363  0.11934159980660297  1.0000
  H   H51       1.0  0.1245971653780842  0.6225010319194337  0.060092716440514886  1.0000
  H   H52       1.0  0.06646647004540537  0.5778472177725932  0.029223881367826693  1.0000
  H   H53       1.0  0.6081476183050827  0.1626450326864557  0.06706019959246849  1.0000
  H   H54       1.0  0.5627262679011338  0.11380031225198187  0.023802382645065706  1.0000
  H   H55       1.0  0.6197670535202278  0.07906733323802939  0.13079663791228305  1.0000
  H   H56       1.0  0.5469629422093191  0.058215372637818105  0.10960118352600287  1.0000
  H   H57       1.0  0.35620380482893665  0.864030747750121  0.039314662803001006  1.0000
  H   H58       1.0  0.4075588199700491  0.9180492150470766  0.005698092657652916  1.0000
  H   H59       1.0  0.36406565457407675  0.9169029348022872  0.12451421198376518  1.0000
  H   H60       1.0  0.43034895201729745  0.9419492395736808  0.1003402721841908  1.0000
  H   H61       1.0  0.6167193538348312  0.8948908138912373  0.9079426203655173  1.0000
  H   H62       1.0  0.604561008773345  0.9958708897472375  0.9391873473872179  1.0000
  H   H63       1.0  0.6700834072924027  0.9815988971232201  0.8891352775897089  1.0000
  H   H64       1.0  0.5379101078901272  0.9178708592161867  0.9524956574303898  1.0000
  H   H65       1.0  0.3556493816966224  0.028660629598739697  0.8723629099149405  1.0000
  H   H66       1.0  0.40830867463326104  0.9931716886010801  0.9277354753472196  1.0000
  H   H67       1.0  0.34888878820272146  0.11382634659359779  0.9301658834965423  1.0000
  H   H68       1.0  0.4170820005632976  0.09198450341749262  0.9572267884018897  1.0000
  H   H69       1.0  0.9453942364624554  0.15224752671241495  0.3641496233265684  1.0000
  H   H70       1.0  0.9989883275883925  0.10293674865599908  0.40979258573580774  1.0000
  H   H71       1.0  0.8836609690538493  0.0701792690608585  0.3649903566102636  1.0000
  H   H72       1.0  0.9113323142154712  0.0505119768519933  0.4351462013345396  1.0000
  H   H73       1.0  0.15826905474717995  0.02954141468880069  0.627527198735187  1.0000
  H   H74       1.0  0.11142923347127719  0.9904161618939182  0.5750502911240503  1.0000
  H   H75       1.0  0.07251536341478729  0.10239311774348889  0.6233579428203271  1.0000
  H   H76       1.0  0.07141765059252239  0.0889353075169126  0.5503797312678456  1.0000
  H   H77       1.0  0.14603327868546498  0.8848887318102783  0.39088701392997643  1.0000
  H   H78       1.0  0.03619149606937097  0.9086346352446171  0.4029624622774648  1.0000
  H   H79       1.0  0.05631302850279239  0.8487751714493467  0.3527759042746652  1.0000
  H   H80       1.0  0.11858473567201601  0.9344685729198259  0.45952933298860893  1.0000
  H   H81       1.0  0.9995062431738615  0.8608416751844459  0.6357932183629058  1.0000
  H   H82       1.0  0.03813113430082637  0.9094593106466745  0.578793991585634  1.0000
  H   H83       1.0  0.9297957354800771  0.9476532759953926  0.6427405385269649  1.0000
  H   H84       1.0  0.9341877663400878  0.9505081386050946  0.568609881166793  1.0000
  C   C1        1.0  0.8129354709463428  0.30575649197015753  0.12404910221871998  1.0000
  C   C2        1.0  0.8521130065997582  0.3282754270236338  0.1377276825241367  1.0000
  C   C3        1.0  0.8615524077548145  0.3085681843826009  0.17973804851984448  1.0000
  C   C4        1.0  0.6875940453490585  0.11975721686862069  0.1758389787282653  1.0000
  C   C5        1.0  0.6608442571416687  0.13685080304243505  0.13958849390196795  1.0000
  C   C6        1.0  0.6791214809156897  0.17944944857902811  0.12945557757862494  1.0000
  C   C7        1.0  0.8693199553912975  0.17474543867748335  0.3061105868156203  1.0000
  C   C8        1.0  0.8658819623076254  0.1298122535239798  0.3232603440667105  1.0000
  C   C9        1.0  0.8287405479603863  0.11373055062066578  0.2994027410359407  1.0000
  C   C10       1.0  0.8437814858855078  0.7183447025387365  0.8810148828983626  1.0000
  C   C11       1.0  0.8870642393949523  0.6913347357010408  0.8729666404266324  1.0000
  C   C12       1.0  0.9061055987689739  0.7119105517607379  0.8345674802197606  1.0000
  C   C13       1.0  0.7389042028293319  0.9311652756450213  0.8388327863175248  1.0000
  C   C14       1.0  0.7019327571216393  0.9163275470930043  0.8666512453739939  1.0000
  C   C15       1.0  0.7127922864867812  0.8683605529118451  0.8702198237342671  1.0000
  C   C16       1.0  0.9249069330105186  0.8458343266615669  0.7050974577711739  1.0000
  C   C17       1.0  0.9206211102261505  0.8914205625620896  0.6882740886618988  1.0000
  C   C18       1.0  0.8857588053196466  0.9137570920691827  0.7163588056015157  1.0000
  C   C19       1.0  0.14053115823877244  0.2958664974565082  0.8565730832456919  1.0000
  C   C20       1.0  0.09202105633720242  0.3104129992009204  0.849841424702049  1.0000
  C   C21       1.0  0.07825946308312129  0.2798632743842973  0.8184867294345889  1.0000
  C   C22       1.0  0.29043962014586094  0.10014811933632468  0.832153552923003  1.0000
  C   C23       1.0  0.30738530563554894  0.11505587346545097  0.8720588892884888  1.0000
  C   C24       1.0  0.2819912888256653  0.1583431120106695  0.877594190126018  1.0000
  C   C25       1.0  0.1031293412156487  0.14521339159845326  0.6949627399124905  1.0000
  C   C26       1.0  0.1263329937478019  0.1086735166598203  0.6711345184192863  1.0000
  C   C27       1.0  0.1703153565719973  0.09959011567397617  0.6922784447748852  1.0000
  C   C28       1.0  0.17453447624267682  0.6867031990147295  0.1033466185208241  1.0000
  C   C29       1.0  0.14069516570721421  0.6569372717517435  0.1193482598130871  1.0000
  C   C30       1.0  0.1306610814711391  0.6713891607506566  0.16279979849647927  1.0000
  C   C31       1.0  0.2980213195257377  0.8666583690365995  0.16665709184874083  1.0000
  C   C32       1.0  0.31778647477680977  0.8622584532916165  0.12367999448774468  1.0000
  C   C33       1.0  0.2954352949842587  0.825120869834741  0.10717038964229889  1.0000
  C   C34       1.0  0.1146993444844071  0.7941556518939447  0.2953641830324756  1.0000
  C   C35       1.0  0.12489587811891309  0.8314154557185772  0.32085575600626726  1.0000
  C   C36       1.0  0.16848998647072483  0.8444596961684565  0.3022887061720353  1.0000
  C   C37       1.0  0.9819978313300624  0.031213504489933496  0.4643667397933129  1.0000
  C   C38       1.0  0.9577677434618935  0.001990197029463999  0.4994668845952787  1.0000
  C   C39       1.0  0.9880288069757482  0.9753510687858834  0.5252456754038022  1.0000
  C   C40       1.0  0.040870783185802416  0.9810902119992587  0.512582808389574  1.0000
  C   C41       1.0  0.015471018837026002  0.0585944983580617  0.49049926698658197  1.0000
  C   C42       1.0  0.045822317004933694  0.032849775851815394  0.5168728116173611  1.0000
  C   C43       1.0  0.015947678360411967  0.9966740559655705  0.4386787367989128  1.0000
  C   C44       1.0  0.04673350163375999  0.9700466158152565  0.4635916415784037  1.0000
  C   C45       1.0  0.9579401010713013  0.4697079027134805  0.03756594547804328  1.0000
  C   C46       1.0  0.9921112579984096  0.49652211425787124  0.0633661022116172  1.0000
  C   C47       1.0  0.0215495917957611  0.5215525706222621  0.038445982685111284  1.0000
  C   C48       1.0  0.01354445122710499  0.5165597055020328  0.988923318209977  1.0000
  C   C49       1.0  0.9315068335185401  0.5063826946735404  0.008298732919797694  1.0000
  C   C50       1.0  0.9600675691551287  0.5312516543614619  0.9820316359047252  1.0000
  C   C51       1.0  0.9906157799178102  0.44079239239721346  0.005440488381680094  1.0000
  C   C52       1.0  0.01956733066518271  0.46494398442668217  0.9793403852328805  1.0000
  C   C53       1.0  0.5170425095045204  0.03854389917841419  0.046734496122823495  1.0000
  C   C54       1.0  0.4814307896045733  0.06429132168242549  0.015557567589553399  1.0000
  C   C55       1.0  0.4584395982515233  0.037133862904404694  0.9893421809294407  1.0000
  C   C56       1.0  0.47383483131559956  0.9857598626193395  0.997536914592082  1.0000
  C   C57       1.0  0.4876592709332712  0.004308399403804199  0.07214965104432738  1.0000
  C   C58       1.0  0.4641190855257094  0.9766072130167912  0.0469379580254312  1.0000
  C   C59       1.0  0.5505958825048866  0.008317710761076598  0.016301345008820096  1.0000
  C   C60       1.0  0.5284679773961614  0.9810922302293787  0.9898263827482124  1.0000
  C   C61       1.0  0.8770486048158547  0.36192133645867836  0.11256997082623599  1.0000
  C   C62       1.0  0.9168380883423026  0.38081151153105713  0.12502194320192217  1.0000
  C   C63       1.0  0.942965982044157  0.4134627162381932  0.09917441316486729  1.0000
  C   C64       1.0  0.926494323472461  0.440943874040002  0.06558397246114818  1.0000
  C   C65       1.0  0.9061734267769735  0.653164547679687  0.9000232243671318  1.0000
  C   C66       1.0  0.9500110802422626  0.6297485504729251  0.895212839346861  1.0000
  C   C67       1.0  0.9689580081099862  0.5921544133653853  0.9232049569683551  1.0000
  C   C68       1.0  0.9427536656583513  0.5671091410313593  0.9519848381790155  1.0000
  C   C69       1.0  0.06167938760469129  0.34533816654498384  0.8721566164049503  1.0000
  C   C70       1.0  0.07602365151667807  0.38056642030051074  0.8954728001346409  1.0000
  C   C71       1.0  0.04323200109752887  0.4085249937178617  0.9225354877102275  1.0000
  C   C72       1.0  0.053126028243184485  0.4449670177844212  0.9466627928287961  1.0000
  C   C73       1.0  0.1200007307025857  0.6214283887509351  0.09597239100353509  1.0000
  C   C74       1.0  0.09509074697706411  0.5882371827003039  0.11587107920878742  1.0000
  C   C75       1.0  0.06814373642801291  0.5547424799550312  0.0961896293253659  1.0000
  C   C76       1.0  0.05422871891050108  0.5529318053570549  0.05370366845808411  1.0000
  C   C77       1.0  0.6253906492396553  0.11349230609992125  0.11760012448152679  1.0000
  C   C78       1.0  0.6009527115868424  0.1291669540528062  0.08163161954730208  1.0000
  C   C79       1.0  0.5677640635419222  0.1035719049262909  0.0584510968520036  1.0000
  C   C80       1.0  0.5442358470089842  0.0682004215231444  0.0747444169212272  1.0000
  C   C81       1.0  0.3522344890030737  0.8906666620618395  0.1033192638637317  1.0000
  C   C82       1.0  0.36990873473332897  0.8886695241453211  0.0611803458169931  1.0000
  C   C83       1.0  0.40449866568399523  0.9176658534525046  0.0416423750830219  1.0000
  C   C84       1.0  0.4323894990203955  0.9442557774672479  0.06432672942900547  1.0000
  C   C85       1.0  0.6644962623218191  0.9449729731847611  0.8883859000938867  1.0000
  C   C86       1.0  0.6245348324144189  0.9309158870993528  0.9093683240393913  1.0000
  C   C87       1.0  0.5933302836012757  0.9611718573629773  0.9356306412998662  1.0000
  C   C88       1.0  0.5526032484276584  0.9507666651863145  0.9578709205373028  1.0000
  C   C89       1.0  0.34174209705997066  0.09322510389000631  0.9019781392332006  1.0000
  C   C90       1.0  0.3646988731245884  0.0504172750951426  0.8990866140224296  1.0000
  C   C91       1.0  0.4000698097625985  0.030380400919241896  0.9292011049667648  1.0000
  C   C92       1.0  0.42389679386293727  0.0544906887998167  0.957932346405485  1.0000
  C   C93       1.0  0.8942518796778812  0.1045246857947788  0.3561511035611104  1.0000
  C   C94       1.0  0.9331479504651058  0.11912616412883638  0.3751388195559428  1.0000
  C   C95       1.0  0.9621224234414925  0.0935351123443127  0.4077780400014745  1.0000
  C   C96       1.0  0.9483712476590681  0.059635145041958985  0.43504344210392526  1.0000
  C   C97       1.0  0.1070144488142759  0.08668433451301638  0.6345754888878118  1.0000
  C   C98       1.0  0.12591007367380064  0.04799907434924931  0.6144334529275923  1.0000
  C   C99       1.0  0.1041540038024706  0.0276034639606948  0.5781086973055237  1.0000
  C   C100      1.0  0.07490461412657372  0.05137154443438869  0.5488527730274837  1.0000
  C   C101      1.0  0.09453037235523708  0.8534996453611186  0.35460155157302603  1.0000
  C   C102      1.0  0.10796247074205917  0.8812163159350064  0.386386738652014  1.0000
  C   C103      1.0  0.07354964152803227  0.9086146436801598  0.4125264542441727  1.0000
  C   C104      1.0  0.08261079772363186  0.9361833326808762  0.44609768169932806  1.0000
  C   C105      1.0  0.9440147308387523  0.9124984257247349  0.651036155013564  1.0000
  C   C106      1.0  0.9815143228492715  0.8941769819947253  0.6260561367695701  1.0000
  C   C107      1.0  0.00020815041000331953  0.9172399382218326  0.5873796810496755  1.0000
  C   C108      1.0  0.9728214523758254  0.9471529702820549  0.5614727343992525  1.0000
  N   N1        1.0  0.830626705758611  0.2768147029904711  0.18979249880527496  1.0000
  N   N2        1.0  0.8003000266032316  0.27505114846039197  0.15525462661152284  1.0000
  N   N3        1.0  0.714055959475658  0.18662255482422543  0.15724363933527735  1.0000
  N   N4        1.0  0.719310452190939  0.14959937748430716  0.18621843702526056  1.0000
  N   N5        1.0  0.8117452186418107  0.14633367154353746  0.2702795389604731  1.0000
  N   N6        1.0  0.8370675978462714  0.18420059178711767  0.2745055397647818  1.0000
  N   N7        1.0  0.876597324351863  0.7482212780445677  0.8213506998200159  1.0000
  N   N8        1.0  0.837750383405307  0.7522341619812494  0.8501791017416733  1.0000
  N   N9        1.0  0.7529617298700585  0.8559886455453591  0.8465341667184844  1.0000
  N   N10       1.0  0.7690372584832161  0.8950067866565374  0.8267921344770028  1.0000
  N   N11       1.0  0.8707033884120748  0.8839990549317989  0.7473043057948628  1.0000
  N   N12       1.0  0.8950738135158647  0.8417689505063278  0.7402949744735138  1.0000
  N   N13       1.0  0.1155675466436321  0.2498511044759084  0.8074253971842109  1.0000
  N   N14       1.0  0.15419215676145367  0.25957986568332814  0.8313787468154955  1.0000
  N   N15       1.0  0.2524035052626274  0.16826715247768217  0.8439138017045095  1.0000
  N   N16       1.0  0.25760994037742085  0.1319911621197818  0.8157235841949626  1.0000
  N   N17       1.0  0.1726337198697507  0.1282674548158553  0.7259360606916374  1.0000
  N   N18       1.0  0.1308839573962004  0.15669915827906064  0.7276113531552182  1.0000
  N   N19       1.0  0.15648930580499607  0.7066430431429394  0.17158763292906798  1.0000
  N   N20       1.0  0.18396470778640858  0.7161232315871686  0.1347223245949607  1.0000
  N   N21       1.0  0.2649570882531194  0.809136589784579  0.13785116896418256  1.0000
  N   N22       1.0  0.2665990207156241  0.8348838546168196  0.17493824319994636  1.0000
  N   N23       1.0  0.18271482816290777  0.817213081472204  0.2684676341597623  1.0000
  N   N24       1.0  0.14947907897280996  0.7856551901869152  0.264428783173443  1.0000
