data_image0
_chemical_formula_structural       Zn2H22C60N2O44
_chemical_formula_sum              "Zn2 H22 C60 N2 O44"
_cell_length_a       10.619976200500464
_cell_length_b       14.509556583516899
_cell_length_c       14.860129827825068
_cell_angle_alpha    91.78511942634435
_cell_angle_beta     93.27491386023756
_cell_angle_gamma    91.01941530489711

_space_group_name_H-M_alt    "P 1"
_space_group_IT_number       1

loop_
  _space_group_symop_operation_xyz
  'x, y, z'

loop_
  _atom_site_type_symbol
  _atom_site_label
  _atom_site_symmetry_multiplicity
  _atom_site_fract_x
  _atom_site_fract_y
  _atom_site_fract_z
  _atom_site_occupancy
  Zn  Zn1       1.0  0.489240577175643  0.6125974255173503  0.5073995259565791  1.0000
  Zn  Zn2       1.0  0.49360057812899083  0.4007007312398729  0.4992456852857501  1.0000
  H   H1        1.0  0.10589287582087792  0.523536553485762  0.3983569363927444  1.0000
  H   H2        1.0  0.061232507519136385  0.5171972249877186  0.1736485833197392  1.0000
  H   H3        1.0  0.1563765780828419  0.28868143700405813  0.7748202587334277  1.0000
  H   H4        1.0  0.917596078496672  0.3848677867512579  0.20803995445585605  1.0000
  H   H5        1.0  0.1780526500794437  0.2526677251978882  0.14465790041772664  1.0000
  H   H6        1.0  0.9618529872585597  0.4260226355059587  0.8582582668038229  1.0000
  H   H7        1.0  0.7403594086544559  0.6776828473458849  0.6615415668971565  1.0000
  H   H8        1.0  0.3716689022548679  0.29714751893713043  0.22822004013987396  1.0000
  H   H9        1.0  0.2422875035878818  0.6336374055327527  0.3528337165010242  1.0000
  H   H10       1.0  0.6410254711341281  0.2967123901775892  0.7311111068863099  1.0000
  H   H11       1.0  0.0890043629523944  0.8863585815840055  0.22946859655991153  1.0000
  H   H12       1.0  0.887985460375063  0.44651073057302426  0.6653296594381927  1.0000
  H   H13       1.0  0.9434753145301968  0.15820211640879484  0.5070502818687146  1.0000
  H   H14       1.0  0.8932654221553663  0.8729657516269145  0.718917149586126  1.0000
  H   H15       1.0  0.04676848249769711  0.1398698299516852  0.3162071920751188  1.0000
  H   H16       1.0  0.3414958674370041  0.45484547625179067  0.7555994239276842  1.0000
  H   H17       1.0  0.6710553665716361  0.5200922959813923  0.25248986080393376  1.0000
  H   H18       1.0  0.9592578014441387  0.7661306485861631  0.41091212084972994  1.0000
  H   H19       1.0  0.0005243855045762011  0.20866146182112294  0.6611916505601343  1.0000
  H   H20       1.0  0.23704241037760454  0.6560089136287388  0.7392299232526297  1.0000
  H   H21       1.0  0.8170892786494193  0.2722830556665201  0.3311253554951676  1.0000
  H   H22       1.0  0.8994687657621085  0.63782862291243  0.810951107433752  1.0000
  C   C1        1.0  0.46076189904254516  0.5145113503272256  0.3359554275300525  1.0000
  C   C2        1.0  0.7446260838567014  0.4986560105844333  0.984282808991999  1.0000
  C   C3        1.0  0.5527765843739303  0.81965252795613  0.5597559377848427  1.0000
  C   C4        1.0  0.4271609008367108  0.2019752874845864  0.4181286273442808  1.0000
  C   C5        1.0  0.3970523225477434  0.8100895708272519  0.4420943710314873  1.0000
  C   C6        1.0  0.5831055589599856  0.20412545154987777  0.5350090675407415  1.0000
  C   C7        1.0  0.3935125906559591  0.9074329427673077  0.43589076659208104  1.0000
  C   C8        1.0  0.5924456709993393  0.10758384274615912  0.5305278906013484  1.0000
  C   C9        1.0  0.573669981637984  0.9145400799549321  0.5478557279901111  1.0000
  C   C10       1.0  0.4103664478509543  0.10472918890541649  0.42039032432762713  1.0000
  C   C11       1.0  0.487586703130276  0.9597614637447406  0.4874739188076305  1.0000
  C   C12       1.0  0.5297320675207117  0.5205657032164694  0.6727095216970724  1.0000
  C   C13       1.0  0.4958832569914192  0.057281185536737715  0.4793656631377133  1.0000
  C   C14       1.0  0.3031082302864689  0.956100354379508  0.3792969849301784  1.0000
  C   C15       1.0  0.6940886518934376  0.05838269340111419  0.5742714850379187  1.0000
  C   C16       1.0  0.683210397023295  0.9653416824991438  0.5862155569565175  1.0000
  C   C17       1.0  0.3126025559328625  0.05040902167949921  0.3702423256137735  1.0000
  C   C18       1.0  0.7313977053423883  0.505311691949693  0.4966241926888629  1.0000
  C   C19       1.0  0.26489909323730393  0.46605182343054  0.5406879398119955  1.0000
  C   C20       1.0  0.9783575399704603  0.5758874745554294  0.5143564342964098  1.0000
  C   C21       1.0  0.019265873274534304  0.3950723321018971  0.5526376279726007  1.0000
  C   C22       1.0  0.0437381144376587  0.5403189595331455  0.6044269995959226  1.0000
  C   C23       1.0  0.5159366919747015  0.47832349492863097  0.9568895885607632  1.0000
  C   C24       1.0  0.9567129467523827  0.4292157209616363  0.4606066089195835  1.0000
  C   C25       1.0  0.05734206883133201  0.506907327508671  0.4585275196030096  1.0000
  C   C26       1.0  0.9381905332218852  0.4639204997398849  0.606139449834032  1.0000
  C   C27       1.0  0.1253814701451148  0.47282450311369223  0.5468681371173005  1.0000
  C   C28       1.0  0.871665311911485  0.49787507135892645  0.5153662541774366  1.0000
  C   C29       1.0  0.6369674108377837  0.5277886189483425  0.8315361697369568  1.0000
  C   C30       1.0  0.363682760605208  0.4822684655072961  0.1766356716971487  1.0000
  C   C31       1.0  0.530264618726875  0.5088840208720812  0.7729315074072931  1.0000
  C   C32       1.0  0.4699225664603476  0.5033161491155056  0.2355053107678344  1.0000
  C   C33       1.0  0.4199117737145954  0.4718678724905558  0.8040960322006114  1.0000
  C   C34       1.0  0.5024102739383878  0.47572714621623646  0.0513538088300294  1.0000
  C   C35       1.0  0.590977190854467  0.5058442883975331  0.20451082092641573  1.0000
  C   C36       1.0  0.40905557086851735  0.4592042369737541  0.8962495836628789  1.0000
  C   C37       1.0  0.6086812130482783  0.49596295139273394  0.11206018350896581  1.0000
  C   C38       1.0  0.9821906393700675  0.6771883017754591  0.4992707428286565  1.0000
  C   C39       1.0  0.035379659608914  0.2964408838383648  0.5720051684298184  1.0000
  C   C40       1.0  0.08788928353440181  0.601814783318467  0.6830115761200091  1.0000
  C   C41       1.0  0.9239897756136913  0.36894975999808827  0.3797789659879456  1.0000
  C   C42       1.0  0.7433529918197905  0.5761806141163178  0.7915711712872167  1.0000
  C   C43       1.0  0.23793767948204456  0.5055755515721999  0.21012298592400921  1.0000
  C   C44       1.0  0.19911623020052363  0.3832091820623162  0.8617293368034495  1.0000
  C   C45       1.0  0.6344292370177698  0.5036668665463679  0.9231168589208423  1.0000
  C   C46       1.0  0.8421662193596121  0.48344494889644807  0.14100755551282165  1.0000
  C   C47       1.0  0.1954968873535776  0.34219281377091454  0.05258522862360591  1.0000
  C   C48       1.0  0.8738184367602315  0.48170321415395284  0.9525187399036668  1.0000
  C   C49       1.0  0.6140608916165818  0.7724655634610684  0.6401359777072174  1.0000
  C   C50       1.0  0.3564893590711051  0.2580381433672301  0.34797333457820667  1.0000
  C   C51       1.0  0.3292104509959657  0.7494585747370197  0.3699187807155369  1.0000
  C   C52       1.0  0.6571358430362153  0.2589435727059808  0.6094567362885144  1.0000
  C   C53       1.0  0.18727029608514556  0.9056200878951659  0.3386570477204032  1.0000
  C   C54       1.0  0.8235840761352194  0.10378066176091488  0.5841309975513198  1.0000
  C   C55       1.0  0.8034709017470337  0.9186551924401342  0.6174843591350836  1.0000
  C   C56       1.0  0.3819556580642498  0.4566841379103296  0.08522357658728912  1.0000
  C   C57       1.0  0.2132160873657156  0.09681649631028219  0.31117844931013383  1.0000
  C   C58       1.0  0.29879549153040597  0.4179657140315457  0.93141882488289  1.0000
  C   C59       1.0  0.7311089561295249  0.4974127243732553  0.0756428930036748  1.0000
  C   C60       1.0  0.28822094022050493  0.41176547152571896  0.023005434671993903  1.0000
  N   N1        1.0  0.4713590956866867  0.7681768416907675  0.5047859498358349  1.0000
  N   N2        1.0  0.5045360113913303  0.2497677081474237  0.4788577293072436  1.0000
  O   O1        1.0  0.4885971565316255  0.5929530715242282  0.3723844137773185  1.0000
  O   O2        1.0  0.9346364831232492  0.7009496547763449  0.4173242712195915  1.0000
  O   O3        1.0  0.0436786988148725  0.2373939216233509  0.5109784055399871  1.0000
  O   O4        1.0  0.0320922750714203  0.2746433279060128  0.6594480525836914  1.0000
  O   O5        1.0  0.020763215178611502  0.6373043100290446  0.7387541522218939  1.0000
  O   O6        1.0  0.21406948975086956  0.6130616352127378  0.6884299080355947  1.0000
  O   O7        1.0  0.9787528063604399  0.37652354993176107  0.309090032448232  1.0000
  O   O8        1.0  0.8328645474571629  0.30531534314445  0.3893319291510551  1.0000
  O   O9        1.0  0.7507520965150364  0.5773447702754098  0.708652056271923  1.0000
  O   O10       1.0  0.82621435476878  0.6219914475140839  0.8478525976889344  1.0000
  O   O11       1.0  0.22630461483947073  0.5414826310475505  0.2857239498277622  1.0000
  O   O12       1.0  0.5489403728244966  0.4460616445915305  0.6292915472368819  1.0000
  O   O13       1.0  0.1414918648377181  0.49213826380916  0.1503471229158109  1.0000
  O   O14       1.0  0.11546470157766463  0.43383414470712733  0.8328517650160236  1.0000
  O   O15       1.0  0.21975667948402128  0.2995547795508245  0.8257821044792166  1.0000
  O   O16       1.0  0.9040439166499468  0.5457614272772205  0.18175668309559262  1.0000
  O   O17       1.0  0.8578964110383824  0.393564592652517  0.15362973115593095  1.0000
  O   O18       1.0  0.1031207082112076  0.3132401703817608  0.0072310677227776  1.0000
  O   O19       1.0  0.2345400146604604  0.30472153815519215  0.1327562448532973  1.0000
  O   O20       1.0  0.9701052058012252  0.5060191951529731  0.9962578637542308  1.0000
  O   O21       1.0  0.8720601666693427  0.43160954429033194  0.8742555159035489  1.0000
  O   O22       1.0  0.5664468520960142  0.7791976210963015  0.7127480493205312  1.0000
  O   O23       1.0  0.4997489727238858  0.5982362698429355  0.6425100755428588  1.0000
  O   O24       1.0  0.716907115185954  0.7285354670575401  0.6189957516038403  1.0000
  O   O25       1.0  0.2514033362371748  0.28735286632203844  0.35795770503089136  1.0000
  O   O26       1.0  0.4239006709397586  0.26594828948189797  0.275094374065894  1.0000
  O   O27       1.0  0.3413597012816468  0.7656507698112734  0.29034854818876  1.0000
  O   O28       1.0  0.2635240592301002  0.6812038646237752  0.40223331675191804  1.0000
  O   O29       1.0  0.7583598731619929  0.2973528051610543  0.6019130761987411  1.0000
  O   O30       1.0  0.5952083978581868  0.255898177976924  0.6858876878552422  1.0000
  O   O31       1.0  0.1185851389041375  0.8588791872593189  0.38294477017621636  1.0000
  O   O32       1.0  0.16565204327660873  0.9213363500310122  0.2502210944568617  1.0000
  O   O33       1.0  0.8856079347060942  0.119116932129316  0.655988869252198  1.0000
  O   O34       1.0  0.4366648868284599  0.44021408335317597  0.3745532631633068  1.0000
  O   O35       1.0  0.8600303818440835  0.12162713682985782  0.5027136959995957  1.0000
  O   O36       1.0  0.8841375317378352  0.9022698615636531  0.5647062229303259  1.0000
  O   O37       1.0  0.8127892694725177  0.9038514288775021  0.7064948959209048  1.0000
  O   O38       1.0  0.2291508623082308  0.12471110997785224  0.23606257650374832  1.0000
  O   O39       1.0  0.1046315540435714  0.10304082736607971  0.3535402078603412  1.0000
  O   O40       1.0  0.6835019161158228  0.5835082342337473  0.5072632095600085  1.0000
  O   O41       1.0  0.3162580893139478  0.38755848935943493  0.5475376997514587  1.0000
  O   O42       1.0  0.31716253015151347  0.5406282367926637  0.5197795722811733  1.0000
  O   O43       1.0  0.6746507277821863  0.4299288640467863  0.4714623525147772  1.0000
  O   O44       1.0  0.0345855769102883  0.731113900316636  0.5547203490303474  1.0000
