data_image0
_chemical_formula_structural       H20Pb2C36N8O8
_chemical_formula_sum              "H20 Pb2 C36 N8 O8"
_cell_length_a       6.885708282757193
_cell_length_b       8.646589586644934
_cell_length_c       13.935245053357892
_cell_angle_alpha    101.39690016678082
_cell_angle_beta     99.84390653647887
_cell_angle_gamma    100.0667228782261

_space_group_name_H-M_alt    "P 1"
_space_group_IT_number       1

loop_
  _space_group_symop_operation_xyz
  'x, y, z'

loop_
  _atom_site_type_symbol
  _atom_site_label
  _atom_site_symmetry_multiplicity
  _atom_site_fract_x
  _atom_site_fract_y
  _atom_site_fract_z
  _atom_site_occupancy
  H   H1        1.0  0.48360690325437633  0.7930216604513022  0.16778223183997915  1.0000
  H   H2        1.0  0.5164469913468467  0.20727539781250934  0.8323001318536853  1.0000
  H   H3        1.0  0.37853749182476554  0.5653877853144069  0.5030877924303923  1.0000
  H   H4        1.0  0.6215881514114798  0.43464265187051876  0.4968097874755983  1.0000
  H   H5        1.0  0.20123387794773615  0.4182662532060207  0.17970580950026263  1.0000
  H   H6        1.0  0.7984505464896117  0.5816403093932653  0.8202111460649066  1.0000
  H   H7        1.0  0.9738952686503595  0.9597289432958792  0.7624841766222801  1.0000
  H   H8        1.0  0.026293404267612203  0.04023761423900401  0.2375304468593029  1.0000
  H   H9        1.0  0.39039211876458785  0.9403657909882669  0.3221262668996872  1.0000
  H   H10       1.0  0.60980184972469  0.0598804203138883  0.6779864787365  1.0000
  H   H11       1.0  0.2452836989815523  0.79209855549162  0.7665812355287613  1.0000
  H   H12       1.0  0.7550584816240689  0.20796586366149233  0.23338388431976403  1.0000
  H   H13       1.0  0.43911068764917627  0.41795223947507065  0.3361115381694121  1.0000
  H   H14       1.0  0.5608225222264381  0.5820558880329757  0.6637334637687928  1.0000
  H   H15       1.0  0.6037574862521495  0.9453018472822876  0.4915412314262682  1.0000
  H   H16       1.0  0.3965788078739862  0.054912063731720195  0.5085613644753337  1.0000
  H   H17       1.0  0.32758309151707016  0.09625446797956272  0.17219090342050694  1.0000
  H   H18       1.0  0.6720093266513559  0.9036028024644981  0.827816225590034  1.0000
  H   H19       1.0  0.2375590521937597  0.9726588147437739  0.9428949708086733  1.0000
  H   H20       1.0  0.7623223729549623  0.02732548675081151  0.057117810635432434  1.0000
  Pb  Pb1       1.0  0.7929242581076964  0.553994554658459  0.08584984848241112  1.0000
  Pb  Pb2       1.0  0.20657636496782325  0.44593200220065665  0.9141619511154317  1.0000
  C   C1        1.0  0.12340960538274716  0.6423694685939553  0.4319588872023203  1.0000
  C   C2        1.0  0.8765970369382217  0.35759523823819  0.5680080392369575  1.0000
  C   C3        1.0  5.3346103420978555e-05  0.6391605066088887  0.3390066420929188  1.0000
  C   C4        1.0  0.9998944014350285  0.3608243220915456  0.6609772877192697  1.0000
  C   C5        1.0  0.8329229668447339  0.7220948334904591  0.3363092351751504  1.0000
  C   C6        1.0  0.1671103643183685  0.27797604701034123  0.663696261686681  1.0000
  C   C7        1.0  0.5670894222413454  0.7971719327485547  0.24252311265943396  1.0000
  C   C8        1.0  0.4330099196358006  0.2030639061715221  0.7575409702082538  1.0000
  C   C9        1.0  0.7937787741456432  0.8042595947104162  0.42689847883342946  1.0000
  C   C10       1.0  0.2063279912244909  0.19581003108750392  0.5731309205476691  1.0000
  C   C11       1.0  0.920332178407918  0.8075130739433691  0.5224557675746483  1.0000
  C   C12       1.0  0.07972738102861143  0.19242019239710123  0.4775474871624539  1.0000
  C   C13       1.0  0.08132144492429214  0.7255873864843353  0.5249443013498265  1.0000
  C   C14       1.0  0.9187560764868721  0.2743725714194626  0.4750336747522894  1.0000
  C   C15       1.0  0.283835266940038  0.5614880964160636  0.4312281198361704  1.0000
  C   C16       1.0  0.7161848201608693  0.43850843184209515  0.568690116715409  1.0000
  C   C17       1.0  0.18503010681973106  0.48271948277549365  0.2523707267632531  1.0000
  C   C18       1.0  0.8147673849981343  0.5172155988319389  0.7475735991353574  1.0000
  C   C19       1.0  0.0005183094754457169  0.8887369565268344  0.6935872384754376  1.0000
  C   C20       1.0  0.9996460917594945  0.11123247875394779  0.3064156782075074  1.0000
  C   C21       1.0  0.5172994448009193  0.8805966160552078  0.328893417263572  1.0000
  C   C22       1.0  0.48288234060672863  0.11968390295711369  0.6712054144078293  1.0000
  C   C23       1.0  0.15488937474660253  0.8004694605459904  0.6960782318138357  1.0000
  C   C24       1.0  0.8453217727142787  0.19954440513926391  0.30390762913155106  1.0000
  C   C25       1.0  0.31608379814575466  0.48133327811780185  0.3410494758794584  1.0000
  C   C26       1.0  0.6838255208909062  0.5186273723651952  0.6588456777742381  1.0000
  C   C27       1.0  0.6320759139177029  0.8833600206585501  0.4211820783411895  1.0000
  C   C28       1.0  0.3681409158300326  0.11680844828069331  0.578894069145619  1.0000
  C   C29       1.0  0.4525994654258057  0.24800022028014734  0.07819162103676552  1.0000
  C   C30       1.0  0.5472484117390409  0.7518437384492602  0.921811439565893  1.0000
  C   C31       1.0  0.3312495869625778  0.09858636101316882  0.0944366922794231  1.0000
  C   C32       1.0  0.6685039777806524  0.9013232499939436  0.9055739591378112  1.0000
  C   C33       1.0  0.2317253188775085  0.9709578941692031  0.020419218641379192  1.0000
  C   C34       1.0  0.7681048358077973  0.028956760466932997  0.9795848170210348  1.0000
  C   C35       1.0  0.11064153370812604  0.8225203172524975  0.03833660813137394  1.0000
  C   C36       1.0  0.8893380101651474  0.17733006150121616  0.9616904346806905  1.0000
  N   N1        1.0  0.8830353775291256  0.8912333464529641  0.6077961926599471  1.0000
  N   N2        1.0  0.11702802326193051  0.10868762135779522  0.3922180315809598  1.0000
  N   N3        1.0  0.1964336839054823  0.7209251943263056  0.6128582022030287  1.0000
  N   N4        1.0  0.8037250107936983  0.2790555186643573  0.38711480282338323  1.0000
  N   N5        1.0  0.7195016744686883  0.7206224225328485  0.24654166135790942  1.0000
  N   N6        1.0  0.2805463906010032  0.27956952233815  0.75348606361581  1.0000
  N   N7        1.0  0.03268769147970836  0.5589411885151849  0.2516579050518573  1.0000
  N   N8        1.0  0.9671150282523726  0.44102153207482087  0.7483118687365007  1.0000
  O   O1        1.0  0.5565694784356197  0.3508172215619539  0.1572204078837984  1.0000
  O   O2        1.0  0.4433075842982533  0.6490712333942741  0.8427863878356235  1.0000
  O   O3        1.0  0.0821321678430068  0.822051247557532  0.12627090326478196  1.0000
  O   O4        1.0  0.9179367786899918  0.17780757924727916  0.8737560440638534  1.0000
  O   O5        1.0  0.4482823476448202  0.2670913751447372  0.9891586004379319  1.0000
  O   O6        1.0  0.5515945506877458  0.7327158574794909  0.010830050362841294  1.0000
  O   O7        1.0  0.038908136980104785  0.7027307941662144  0.9623393594607775  1.0000
  O   O8        1.0  0.9611196635410767  0.2971030905765489  0.037689626277391135  1.0000
