data_image0
_chemical_formula_structural       Al3H27C63N12O36
_chemical_formula_sum              "Al3 H27 C63 N12 O36"
_cell_length_a       4.183769572515831
_cell_length_b       23.40303628186587
_cell_length_c       23.403191587672843
_cell_angle_alpha    119.99933137566525
_cell_angle_beta     90.00078914070657
_cell_angle_gamma    90.00095575579938

_space_group_name_H-M_alt    "P 1"
_space_group_IT_number       1

loop_
  _space_group_symop_operation_xyz
  'x, y, z'

loop_
  _atom_site_type_symbol
  _atom_site_label
  _atom_site_symmetry_multiplicity
  _atom_site_fract_x
  _atom_site_fract_y
  _atom_site_fract_z
  _atom_site_occupancy
  Al  Al1       1.0  0.9939691371180501  0.0007847023549630724  0.5005051148503412  1.0000
  Al  Al2       1.0  0.9939671005415748  0.3328218398767008  0.16693138870394358  1.0000
  Al  Al3       1.0  0.9939735184040189  0.6663776317507414  0.8325530835085502  1.0000
  H   H1        1.0  0.23217299030059016  0.8676593789955762  0.9213816610936262  1.0000
  H   H2        1.0  0.2194860562316734  0.9741275757463375  0.9246630978792538  1.0000
  H   H3        1.0  0.7825586754529965  0.8893213722745588  0.7458473013838757  1.0000
  H   H4        1.0  0.7826006843983747  0.023178715636632506  0.9439968128327579  1.0000
  H   H5        1.0  0.2321403793495733  0.22036517451820004  0.9656550946581106  1.0000
  H   H6        1.0  0.21947090036574932  0.1171812665677338  0.8591886496306033  1.0000
  H   H7        1.0  0.7826153775571071  0.08746938130858685  0.8101468394646503  1.0000
  H   H8        1.0  0.2321372731341214  0.9119561669397174  0.612949413920951  1.0000
  H   H9        1.0  0.2194657781733014  0.9086561698390628  0.7161251343834323  1.0000
  H   H10       1.0  0.7626967023058596  0.4214680201182972  0.3670385814751427  1.0000
  H   H11       1.0  0.7803069325890988  0.4247229897268953  0.4735128365949278  1.0000
  H   H12       1.0  0.21994214161875897  0.24552909599642456  0.3895887642703427  1.0000
  H   H13       1.0  0.21998956340355852  0.44374038881353794  0.5225915635067011  1.0000
  H   H14       1.0  0.7627070955229627  0.4662676718942367  0.7210727512878847  1.0000
  H   H15       1.0  0.7803643053803171  0.359802861428861  0.6178471304478776  1.0000
  H   H16       1.0  0.219930951189987  0.31072925033480914  0.5877842427037265  1.0000
  H   H17       1.0  0.7627129677465163  0.11225186304316284  0.4118556010657315  1.0000
  H   H18       1.0  0.780326069143115  0.21547085230768911  0.40859982424283453  1.0000
  H   H19       1.0  0.7613320219789018  0.44698197749333  0.08117270362074436  1.0000
  H   H20       1.0  0.7709307557654768  0.5496650953015064  0.07685213454308842  1.0000
  H   H21       1.0  0.2066993380014353  0.6444357623054915  0.2553825477687681  1.0000
  H   H22       1.0  0.20664110142448072  0.5779621205140019  0.05574385352908713  1.0000
  H   H23       1.0  0.7613106479893261  0.7521559008624054  0.03247084558269357  1.0000
  H   H24       1.0  0.770882742282744  0.7564998400739642  0.13948491964487175  1.0000
  H   H25       1.0  0.20661210785493722  0.7776011297049622  0.18889992243295245  1.0000
  H   H26       1.0  0.7613522864413226  0.8008676087558941  0.3863608477702059  1.0000
  H   H27       1.0  0.7709426040148557  0.6938606867646019  0.28368155223564173  1.0000
  C   C1        1.0  0.4868786583546836  0.9147171161792118  0.41147821500982934  1.0000
  C   C2        1.0  0.5021336444865697  0.0012463527371481486  0.5877663550833034  1.0000
  C   C3        1.0  0.4903484329918725  0.08842438440493784  0.5026123880040743  1.0000
  C   C4        1.0  0.5021139860258614  0.24556196222575727  0.0801339368848275  1.0000
  C   C5        1.0  0.4868902784655589  0.4218534785740716  0.16990021608742717  1.0000
  C   C6        1.0  0.49031911231045905  0.3307079430302054  0.2524593144206548  1.0000
  C   C7        1.0  0.5021315323327187  0.7531806384673774  0.8320933339630728  1.0000
  C   C8        1.0  0.4868836392095233  0.6634136770751626  0.9186173997651963  1.0000
  C   C9        1.0  0.4903033569788704  0.5808510706416999  0.7449084797004205  1.0000
  C   C10       1.0  0.353062755703519  0.8724923917124915  0.8827325005862505  1.0000
  C   C11       1.0  0.342876173862642  0.9326492342927115  0.88420855035654  1.0000
  C   C12       1.0  0.49322233895734513  0.9401257423933989  0.8345106001857303  1.0000
  C   C13       1.0  0.6586549867295873  0.8863645523722855  0.7850241986818106  1.0000
  C   C14       1.0  0.6592640923549952  0.8264337306872848  0.7835699046843417  1.0000
  C   C15       1.0  0.507199248639914  0.8173796900164165  0.8316261814170288  1.0000
  C   C16       1.0  0.658683363673049  0.06530734120546106  0.9469521351548451  1.0000
  C   C17       1.0  0.659274991605706  0.12378579977666253  0.0068844395894203  1.0000
  C   C18       1.0  0.5071758604513336  0.18088984714503917  0.01593649186138181  1.0000
  C   C19       1.0  0.3530363699789518  0.17688529165331346  0.9608215672806182  1.0000
  C   C20       1.0  0.3428612123039656  0.11820490293701637  0.9006659414355483  1.0000
  C   C21       1.0  0.49321556091949503  0.061034912512113314  0.8931889871288234  1.0000
  C   C22       1.0  0.6586998529033322  0.048297916564884226  0.7680130492072053  1.0000
  C   C23       1.0  0.6592809563958114  0.04975930836970112  0.7095409299408074  1.0000
  C   C24       1.0  0.5071793632386629  0.0017093985662625082  0.6524308003751713  1.0000
  C   C25       1.0  0.3530387954470767  0.9506003530064436  0.6564308373979844  1.0000
  C   C26       1.0  0.3428706504039737  0.9491152958195389  0.7151077360194336  1.0000
  C   C27       1.0  0.49322509274982457  0.9988103270065312  0.7722836206952908  1.0000
  C   C28       1.0  0.645121714449452  0.38252943425652586  0.37194236037052525  1.0000
  C   C29       1.0  0.6572805183361226  0.38404162997838404  0.43215654338374065  1.0000
  C   C30       1.0  0.5090629258414552  0.334334554995202  0.4399885617870254  1.0000
  C   C31       1.0  0.3430911239472394  0.2846692823497037  0.3864249988556452  1.0000
  C   C32       1.0  0.3408994127312397  0.28307990973724634  0.3264281957345858  1.0000
  C   C33       1.0  0.4912178466435789  0.3310873554968056  0.317050981819996  1.0000
  C   C34       1.0  0.34313620400701683  0.446901417260584  0.5648943022417399  1.0000
  C   C35       1.0  0.34092300722313235  0.506893435862189  0.6233084146977106  1.0000
  C   C36       1.0  0.49121825664801844  0.5162636522935743  0.6806921185579924  1.0000
  C   C37       1.0  0.6451438003905424  0.4613711478360757  0.6772333558771635  1.0000
  C   C38       1.0  0.6573264545478282  0.4011594285531573  0.6185245447036891  1.0000
  C   C39       1.0  0.5090987832662462  0.39333220047294054  0.5609899940565057  1.0000
  C   C40       1.0  0.34310357317772855  0.26842982450987324  0.5486489702968029  1.0000
  C   C41       1.0  0.34091155939066203  0.21002045016324203  0.5502357884566607  1.0000
  C   C42       1.0  0.4912309321485893  0.1526362308299627  0.5022315472833797  1.0000
  C   C43       1.0  0.6451430115492373  0.156089240806793  0.4507955178701266  1.0000
  C   C44       1.0  0.657304519874643  0.214794922827359  0.4492824832613849  1.0000
  C   C45       1.0  0.5090814128183823  0.27233124600962105  0.4989856296309014  1.0000
  C   C46       1.0  0.6396007123864251  0.4905243700834988  0.11954873430835986  1.0000
  C   C47       1.0  0.6478303243240333  0.5489018210024954  0.11748198662438371  1.0000
  C   C48       1.0  0.4956729340116226  0.6061352583935717  0.1666898228657557  1.0000
  C   C49       1.0  0.3314662308612881  0.6022121295603854  0.2165534848694364  1.0000
  C   C50       1.0  0.33142301349856507  0.5438739267754047  0.2184981382641027  1.0000
  C   C51       1.0  0.48467038760960446  0.4867396722170201  0.17072165839491762  1.0000
  C   C52       1.0  0.3314129988065416  0.6167858412746414  0.05234108579710289  1.0000
  C   C53       1.0  0.3313832357069515  0.614832001034877  0.9920554814936864  1.0000
  C   C54       1.0  0.4846678836944421  0.6626015246885333  0.9826880306993715  1.0000
  C   C55       1.0  0.6395767669904444  0.7137830986973557  0.03764288986803164  1.0000
  C   C56       1.0  0.6477894033158761  0.7158606967806876  0.09809239265323544  1.0000
  C   C57       1.0  0.49564476037286903  0.6666522733823116  0.10612307733062205  1.0000
  C   C58       1.0  0.3314032065606511  0.7810011710566018  0.23112688599118772  1.0000
  C   C59       1.0  0.33136270169386967  0.841283106682994  0.28945790635774654  1.0000
  C   C60       1.0  0.48463850769049094  0.8506520770839218  0.3465976120284965  1.0000
  C   C61       1.0  0.6395894276555012  0.79569694618872  0.34281521538392923  1.0000
  C   C62       1.0  0.6478211013313313  0.735252091132317  0.28444462369859014  1.0000
  C   C63       1.0  0.4956424495066045  0.727221992669975  0.2272094822442412  1.0000
  N   N1        1.0  0.4781453184137662  0.9999884823912383  0.8333281865738512  1.0000
  N   N2        1.0  0.5258633543708484  0.3333339652379267  0.4999877124436622  1.0000
  N   N3        1.0  0.5077270228508297  0.6666715575376758  0.16667732171370633  1.0000
  N   N4        1.0  0.8193662746792824  0.770897317912713  0.7269899482582786  1.0000
  N   N5        1.0  0.8193885947508974  0.12274223726953444  0.06242123051195142  1.0000
  N   N6        1.0  0.8193927721365241  0.10634665237050471  0.71059138401003  1.0000
  N   N7        1.0  0.17979126820559094  0.22657690532470554  0.2710881760611343  1.0000
  N   N8        1.0  0.1797861124010183  0.562233011749612  0.6221514961884367  1.0000
  N   N9        1.0  0.17978628746503486  0.21117939058180474  0.6067362135559833  1.0000
  N   N10       1.0  0.1639828306927598  0.5448107783242622  0.2744207358916312  1.0000
  N   N11       1.0  0.16388854595824398  0.5589069858136924  0.937078330486102  1.0000
  N   N12       1.0  0.16390135871274938  0.8962673835568681  0.28851951152320504  1.0000
  O   O1        1.0  0.7329386253567591  0.07621457285710427  0.527039292061275  1.0000
  O   O2        1.0  0.729444302729668  0.9511596627806047  0.4232039514104003  1.0000
  O   O3        1.0  0.7328463234786186  0.9714288816941805  0.5482604701823349  1.0000
  O   O4        1.0  0.2564512770076277  0.04989067946787883  0.47385343698216087  1.0000
  O   O5        1.0  0.2575821375846629  0.02554045663100617  0.5762891590710097  1.0000
  O   O6        1.0  0.2546640612120612  0.9233012684390761  0.45013005811707524  1.0000
  O   O7        1.0  0.25644723624296256  0.35946600818613933  0.24268403609395517  1.0000
  O   O8        1.0  0.257566038257849  0.25703647049561346  0.11590141053050473  1.0000
  O   O9        1.0  0.25467576132554376  0.38319955923078214  0.13982752141451732  1.0000
  O   O10       1.0  0.7329303850746456  0.3062822474795227  0.2158234742518843  1.0000
  O   O11       1.0  0.7294589916197652  0.4101241460861616  0.19461320035348  1.0000
  O   O12       1.0  0.7328410882905558  0.2850698961252221  0.08982234261897297  1.0000
  O   O13       1.0  0.2564180670803964  0.5906181915895986  0.7834387478809575  1.0000
  O   O14       1.0  0.2575792053395745  0.7174103355970801  0.8078014880460315  1.0000
  O   O15       1.0  0.2546730483802406  0.6934827987533371  0.9100332815928951  1.0000
  O   O16       1.0  0.7329072715594904  0.6174905508456308  0.7571252146507632  1.0000
  O   O17       1.0  0.7294518825632039  0.6386966300900596  0.8821771917871004  1.0000
  O   O18       1.0  0.7328451904257208  0.743491619801887  0.8619135933494135  1.0000
  O   O19       1.0  0.7511712392157647  0.7151548552587389  0.7160657885481783  1.0000
  O   O20       1.0  0.0065627493661893  0.7839907418830168  0.6937988530915717  1.0000
  O   O21       1.0  0.7511647584424495  0.16755935455850596  0.11816611569054912  1.0000
  O   O22       1.0  0.0066070138566516005  0.07646645576331683  0.0493330092465314  1.0000
  O   O23       1.0  0.7511899544388214  0.11727615554885769  0.6657773174865156  1.0000
  O   O24       1.0  0.006607451160974201  0.13953357344615133  0.7568746840687411  1.0000
  O   O25       1.0  0.2475505455984219  0.21544770088764414  0.21518263064245252  1.0000
  O   O26       1.0  0.9918736984213153  0.1936068452304626  0.2842462350193813  1.0000
  O   O27       1.0  0.24753544581451334  0.6181358832161482  0.6669321663841501  1.0000
  O   O28       1.0  0.991836173110151  0.5490764764263222  0.576027476632774  1.0000
  O   O29       1.0  0.24757042221662565  0.1664126359108736  0.6178724077914312  1.0000
  O   O30       1.0  0.9918085184302967  0.25730186110929776  0.6396951757622703  1.0000
  O   O31       1.0  0.22415421131234578  0.4998015113347521  0.28579597530530515  1.0000
  O   O32       1.0  0.9747764769200912  0.5909468699274857  0.3066191784026345  1.0000
  O   O33       1.0  0.22406133383337593  0.5475189895396397  0.8806914722287544  1.0000
  O   O34       1.0  0.9746540471355658  0.5267203366744226  0.9510296683023681  1.0000
  O   O35       1.0  0.2240929446473601  0.952653203912192  0.33351965733711336  1.0000
  O   O36       1.0  0.9746702418081767  0.8823240729431351  0.24238236473613745  1.0000
