data_image0
_chemical_formula_structural       Zn2Mo2H16C24N4O8
_chemical_formula_sum              "Zn2 Mo2 H16 C24 N4 O8"
_cell_length_a       6.422241907047596
_cell_length_b       8.73294523337003
_cell_length_c       10.658328824925604
_cell_angle_alpha    100.55871497422069
_cell_angle_beta     89.99976265929438
_cell_angle_gamma    90.0004110193387

_space_group_name_H-M_alt    "P 1"
_space_group_IT_number       1

loop_
  _space_group_symop_operation_xyz
  'x, y, z'

loop_
  _atom_site_type_symbol
  _atom_site_label
  _atom_site_symmetry_multiplicity
  _atom_site_fract_x
  _atom_site_fract_y
  _atom_site_fract_z
  _atom_site_occupancy
  Zn  Zn1       1.0  0.24999697149493025  0.29205155865091825  0.8277077841556777  1.0000
  Zn  Zn2       1.0  0.7500011048971374  0.7079487292003962  0.17228695881297545  1.0000
  Mo  Mo1       1.0  0.24999708508705962  0.49512450993260865  0.17515413090782772  1.0000
  Mo  Mo2       1.0  0.7500009913127599  0.5048746211301633  0.8248366838361537  1.0000
  H   H1        1.0  0.24999498548131527  0.3124629576788606  0.527064992840728  1.0000
  H   H2        1.0  0.7500077621401787  0.6875326609151386  0.4729337337740135  1.0000
  H   H3        1.0  0.24999876872163182  0.1322034516386452  0.0727206246115983  1.0000
  H   H4        1.0  0.7500039789676408  0.867806148690377  0.9272783441540968  1.0000
  H   H5        1.0  0.2500006317545953  0.855156625264648  0.10995081468329458  1.0000
  H   H6        1.0  0.7499990017534017  0.1448564574551554  0.8900543111737705  1.0000
  H   H7        1.0  0.24999942084470206  0.12377743036487486  0.3252879602017203  1.0000
  H   H8        1.0  0.7500048838609105  0.8762193470268897  0.6747137567054013  1.0000
  H   H9        1.0  0.2500030098001318  0.6368186719464219  0.9226617611326307  1.0000
  H   H10       1.0  0.7499950665832529  0.3631920651053094  0.07735051517089181  1.0000
  H   H11       1.0  0.2500034196744139  0.5529482499821725  0.682437699806222  1.0000
  H   H12       1.0  0.7499930995852895  0.4470508489896118  0.3175681218335598  1.0000
  H   H13       1.0  0.24999976557848674  0.833372882356528  0.33200552416818147  1.0000
  H   H14       1.0  0.7500029820583407  0.1666262306684985  0.66799373194975  1.0000
  H   H15       1.0  0.25000138727990173  0.62350706301104  0.4673215366340956  1.0000
  H   H16       1.0  0.7499998032374223  0.3764908691562638  0.5326850464313608  1.0000
  C   C1        1.0  0.24999980806521893  0.033509467286734214  0.9932552565635365  1.0000
  C   C2        1.0  0.7499982683325328  0.9664943089792571  0.006742829701003863  1.0000
  C   C3        1.0  0.2500026360137824  0.8787979624191208  0.013100728744497253  1.0000
  C   C4        1.0  0.7499969974898522  0.1212104710865631  0.9868990014538145  1.0000
  C   C5        1.0  0.2500036493120135  0.7577473980101175  0.909170274576283  1.0000
  C   C6        1.0  0.7499913128897049  0.2422586898199484  0.09083660607125671  1.0000
  C   C7        1.0  0.2500011272939275  0.7915713058442435  0.7845301582023156  1.0000
  C   C8        1.0  0.7499953919894369  0.20843245437436758  0.21547543151081075  1.0000
  C   C9        1.0  0.2499988332741623  0.9508776861742445  0.7732811522904444  1.0000
  C   C10       1.0  0.7499961289199747  0.04912375043625869  0.22672127062924835  1.0000
  C   C11       1.0  0.2500009398127574  0.6744115684112373  0.6712330087918235  1.0000
  C   C12       1.0  0.7499940223537467  0.3255886893507593  0.32877580314310967  1.0000
  C   C13       1.0  0.24999998000356533  0.7137041068330205  0.5529430532665388  1.0000
  C   C14       1.0  0.7499980963332363  0.2862938233212873  0.4470644677325951  1.0000
  C   C15       1.0  0.2500039279906758  0.8735057182166415  0.5384120845324532  1.0000
  C   C16       1.0  0.7500003767219354  0.1264933867903508  0.46159092330768914  1.0000
  C   C17       1.0  0.24999946276697219  0.9922579961782391  0.6485663351355273  1.0000
  C   C18       1.0  0.7500001706675691  0.007737616391864299  0.3514352052746902  1.0000
  C   C19       1.0  0.24999990247167858  0.9217241840314968  0.418756588330382  1.0000
  C   C20       1.0  0.7500012880509389  0.07826910493804458  0.5812417852836234  1.0000
  C   C21       1.0  0.2500004532769466  0.0787859366951906  0.41416106687637483  1.0000
  C   C22       1.0  0.7500022943464444  0.9212108447037008  0.585838774170334  1.0000
  C   C23       1.0  0.2499974831158127  0.18804044746924117  0.5288254891634736  1.0000
  C   C24       1.0  0.7500052645094754  0.8119574967345429  0.4711754663151951  1.0000
  N   N1        1.0  0.2499988202953034  0.06812762639017927  0.8764346458974118  1.0000
  N   N2        1.0  0.749999256096011  0.931876145864905  0.12356531622892669  1.0000
  N   N3        1.0  0.2499984442820349  0.14570181653868272  0.642347379567646  1.0000
  N   N4        1.0  0.7500043033400275  0.8542961256596511  0.35765451384192204  1.0000
  O   O1        1.0  0.4779117273747602  0.6143981510532796  0.21120837745532134  1.0000
  O   O2        1.0  0.9779069242033531  0.38559627024784504  0.7887764590825129  1.0000
  O   O3        1.0  0.5220879061169299  0.38560098201872245  0.7887814993563823  1.0000
  O   O4        1.0  0.022088038001932403  0.6143982035714614  0.21121271172908965  1.0000
  O   O5        1.0  0.24999917499458488  0.35148083497062993  0.268572400923425  1.0000
  O   O6        1.0  0.7500051297350439  0.648508987651745  0.73141231215201  1.0000
  O   O7        1.0  0.24999563687822504  0.4036587755991263  0.012057035264731982  1.0000
  O   O8        1.0  0.7500086678678812  0.5963391886629452  0.9879345409035385  1.0000
