data_image0
_chemical_formula_structural       Co2H24C22N4O8
_chemical_formula_sum              "Co2 H24 C22 N4 O8"
_cell_length_a       7.337638776684798
_cell_length_b       7.813376394229836
_cell_length_c       9.737440919076883
_cell_angle_alpha    86.3001961047451
_cell_angle_beta     84.95547618296428
_cell_angle_gamma    86.16183400324584

_space_group_name_H-M_alt    "P 1"
_space_group_IT_number       1

loop_
  _space_group_symop_operation_xyz
  'x, y, z'

loop_
  _atom_site_type_symbol
  _atom_site_label
  _atom_site_symmetry_multiplicity
  _atom_site_fract_x
  _atom_site_fract_y
  _atom_site_fract_z
  _atom_site_occupancy
  Co  Co1       1.0  0.2915728587925415  0.4293515355469992  0.45439210483586107  1.0000
  Co  Co2       1.0  0.7084277080181494  0.5706487155937976  0.545608093017165  1.0000
  H   H1        1.0  0.5620283710011266  0.6428450922592505  0.9912516854329281  1.0000
  H   H2        1.0  0.4379765579706786  0.35715129290324643  0.008747431839864804  1.0000
  H   H3        1.0  0.47377807637058583  0.7762716082666825  0.12173095450640402  1.0000
  H   H4        1.0  0.5262227478522449  0.2237247556115918  0.8782674129552959  1.0000
  H   H5        1.0  0.6537198865328476  0.9216231857724679  0.9100687911899072  1.0000
  H   H6        1.0  0.3462822201355919  0.07837448095472149  0.08993043633926588  1.0000
  H   H7        1.0  0.7221339728990374  0.970817450759746  0.07201095816308369  1.0000
  H   H8        1.0  0.2778652252119472  0.0291827823994666  0.9279883057597117  1.0000
  H   H9        1.0  0.9056937660797787  0.6895841245574629  0.892173500371939  1.0000
  H   H10       1.0  0.09431081720056513  0.3104173837441237  0.10782429545999861  1.0000
  H   H11       1.0  0.9967395495116876  0.8910159627854879  0.9053468862068567  1.0000
  H   H12       1.0  0.0032649502148629035  0.10898689570446149  0.0946549397215648  1.0000
  H   H13       1.0  0.05696624603265121  0.8262400580531803  0.1442555351406369  1.0000
  H   H14       1.0  0.9430357757318433  0.17375892620186303  0.8557456705053992  1.0000
  H   H15       1.0  0.13241928050211274  0.6418927759164319  0.05767241102864771  1.0000
  H   H16       1.0  0.8675812863085783  0.35810747522435793  0.9423277868243857  1.0000
  H   H17       1.0  0.14820124993798342  0.13730700718740954  0.3002632259080115  1.0000
  H   H18       1.0  0.8517923911705266  0.8626945368943595  0.6997383843699224  1.0000
  H   H19       1.0  0.16827609306236727  0.7953765788001446  0.4023690721424487  1.0000
  H   H20       1.0  0.8317133597433753  0.20462629418575767  0.597635818420862  1.0000
  H   H21       1.0  0.3898467730170695  0.10541825508210678  0.6788818950866257  1.0000
  H   H22       1.0  0.6101591776128289  0.894583238540548  0.321114782695929  1.0000
  H   H23       1.0  0.3207778051496107  0.8024705253381368  0.6303723377649533  1.0000
  H   H24       1.0  0.6792212218033316  0.19753231021626758  0.3696288304119334  1.0000
  C   C1        1.0  0.7031483391308201  0.6124792149988777  0.17585386155876387  1.0000
  C   C2        1.0  0.2968537682126993  0.3875184680585661  0.8241463919602268  1.0000
  C   C3        1.0  0.8851537210640572  0.615995593156633  0.1881781346006548  1.0000
  C   C4        1.0  0.11484829935028533  0.3840033584378943  0.8118210190657605  1.0000
  C   C5        1.0  0.6036753690311728  0.7234406111125296  0.07064827850172148  1.0000
  C   C6        1.0  0.39632665138316975  0.2765583404819906  0.9293508751646937  1.0000
  C   C7        1.0  0.718723850126736  0.8661116613542743  0.0016539800522891957  1.0000
  C   C8        1.0  0.2812767160088825  0.1338885734562609  0.9983451918109337  1.0000
  C   C9        1.0  0.9134819660577876  0.7934291014821682  0.9621262577551447  1.0000
  C   C10       1.0  0.08651988319851972  0.20657245250753684  0.037874800165368996  1.0000
  C   C11       1.0  0.008149757165050212  0.7213831649493514  0.08892622610117229  1.0000
  C   C12       1.0  0.9918522639243722  0.2786158029754304  0.9110739535550533  1.0000
  C   C13       1.0  0.5831621095412487  0.4993305502795734  0.26911217101856266  1.0000
  C   C14       1.0  0.41683435319554724  0.5006696959072484  0.7308883030131809  1.0000
  C   C15       1.0  0.9703700203271384  0.5151031368043704  0.30287595448713484  1.0000
  C   C16       1.0  0.029633282532820715  0.4848971176390719  0.6971240592467538  1.0000
  C   C17       1.0  0.20212431176289405  0.07936440030550068  0.3934006204422289  1.0000
  C   C18       1.0  0.797870697370243  0.9206371454275908  0.6066008977761328  1.0000
  C   C19       1.0  0.21043346596037799  0.9108270633084957  0.4428188578044398  1.0000
  C   C20       1.0  0.7895587222195531  0.08917579664979769  0.5571848226499299  1.0000
  C   C21       1.0  0.32234321652941844  0.0706886679364587  0.5912485621636918  1.0000
  C   C22       1.0  0.6776558104235234  0.9293141676179388  0.408752606013202  1.0000
  N   N1        1.0  0.2723286606538124  0.1785300395873435  0.48698925406888083  1.0000
  N   N2        1.0  0.7276690838535202  0.821471493118139  0.5130110540405325  1.0000
  N   N3        1.0  0.2857530809852804  0.9087473930246617  0.5677437674382233  1.0000
  N   N4        1.0  0.7142432961724907  0.09125415435975269  0.432257658720566  1.0000
  O   O1        1.0  0.4962654842767621  0.572818587302109  0.3744945180315327  1.0000
  O   O2        1.0  0.5037350818588564  0.42718164750843357  0.6255046538316904  1.0000
  O   O3        1.0  0.5608011780489619  0.34846929549297556  0.24074248690269684  1.0000
  O   O4        1.0  0.4391952826626025  0.6515309017030759  0.7592549091596154  1.0000
  O   O5        1.0  0.8718082740484902  0.44432773623317695  0.4037784508674492  1.0000
  O   O6        1.0  0.12819374839108383  0.5556712643521208  0.5962237807683906  1.0000
  O   O7        1.0  0.14575744495619603  0.5026789173410577  0.2956946785585615  1.0000
  O   O8        1.0  0.8542457709745859  0.4973226056394608  0.7043042353227591  1.0000
