data_image0
_chemical_formula_structural       ZnH8C8O8F4
_chemical_formula_sum              "Zn1 H8 C8 O8 F4"
_cell_length_a       6.428186662866936
_cell_length_b       6.155990572602862
_cell_length_c       8.962793306219982
_cell_angle_alpha    88.6365995797586
_cell_angle_beta     68.73832822629332
_cell_angle_gamma    102.57719953077627

_space_group_name_H-M_alt    "P 1"
_space_group_IT_number       1

loop_
  _space_group_symop_operation_xyz
  'x, y, z'

loop_
  _atom_site_type_symbol
  _atom_site_label
  _atom_site_symmetry_multiplicity
  _atom_site_fract_x
  _atom_site_fract_y
  _atom_site_fract_z
  _atom_site_occupancy
  Zn  Zn1       1.0  0.9999973150938432  0.49999865465044013  0.9999976793815722  1.0000
  H   H1        1.0  0.0732625811292493  0.31444152637470785  0.24818036065357776  1.0000
  H   H2        1.0  0.926720804600599  0.6855582651837082  0.7518189968609053  1.0000
  H   H3        1.0  0.1655217463919172  0.20964797592169057  0.08062209181654373  1.0000
  H   H4        1.0  0.8344769901791909  0.7903536106240026  0.9193788389724633  1.0000
  H   H5        1.0  0.31858906078921484  0.8809655431827678  0.9475395204004617  1.0000
  H   H6        1.0  0.681402058413944  0.1190416793922608  0.05245877370538927  1.0000
  H   H7        1.0  0.40146109447224637  0.7273405763347327  0.044232965837721794  1.0000
  H   H8        1.0  0.5985259301342865  0.272661295999626  0.955767632855363  1.0000
  C   C1        1.0  0.3108094356195252  0.2269512381236822  0.7874434169583824  1.0000
  C   C2        1.0  0.6891929395927222  0.7730524686786567  0.21256098570732726  1.0000
  C   C3        1.0  0.41804161222850683  0.12426944512871073  0.6353182660497227  1.0000
  C   C4        1.0  0.5819777066139338  0.8757226451015753  0.36466085072782317  1.0000
  C   C5        1.0  0.3316948434897711  0.11198500168645613  0.5120125728861356  1.0000
  C   C6        1.0  0.6683214022949358  0.8880223510365968  0.4880149396568145  1.0000
  C   C7        1.0  0.5926450333431391  0.012015439359430516  0.6163127095853086  1.0000
  C   C8        1.0  0.40735768325026794  0.9879781737563887  0.38367511717058295  1.0000
  O   O1        1.0  0.03141548408409991  0.25932272712285  0.15961458031568307  1.0000
  O   O2        1.0  0.9685762028880449  0.7406762832524478  0.8403793068605767  1.0000
  O   O3        1.0  0.3076267991791966  0.7207605193756519  0.9779711119523856  1.0000
  O   O4        1.0  0.6923572690117296  0.2792443639132216  0.022033522729337607  1.0000
  O   O5        1.0  0.1944124019818574  0.365549388149681  0.7855757792871291  1.0000
  O   O6        1.0  0.8055895184526278  0.6344508912650966  0.2144232463520056  1.0000
  O   O7        1.0  0.341264949571908  0.1564346717681815  0.9127798491368541  1.0000
  O   O8        1.0  0.6587325372402262  0.8435699562853712  0.08721575001830222  1.0000
  F   F1        1.0  0.166677831094745  0.2167974683691156  0.5138208779868522  1.0000
  F   F2        1.0  0.833321018114269  0.7831925378103436  0.48617361489313293  1.0000
  F   F3        1.0  0.6990357594363061  0.021573221496453198  0.7222371140602921  1.0000
  F   F4        1.0  0.300981394438594  0.978416003003531  0.27777945378470303  1.0000
