data_image0
_chemical_formula_structural       Cu4H32C28N8O12
_chemical_formula_sum              "Cu4 H32 C28 N8 O12"
_cell_length_a       7.26517188126478
_cell_length_b       9.432485150368661
_cell_length_c       13.15207894524539
_cell_angle_alpha    89.99643288974978
_cell_angle_beta     90.0003763032755
_cell_angle_gamma    107.52089601859416

_space_group_name_H-M_alt    "P 1"
_space_group_IT_number       1

loop_
  _space_group_symop_operation_xyz
  'x, y, z'

loop_
  _atom_site_type_symbol
  _atom_site_label
  _atom_site_symmetry_multiplicity
  _atom_site_fract_x
  _atom_site_fract_y
  _atom_site_fract_z
  _atom_site_occupancy
  Cu  Cu1       1.0  0.6535062339947331  0.9579414219663605  0.9199903419835422  1.0000
  Cu  Cu2       1.0  0.6534563922574819  0.4578958266372908  0.5800106567413366  1.0000
  Cu  Cu3       1.0  0.34653221680820673  0.042079883832578  0.08000918709065273  1.0000
  Cu  Cu4       1.0  0.34649606695646895  0.542072627785366  0.4199941955797328  1.0000
  H   H1        1.0  0.4869152126778644  0.1291830589702272  0.843225453512659  1.0000
  H   H2        1.0  0.486799177536369  0.6290887578043538  0.6567948274587181  1.0000
  H   H3        1.0  0.51316560417839  0.8708579853363718  0.15678624062285001  1.0000
  H   H4        1.0  0.5131272961776291  0.3708698651873519  0.3432069836666687  1.0000
  H   H5        1.0  0.5393806804618039  0.0461000220805374  0.7429297419950771  1.0000
  H   H6        1.0  0.5392928734227596  0.5460007130664906  0.7570750107941535  1.0000
  H   H7        1.0  0.4606850150770186  0.9539444886089261  0.25706066263487776  1.0000
  H   H8        1.0  0.4606381646986862  0.4539589893746481  0.2429207176294099  1.0000
  H   H9        1.0  0.08267496105824533  0.25122428901998023  0.8081845084243896  1.0000
  H   H10       1.0  0.08258778599334701  0.7511662880647451  0.6918325365230374  1.0000
  H   H11       1.0  0.917373485879132  0.748804743802822  0.19182566521941882  1.0000
  H   H12       1.0  0.9173383525263504  0.24877783845589357  0.3081905642990037  1.0000
  H   H13       1.0  0.9594914630215784  0.09518962509844903  0.7322832912758132  1.0000
  H   H14       1.0  0.9593841462577971  0.5950893705900243  0.7677194906670053  1.0000
  H   H15       1.0  0.040593385538336794  0.9048614248873509  0.2677192786357381  1.0000
  H   H16       1.0  0.040521019186463995  0.40484711587411226  0.23228992421987021  1.0000
  H   H17       1.0  0.7830675500965826  0.2992910421138221  0.8538384214821946  1.0000
  H   H18       1.0  0.7829472500577948  0.7991967571086676  0.6461579229599721  1.0000
  H   H19       1.0  0.21700629336484661  0.7007634411522047  0.1461535036367536  1.0000
  H   H20       1.0  0.216998574797465  0.2007449847123937  0.3538370455098132  1.0000
  H   H21       1.0  0.7664663445449805  0.2674812022382795  0.7195712759270168  1.0000
  H   H22       1.0  0.7663587262288801  0.7673729460232084  0.7804201879151834  1.0000
  H   H23       1.0  0.23360621158732184  0.7325632541161865  0.28042064938836125  1.0000
  H   H24       1.0  0.23356505992909854  0.2325790074170797  0.21957021829656753  1.0000
  H   H25       1.0  0.2947597059462908  0.4169402384596665  0.0063441087909837  1.0000
  H   H26       1.0  0.2947241721878625  0.9168774124538999  0.49365411614762433  1.0000
  H   H27       1.0  0.7052643779931245  0.5831034862364177  0.9936432544362006  1.0000
  H   H28       1.0  0.7052362415810405  0.08306979031139862  0.5063378108956301  1.0000
  H   H29       1.0  0.020701095466151228  0.7492745931442713  0.9312486059740197  1.0000
  H   H30       1.0  0.020679631291670775  0.24921097859899535  0.5687317997140298  1.0000
  H   H31       1.0  0.9793314996405158  0.2507902538946709  0.06873419483326872  1.0000
  H   H32       1.0  0.979289378459768  0.7507473088246499  0.43125404443627974  1.0000
  C   C1        1.0  0.0453442029306999  0.050175640714663  0.955524829406315  1.0000
  C   C2        1.0  0.045308586867285755  0.5501514127116991  0.5444924479544114  1.0000
  C   C3        1.0  0.9546787345527079  0.9498413258190511  0.0444944684640589  1.0000
  C   C4        1.0  0.9546429480264819  0.44981816370350464  0.4555230490477485  1.0000
  C   C5        1.0  0.9484436369766129  0.1586041433881888  0.8011867107129406  1.0000
  C   C6        1.0  0.9483263326604999  0.6585155475125007  0.6988104766512182  1.0000
  C   C7        1.0  0.05163479910331139  0.8414480732103511  0.1988029334508994  1.0000
  C   C8        1.0  0.0515856933879633  0.34142088465582543  0.3011996985850161  1.0000
  C   C9        1.0  0.7730213742778603  0.2164170113619619  0.7940639450142158  1.0000
  C   C10       1.0  0.7728938730432163  0.7163199539928868  0.7059265246688541  1.0000
  C   C11       1.0  0.22707579534926486  0.7836372877058796  0.2059226577974229  1.0000
  C   C12       1.0  0.2270253770040682  0.28362757419458257  0.2940676833028776  1.0000
  C   C13       1.0  0.36713875970221477  0.6948940080975845  0.930682329404647  1.0000
  C   C14       1.0  0.3670865880768091  0.19483615294228684  0.5693197131288059  1.0000
  C   C15       1.0  0.6329187311811993  0.3051472211126268  0.0693210009889142  1.0000
  C   C16       1.0  0.6328650318036608  0.8051233864154528  0.4306820980231906  1.0000
  C   C17       1.0  0.17631673804779527  0.5935836181774264  0.964514390676307  1.0000
  C   C18       1.0  0.17627840173511797  0.0935202270474491  0.5354856660615468  1.0000
  C   C19       1.0  0.8237213170183392  0.40648453039741383  0.0354874184769969  1.0000
  C   C20       1.0  0.823680050527777  0.9064426040921987  0.4645138640291577  1.0000
  C   C21       1.0  0.16541685489074348  0.45241843733548853  0.0025893962242023007  1.0000
  C   C22       1.0  0.16538754310708734  0.9523640957870115  0.4974145651311589  1.0000
  C   C23       1.0  0.8346336340546686  0.547639575736163  0.9974139338242552  1.0000
  C   C24       1.0  0.834593424091942  0.047586289580714015  0.5025880065905711  1.0000
  C   C25       1.0  0.010286031862911176  0.6399109236163696  0.9618725297858646  1.0000
  C   C26       1.0  0.010243056747363307  0.13984618089799744  0.5381296615423069  1.0000
  C   C27       1.0  0.9897475436324897  0.3601461079029207  0.03813232092407051  1.0000
  C   C28       1.0  0.9897068844554228  0.8600955282907139  0.4618668276075867  1.0000
  N   N1        1.0  0.9169413292146729  0.061057352442361414  0.8889655854395002  1.0000
  N   N2        1.0  0.9168142344584921  0.5609678659092906  0.6110209099885539  1.0000
  N   N3        1.0  0.08317714857505357  0.939019082761142  0.11102101697134972  1.0000
  N   N4        1.0  0.08310775970620198  0.438979640105245  0.38898242202132854  1.0000
  N   N5        1.0  0.5930810917414249  0.0919438943885496  0.8117127314920439  1.0000
  N   N6        1.0  0.5929728494523304  0.5918473920862797  0.6882911555453789  1.0000
  N   N7        1.0  0.4070015171831188  0.908101597618142  0.18828071449284786  1.0000
  N   N8        1.0  0.40695583578241923  0.4081201353541602  0.311709134735331  1.0000
  O   O1        1.0  0.2285011037071243  0.1127248401071412  0.9542594768841114  1.0000
  O   O2        1.0  0.22848945233133117  0.6126746421940226  0.5457445687144968  1.0000
  O   O3        1.0  0.7714983103153656  0.8873157341094  0.04572560535338971  1.0000
  O   O4        1.0  0.7714736205682655  0.3872825754557923  0.4542701682170716  1.0000
  O   O5        1.0  0.3934136764829999  0.8356194566459862  0.9484334343218495  1.0000
  O   O6        1.0  0.39333503893102767  0.33556141444415033  0.5515638839097576  1.0000
  O   O7        1.0  0.6066698847049352  0.16442156627148558  0.0515721771304172  1.0000
  O   O8        1.0  0.606610196466228  0.6643959446256033  0.44844400996263556  1.0000
  O   O9        1.0  0.4897873292315538  0.6438075814280354  0.8904693855276521  1.0000
  O   O10       1.0  0.4897495091378872  0.1437532650236193  0.6095320772567593  1.0000
  O   O11       1.0  0.5102574495039391  0.35622259642243403  0.1095255813655527  1.0000
  O   O12       1.0  0.5102175672436077  0.8562173043831224  0.3904704940402084  1.0000
