data_image0
_chemical_formula_structural       Cd4H12C8N36O4
_chemical_formula_sum              "Cd4 H12 C8 N36 O4"
_cell_length_a       6.604953766274514
_cell_length_b       9.87813465800004
_cell_length_c       10.639633191918026
_cell_angle_alpha    89.99999586192634
_cell_angle_beta     97.1001423292767
_cell_angle_gamma    90.00000945098103

_space_group_name_H-M_alt    "P 1"
_space_group_IT_number       1

loop_
  _space_group_symop_operation_xyz
  'x, y, z'

loop_
  _atom_site_type_symbol
  _atom_site_label
  _atom_site_symmetry_multiplicity
  _atom_site_fract_x
  _atom_site_fract_y
  _atom_site_fract_z
  _atom_site_occupancy
  Cd  Cd1       1.0  0.5344925257940644  0.16356529021584268  0.8733751405373483  1.0000
  Cd  Cd2       1.0  0.9655087896589974  0.6635655933344962  0.6266247888243583  1.0000
  Cd  Cd3       1.0  0.4655078964873098  0.8364342549412244  0.126624765559086  1.0000
  Cd  Cd4       1.0  0.034493158236927  0.33643496415952967  0.3733752235497363  1.0000
  H   H1        1.0  0.24204194495771963  0.48094809857460064  0.1310417904852841  1.0000
  H   H2        1.0  0.257959144463527  0.9809483608754023  0.3689581912876818  1.0000
  H   H3        1.0  0.7579584773236546  0.519051446582466  0.8689581156111501  1.0000
  H   H4        1.0  0.7420428034322697  0.019051184281742895  0.6310418210864412  1.0000
  H   H5        1.0  0.8391980915756321  0.2784463393238709  0.04242213107799841  1.0000
  H   H6        1.0  0.6608027338588728  0.7784465843867067  0.4575780042580533  1.0000
  H   H7        1.0  0.16080233070587008  0.7215542181700769  0.9575777750184074  1.0000
  H   H8        1.0  0.3391976884226223  0.22155397310724104  0.5424219018383525  1.0000
  H   H9        1.0  0.8349595247061714  0.1273297498427652  0.08993805540023911  1.0000
  H   H10       1.0  0.6650412469377616  0.627328986608397  0.4100611464433045  1.0000
  H   H11       1.0  0.16503937196090132  0.8726708076510973  0.9100617444184779  1.0000
  H   H12       1.0  0.3349591578355202  0.3726705585487053  0.5899378184895596  1.0000
  C   C1        1.0  0.2946078154563878  0.2767395070395508  0.1141912566317203  1.0000
  C   C2        1.0  0.20539169932094842  0.7767397623559019  0.3858086292296719  1.0000
  C   C3        1.0  0.7053925893168866  0.7232600381175445  0.8858077083011437  1.0000
  C   C4        1.0  0.7946072148539827  0.22325877046417017  0.614192111752665  1.0000
  C   C5        1.0  0.2769394567831611  0.442440799668951  0.9446058914016504  1.0000
  C   C6        1.0  0.22306061537906882  0.9424400694555786  0.5553937742423898  1.0000
  C   C7        1.0  0.7230609654983411  0.5575597578249967  0.05539401469475542  1.0000
  C   C8        1.0  0.7769398244104125  0.057559475701452804  0.44460707301760755  1.0000
  N   N1        1.0  0.3689045057567952  0.16878492088230246  0.05749042482568001  1.0000
  N   N2        1.0  0.1310965087156006  0.6687851638502378  0.4425095727934405  1.0000
  N   N3        1.0  0.6310943909102775  0.8312156366115596  0.9425093749930369  1.0000
  N   N4        1.0  0.8689054391803239  0.33121539364378083  0.5574904395806612  1.0000
  N   N5        1.0  0.31659981959238354  0.44551730102125486  0.7474661480468116  1.0000
  N   N6        1.0  0.18340025330861212  0.945517563984545  0.7525335174410372  1.0000
  N   N7        1.0  0.6833990770746893  0.5544832564726078  0.25253365177190557  1.0000
  N   N8        1.0  0.8166001689728829  0.054482993509402895  0.24746638865536852  1.0000
  N   N9        1.0  0.23861744968952792  0.24111637733312105  0.22739751705407937  1.0000
  N   N10       1.0  0.2613835821492927  0.7411166472635528  0.2726024768933186  1.0000
  N   N11       1.0  0.7613829725919671  0.7588841801608266  0.7726023890423265  1.0000
  N   N12       1.0  0.7386168401322026  0.25888391023039486  0.7273974292030871  1.0000
  N   N13       1.0  0.35774299841822443  0.06601045264747538  0.1398405928415301  1.0000
  N   N14       1.0  0.1422580088865004  0.5660096906944714  0.3601603511582638  1.0000
  N   N15       1.0  0.6422558982488482  0.9339901048463944  0.860159206977187  1.0000
  N   N16       1.0  0.8577439390093036  0.43398985446267335  0.6398396612158592  1.0000
  N   N17       1.0  0.2829254695850878  0.1084486190500868  0.24053775675645986  1.0000
  N   N18       1.0  0.21707553040085506  0.6084488851528248  0.2594622439254763  1.0000
  N   N19       1.0  0.7170749526962866  0.8915509261069802  0.7594621493399744  1.0000
  N   N20       1.0  0.7829264174950696  0.3915516723411939  0.7405377684486183  1.0000
  N   N21       1.0  0.2291314060895289  0.5588463840485789  0.7749335977139326  1.0000
  N   N22       1.0  0.27086857397360126  0.05884611780029299  0.7250660874022757  1.0000
  N   N23       1.0  0.7708690161919662  0.44115417344536195  0.22506630838247332  1.0000
  N   N24       1.0  0.7291333739222027  0.9411534273568517  0.27493392497184743  1.0000
  N   N25       1.0  0.35147712981832774  0.36965581030403166  0.8533544683636052  1.0000
  N   N26       1.0  0.1485244504830021  0.8696550651137683  0.6466453072528751  1.0000
  N   N27       1.0  0.6485232749550748  0.6303447471899445  0.1466444965692375  1.0000
  N   N28       1.0  0.8514774974129226  0.1303454923802576  0.3533547051212267  1.0000
  N   N29       1.0  0.20065651822256578  0.5610218898024115  0.8983836093302103  1.0000
  N   N30       1.0  0.29934347987099846  0.06102163594800909  0.6016170168391355  1.0000
  N   N31       1.0  0.7993439040589366  0.4389786676915364  0.10161629676619553  1.0000
  N   N32       1.0  0.7006569424103758  0.9389779092090574  0.3983828892572987  1.0000
  N   N33       1.0  0.2763625784346075  0.40582258307703967  0.0685868538091725  1.0000
  N   N34       1.0  0.2236384754411489  0.9058218246055103  0.4314121906138055  1.0000
  N   N35       1.0  0.7236378263387878  0.5941779744169365  0.9314121111236703  1.0000
  N   N36       1.0  0.7763634549466758  0.09417873288854389  0.5685868805967261  1.0000
  O   O1        1.0  0.8380601527163165  0.18247579204521708  0.011802205263563813  1.0000
  O   O2        1.0  0.661940649676005  0.6824750225886688  0.48819793494420344  1.0000
  O   O3        1.0  0.16194026956517862  0.8175247654487237  0.9881977008328421  1.0000
  O   O4        1.0  0.33805977260536935  0.31752452256839797  0.5118019711522308  1.0000
