data_image0
_chemical_formula_structural       Ni3P4H34C34N8O14
_chemical_formula_sum              "Ni3 P4 H34 C34 N8 O14"
_cell_length_a       8.846615769523673
_cell_length_b       10.586005183529426
_cell_length_c       15.227192472330138
_cell_angle_alpha    76.71994844200081
_cell_angle_beta     78.19714772105475
_cell_angle_gamma    80.03848210219624

_space_group_name_H-M_alt    "P 1"
_space_group_IT_number       1

loop_
  _space_group_symop_operation_xyz
  'x, y, z'

loop_
  _atom_site_type_symbol
  _atom_site_label
  _atom_site_symmetry_multiplicity
  _atom_site_fract_x
  _atom_site_fract_y
  _atom_site_fract_z
  _atom_site_occupancy
  Ni  Ni1       1.0  0.8048839607358648  0.925952613571468  0.6289931750997796  1.0000
  Ni  Ni2       1.0  0.1951338264200189  0.0740490044888631  0.37100665312799935  1.0000
  Ni  Ni3       1.0  6.557431397922595e-06  0.4999983514467132  0.5000018804571198  1.0000
  P   P1        1.0  0.7148361447805701  0.7275753066252905  0.5379703751020559  1.0000
  P   P2        1.0  0.035302243295753086  0.8136392213862466  0.4694815004174444  1.0000
  P   P3        1.0  0.28516635993345574  0.27242822796850424  0.46202632520787307  1.0000
  P   P4        1.0  0.9647026415820223  0.18635649336089696  0.5305188118173804  1.0000
  H   H1        1.0  0.8734547003958825  0.9589655970612442  0.3202381823138155  1.0000
  H   H2        1.0  0.8752760800354339  0.7886875634351326  0.32876069480322206  1.0000
  H   H3        1.0  0.5615260252864543  0.07663852987905531  0.38329988313923036  1.0000
  H   H4        1.0  0.3465602622851948  0.8297665109020972  0.27972095561723626  1.0000
  H   H5        1.0  0.6583698027283094  0.72409633488747  0.28341815605053006  1.0000
  H   H6        1.0  0.5029446667032502  0.736229613018466  0.48115745310561664  1.0000
  H   H7        1.0  0.8438599347041704  0.041907251492389705  0.46234934217503126  1.0000
  H   H8        1.0  0.8045951339332618  0.41735953409529003  0.39488325706112454  1.0000
  H   H9        1.0  0.7529240903623631  0.47470397547862586  0.23317190238275748  1.0000
  H   H10       1.0  0.1563265260057136  0.6821877321084956  0.1602322679183034  1.0000
  H   H11       1.0  0.18914418521526952  0.613723234097357  0.3250075975701209  1.0000
  H   H12       1.0  0.8334885505549186  0.5723305336400275  0.07334903074189465  1.0000
  H   H13       1.0  0.029075984084840942  0.7966385039010364  0.046821146648724686  1.0000
  H   H14       1.0  0.9767707922453683  0.9737077621016182  0.9177989182985872  1.0000
  H   H15       1.0  0.9052536853063204  0.04385728717751651  0.76061908178869  1.0000
  H   H16       1.0  0.8054118391331786  0.676942688997599  0.7640113887901309  1.0000
  H   H17       1.0  0.8620172297765624  0.590853625046222  0.9228247918077702  1.0000
  H   H18       1.0  0.12654967014071872  0.0410261902303546  0.679760853418131  1.0000
  H   H19       1.0  0.12473019467446284  0.21131402056423107  0.671236538299816  1.0000
  H   H20       1.0  0.43848492769710407  0.9233552435098743  0.6167020064154302  1.0000
  H   H21       1.0  0.6534478208718043  0.17024581566916916  0.7202671093287238  1.0000
  H   H22       1.0  0.3416342121904421  0.27590521866554957  0.7165734343852324  1.0000
  H   H23       1.0  0.49705752065388253  0.26377588299405375  0.5188396243240733  1.0000
  H   H24       1.0  0.15614274784768167  0.9580952917869752  0.5376448705047424  1.0000
  H   H25       1.0  0.19541112160430177  0.5826489513029145  0.6051227154352575  1.0000
  H   H26       1.0  0.24707342682958722  0.5252868685404125  0.7668379340694076  1.0000
  H   H27       1.0  0.843657793479608  0.3178207231161069  0.8397762622413939  1.0000
  H   H28       1.0  0.8108570938062557  0.38628033829861164  0.6749977767575503  1.0000
  H   H29       1.0  0.16651368322946772  0.4276524785584358  0.9266608640213365  1.0000
  H   H30       1.0  0.9709053314392337  0.2033601227275099  0.9531827519815225  1.0000
  H   H31       1.0  0.0232450277979055  0.026277203302399202  0.0822038263230951  1.0000
  H   H32       1.0  0.09476962824361838  0.9561384772191418  0.23938433164216388  1.0000
  H   H33       1.0  0.19457374163930302  0.32305881793592317  0.23597775732682189  1.0000
  H   H34       1.0  0.13794188160537865  0.4091469055572645  0.07717612971055841  1.0000
  C   C1        1.0  0.8237423380462516  0.8539417085607611  0.45750945369719204  1.0000
  C   C2        1.0  0.8137890591072078  0.8742816611824508  0.35619218597285873  1.0000
  C   C3        1.0  0.5444720158239209  0.9986182059726117  0.3524005138123414  1.0000
  C   C4        1.0  0.438810268428199  0.8667696764161831  0.2991305228831251  1.0000
  C   C5        1.0  0.5908274285448983  0.8125362333464211  0.3020184143846266  1.0000
  C   C6        1.0  0.8775451690546349  0.4765163603164526  0.34002069007813424  1.0000
  C   C7        1.0  0.8504133216318056  0.5092749085634977  0.25030477897563236  1.0000
  C   C8        1.0  0.9463286991540231  0.5888647838776322  0.18277671392396408  1.0000
  C   C9        1.0  0.07322776755168553  0.6252516672225071  0.2097140268322804  1.0000
  C   C10       1.0  0.09439386340728366  0.5866128322774884  0.3003245113758055  1.0000
  C   C11       1.0  0.9115143565870343  0.6294525004979905  0.09026867168391564  1.0000
  C   C12       1.0  0.9605277924992638  0.7338214428377086  0.027565581336794796  1.0000
  C   C13       1.0  0.923383495454509  0.7754860904026161  0.9356489446099376  1.0000
  C   C14       1.0  0.9373831547889752  0.9043442870115683  0.8871059717079537  1.0000
  C   C15       1.0  0.8994587950807618  0.9443621195521603  0.8000285195341731  1.0000
  C   C16       1.0  0.8415350868948935  0.7386287110515114  0.8021930901057674  1.0000
  C   C17       1.0  0.8726636508119514  0.6927195939082011  0.890461818672357  1.0000
  C   C18       1.0  0.17625946901465991  0.1460588929219355  0.5424891146172401  1.0000
  C   C19       1.0  0.18621568077739437  0.12571502669901244  0.6438066726287845  1.0000
  C   C20       1.0  0.4555318376215212  0.0013765461722173005  0.6476040141784056  1.0000
  C   C21       1.0  0.5611956944567212  0.1332416496044431  0.700854009905953  1.0000
  C   C22       1.0  0.4091833138717861  0.18747411680217846  0.6979650629505233  1.0000
  C   C23       1.0  0.12245624948594984  0.5234862419752204  0.6599867947599379  1.0000
  C   C24       1.0  0.14958557171992484  0.4907149214890367  0.7496971802147459  1.0000
  C   C25       1.0  0.05366741184129612  0.4111279836118058  0.8172257517351512  1.0000
  C   C26       1.0  0.9267643135560916  0.3747518712586455  0.7902878262657115  1.0000
  C   C27       1.0  0.9056026689271448  0.4133916978103898  0.6996779771424644  1.0000
  C   C28       1.0  0.08847075082935164  0.3705441634160493  0.9097331322305566  1.0000
  C   C29       1.0  0.039459328514801925  0.2661771735511493  0.9724337029608281  1.0000
  C   C30       1.0  0.07660040544170243  0.22450370991475677  0.0643527939289399  1.0000
  C   C31       1.0  0.06263075016471482  0.0956524529648277  0.11290034938669893  1.0000
  C   C32       1.0  0.10055331790596972  0.05563165239483682  0.19997257852940464  1.0000
  C   C33       1.0  0.15844411930532232  0.2613689089663609  0.19780596261315253  1.0000
  C   C34       1.0  0.1273068964362453  0.3072887968090896  0.10953847369532353  1.0000
  N   N1        1.0  0.6562524941383928  0.8972399171250203  0.335708280449559  1.0000
  N   N2        1.0  0.4115619690010065  0.9821663184078844  0.33090243450615026  1.0000
  N   N3        1.0  0.9960311125119647  0.5162934347260943  0.36490360683805534  1.0000
  N   N4        1.0  0.8544679175751712  0.8628418556581751  0.7570201333965729  1.0000
  N   N5        1.0  0.3437541088766097  0.10275969939558387  0.6642872617792863  1.0000
  N   N6        1.0  0.5884431292833838  0.0178352761234777  0.6690975607196352  1.0000
  N   N7        1.0  0.003964511544666054  0.48371695537780107  0.6350947580217013  1.0000
  N   N8        1.0  0.14554081666013025  0.1371587553530276  0.24297762723470132  1.0000
  O   O1        1.0  0.7691149338406548  0.5962863275474533  0.5108221556398932  1.0000
  O   O2        1.0  0.7267953389749737  0.7478963212075629  0.6316469653675088  1.0000
  O   O3        1.0  0.5316122966006988  0.7665122927011723  0.5307597964571189  1.0000
  O   O4        1.0  0.09355433484841318  0.6701029000653662  0.468958769041457  1.0000
  O   O5        1.0  0.03735438697997756  0.85573190303041  0.5604395008990866  1.0000
  O   O6        1.0  0.1175282329827355  0.9009356931008483  0.3844831181555719  1.0000
  O   O7        1.0  0.7658904639442525  0.9746904446527298  0.48977642432898716  1.0000
  O   O8        1.0  0.23088885397327633  0.4037162445901713  0.4891778343210193  1.0000
  O   O9        1.0  0.2732172336696336  0.2521091921277332  0.36834955741466063  1.0000
  O   O10       1.0  0.46839204934728673  0.23349418265185315  0.46923621498888934  1.0000
  O   O11       1.0  0.906456423874978  0.3298918737280516  0.5310475787750236  1.0000
  O   O12       1.0  0.9626472750877612  0.1442696715865921  0.43955761378216374  1.0000
  O   O13       1.0  0.8824692459482577  0.09906295576088552  0.6155188958806479  1.0000
  O   O14       1.0  0.2341089054876875  0.0253111176980525  0.5102189889483244  1.0000
