data_image0
_chemical_formula_structural       Mn3H38C52N2O14
_chemical_formula_sum              "Mn3 H38 C52 N2 O14"
_cell_length_a       10.447576410686166
_cell_length_b       10.629313469922225
_cell_length_c       11.93448383214134
_cell_angle_alpha    109.3006643374323
_cell_angle_beta     114.95575803522865
_cell_angle_gamma    93.48457751549451

_space_group_name_H-M_alt    "P 1"
_space_group_IT_number       1

loop_
  _space_group_symop_operation_xyz
  'x, y, z'

loop_
  _atom_site_type_symbol
  _atom_site_label
  _atom_site_symmetry_multiplicity
  _atom_site_fract_x
  _atom_site_fract_y
  _atom_site_fract_z
  _atom_site_occupancy
  Mn  Mn1       1.0  0.4999888833658089  0.4999984236463958  0.49999800026650115  1.0000
  Mn  Mn2       1.0  0.2260173056398925  0.6434582709411811  0.5493405498229222  1.0000
  Mn  Mn3       1.0  0.7739862692023962  0.35654039106472607  0.4506647141749056  1.0000
  H   H1        1.0  0.033602537534406444  0.6244756449071999  0.6431444874553379  1.0000
  H   H2        1.0  0.9664036829358407  0.37552095843637545  0.35685611794913547  1.0000
  H   H3        1.0  0.8812739445501094  0.36964041314757873  0.09128079417565257  1.0000
  H   H4        1.0  0.11873229451116875  0.630376741060452  0.9087267591110336  1.0000
  H   H5        1.0  0.8052244954670159  0.2559078245408344  0.8469613279563293  1.0000
  H   H6        1.0  0.19477726711224355  0.7441042406743675  0.15304137956953673  1.0000
  H   H7        1.0  0.9908760147537663  0.2428030799092369  0.7675451218184508  1.0000
  H   H8        1.0  0.00912310674070222  0.7571987366179868  0.23245272561748456  1.0000
  H   H9        1.0  0.32873767475089005  0.4433597520184165  0.1782034822132914  1.0000
  H   H10       1.0  0.6712624883827444  0.556637932778038  0.8217960378966468  1.0000
  H   H11       1.0  0.17364640512175097  0.16762781758993836  0.21167418129383014  1.0000
  H   H12       1.0  0.826346391867176  0.83236173694889  0.7883151675392527  1.0000
  H   H13       1.0  0.0239923591937908  0.8515794830135589  0.8153507575125261  1.0000
  H   H14       1.0  0.9760044136094095  0.14842136081075807  0.18463838958777506  1.0000
  H   H15       1.0  0.2761375923731464  0.861549392886218  0.8592154561694231  1.0000
  H   H16       1.0  0.723857326804179  0.13844837435920712  0.14077460420044471  1.0000
  H   H17       1.0  0.4795691666355991  0.0278810935349441  0.08017553593109027  1.0000
  H   H18       1.0  0.5204294250921748  0.9721104615970404  0.9198165541012531  1.0000
  H   H19       1.0  0.15867354548562665  0.4142565568091853  0.7643208739316095  1.0000
  H   H20       1.0  0.8413332054481231  0.5857462042728371  0.23568259462547292  1.0000
  H   H21       1.0  0.4336146741639054  0.2726199609692585  0.06256404274410693  1.0000
  H   H22       1.0  0.5663928631695682  0.7273817612882211  0.9374402466007865  1.0000
  H   H23       1.0  0.610798861343369  0.26428297435218434  0.9755688476559076  1.0000
  H   H24       1.0  0.38921105341793794  0.7357238677056728  0.024437005111955807  1.0000
  H   H25       1.0  0.5648951264723933  0.33610683883057385  0.7847284375191848  1.0000
  H   H26       1.0  0.43510899179409523  0.663893895357283  0.21527261572873602  1.0000
  H   H27       1.0  0.3446823264424878  0.7594932095109427  0.3942227580329031  1.0000
  H   H28       1.0  0.6553067471844115  0.24049837746332503  0.6057792214231128  1.0000
  H   H29       1.0  0.37586237015210594  0.975597079978158  0.3554460990128518  1.0000
  H   H30       1.0  0.6241356595884184  0.0244005849450417  0.6445618417835065  1.0000
  H   H31       1.0  0.27892151947501276  0.16828004036016606  0.45115866293461704  1.0000
  H   H32       1.0  0.7210788736734556  0.8317186189862866  0.5488529626155554  1.0000
  H   H33       1.0  0.1489402466022156  0.1363750580534884  0.581124308932239  1.0000
  H   H34       1.0  0.8510561914134058  0.8636205519015688  0.41888578347995065  1.0000
  H   H35       1.0  0.12150519492306691  0.9125500257451405  0.6049236218851705  1.0000
  H   H36       1.0  0.878486776421653  0.08744050969730917  0.39507828104498094  1.0000
  H   H37       1.0  0.9503260753625113  0.63816987725788  0.5085561629076238  1.0000
  H   H38       1.0  0.04968146021498396  0.36182773772274857  0.4914460681165878  1.0000
  C   C1        1.0  0.15001806655557454  0.48290488075731725  0.2929195730035445  1.0000
  C   C2        1.0  0.8499860517109069  0.5170958534305398  0.7070814802443763  1.0000
  C   C3        1.0  0.10941785446477328  0.4108027846369069  0.1487910451663481  1.0000
  C   C4        1.0  0.8905825944008399  0.5892000616276577  0.8512042482378065  1.0000
  C   C5        1.0  0.961695060983153  0.359362727529536  0.05546262506901912  1.0000
  C   C6        1.0  0.03830829577378128  0.6406513962738671  0.9445370949107145  1.0000
  C   C7        1.0  0.9198655216867164  0.29763154059585867  0.91905917734195  1.0000
  C   C8        1.0  0.08013308617930183  0.7023805617805222  0.08094069650290683  1.0000
  C   C9        1.0  0.024100879371893282  0.29000113703666835  0.8747553925376723  1.0000
  C   C10       1.0  0.9758979959974566  0.710007890533788  0.12524115354185028  1.0000
  C   C11       1.0  0.17262278698623124  0.3423945835141779  0.9665966179035906  1.0000
  C   C12       1.0  0.8273747501416792  0.657605188905073  0.03340087335726574  1.0000
  C   C13       1.0  0.21448156527690532  0.40075057441922707  0.10433544031437943  1.0000
  C   C14       1.0  0.7855186118766111  0.5992512357543658  0.8956619584647285  1.0000
  C   C15       1.0  0.454518545597395  0.2195880177376637  0.2791614652962551  1.0000
  C   C16       1.0  0.5454879563960731  0.7804096361771115  0.7208336910120465  1.0000
  C   C17       1.0  0.3357389665164874  0.10830160876347607  0.15570993100312341  1.0000
  C   C18       1.0  0.6642651713722357  0.8916991543848453  0.8442844348023615  1.0000
  C   C19       1.0  0.1920293266132731  0.09795450074745557  0.1327327358033799  1.0000
  C   C20       1.0  0.8079684902818725  0.9020422149661582  0.8672572480406231  1.0000
  C   C21       1.0  0.07606274126481338  0.005053203285505999  0.0115535915408174  1.0000
  C   C22       1.0  0.9239382443634482  0.9949476006440536  0.9884371046533577  1.0000
  C   C23       1.0  0.10989271067381873  0.9226515190689639  0.9128136778617562  1.0000
  C   C24       1.0  0.8900987954012506  0.07735347828058539  0.08717642712220193  1.0000
  C   C25       1.0  0.25320826735739377  0.9284533047058896  0.9367283154165875  1.0000
  C   C26       1.0  0.7467921871105786  0.07154544514200718  0.0632624118759679  1.0000
  C   C27       1.0  0.36671139879385345  0.0205236477424009  0.0585826907044762  1.0000
  C   C28       1.0  0.6332927250749872  0.9794729900287819  0.9414137964318459  1.0000
  C   C29       1.0  0.34066078567191477  0.43408348930806534  0.6592362994236396  1.0000
  C   C30       1.0  0.6593422629156435  0.5659131258562835  0.34076732381196007  1.0000
  C   C31       1.0  0.3596110164967641  0.3795429171210499  0.7640228065935163  1.0000
  C   C32       1.0  0.6403970428826824  0.620456741081071  0.23598190112322467  1.0000
  C   C33       1.0  0.2561613314276058  0.3784259618051492  0.8095141801482485  1.0000
  C   C34       1.0  0.7438396002394967  0.6215747624831423  0.19049490651262596  1.0000
  C   C35       1.0  0.2809157042230481  0.33915556178187234  0.9168317167812534  1.0000
  C   C36       1.0  0.719087895147041  0.6608431364246029  0.08316518791352928  1.0000
  C   C37       1.0  0.411179930989455  0.3009372134534161  0.9775509892750521  1.0000
  C   C38       1.0  0.588821020299889  0.6990635397953395  0.022451409943385906  1.0000
  C   C39       1.0  0.5117434133352461  0.2970684712725955  0.9289775162331326  1.0000
  C   C40       1.0  0.4882588646284489  0.7029374153702931  0.07102522320450075  1.0000
  C   C41       1.0  0.4864161267247481  0.33584014718756083  0.8223738005106045  1.0000
  C   C42       1.0  0.5135885079853465  0.6641626193616189  0.17763223722077007  1.0000
  C   C43       1.0  0.3009890254695333  0.8452581653220362  0.43141353312634584  1.0000
  C   C44       1.0  0.6989992659663997  0.1547385713736915  0.5685888479322401  1.0000
  C   C45       1.0  0.31887431431031377  0.9656028564000535  0.4114028559910636  1.0000
  C   C46       1.0  0.681116869937874  0.034392821523738286  0.5886011204022668  1.0000
  C   C47       1.0  0.2633791335592193  0.0727164236869413  0.4642866727848869  1.0000
  C   C48       1.0  0.7366115261902236  0.9272813146721499  0.5357177211669037  1.0000
  C   C49       1.0  0.19150383661462198  0.054892652069334184  0.5354331233328296  1.0000
  C   C50       1.0  0.8084865545722975  0.9450999501620458  0.46456964581260957  1.0000
  C   C51       1.0  0.1765515285661151  0.9310051442752891  0.5498903292808849  1.0000
  C   C52       1.0  0.8234399231854185  0.06898745884257809  0.45011031934711115  1.0000
  N   N1        1.0  0.2293426340303738  0.8270218113679986  0.49811149145315176  1.0000
  N   N2        1.0  0.7706480362269872  0.1729718378145293  0.5018866645264239  1.0000
  O   O1        1.0  0.05038572644374984  0.49943558491303  0.3283791957505002  1.0000
  O   O2        1.0  0.9496205031408279  0.500565136567566  0.6716209601837451  1.0000
  O   O3        1.0  0.28396371915538765  0.5355367562830297  0.38257799779105983  1.0000
  O   O4        1.0  0.7160346232976877  0.46446610992892085  0.6174165210661613  1.0000
  O   O5        1.0  0.426801505770534  0.28570407182747454  0.3735077386641947  1.0000
  O   O6        1.0  0.5731991951849336  0.714299781567611  0.6264921368074426  1.0000
  O   O7        1.0  0.5770086109893667  0.24412077558880435  0.28045051310763824  1.0000
  O   O8        1.0  0.42299733601280554  0.7558706843869486  0.7195501393511067  1.0000
  O   O9        1.0  0.44569906135154  0.44768105634227606  0.6340064088005734  1.0000
  O   O10       1.0  0.5542992351955147  0.5523176374317841  0.3660010984814405  1.0000
  O   O11       1.0  0.22075179553299043  0.4682894361122222  0.6022750327600406  1.0000
  O   O12       1.0  0.7792457307246181  0.531702110893164  0.3977208496503551  1.0000
  O   O13       1.0  0.04515891533858249  0.6785074855188924  0.5925069775930041  1.0000
  O   O14       1.0  0.9548444018114921  0.3214942657731682  0.4074982704489401  1.0000
