data_image0
_chemical_formula_structural       CoH16C14N4Cl2O2
_chemical_formula_sum              "Co1 H16 C14 N4 Cl2 O2"
_cell_length_a       7.158746091683642
_cell_length_b       7.672249325672294
_cell_length_c       8.098659800579657
_cell_angle_alpha    97.36206221829539
_cell_angle_beta     109.04957794544656
_cell_angle_gamma    106.851352606401

_space_group_name_H-M_alt    "P 1"
_space_group_IT_number       1

loop_
  _space_group_symop_operation_xyz
  'x, y, z'

loop_
  _atom_site_type_symbol
  _atom_site_label
  _atom_site_symmetry_multiplicity
  _atom_site_fract_x
  _atom_site_fract_y
  _atom_site_fract_z
  _atom_site_occupancy
  Co  Co1       1.0  0.9999997839260645  0.5000017647035904  0.9999992687950153  1.0000
  H   H1        1.0  0.725338278986186  0.1101265545970946  0.857051672073041  1.0000
  H   H2        1.0  0.2746601467842069  0.8898758263780097  0.14294611294211995  1.0000
  H   H3        1.0  0.9188411836406162  0.6638513248783512  0.5687807243732905  1.0000
  H   H4        1.0  0.0811564281722355  0.3361482616981135  0.4312263651127779  1.0000
  H   H5        1.0  0.11254684909997073  0.8059016339457088  0.5027813234661167  1.0000
  H   H6        1.0  0.8874453615068206  0.19409231304395297  0.49721618405533263  1.0000
  H   H7        1.0  0.7423379185449406  0.8163670047473628  0.7011049723689878  1.0000
  H   H8        1.0  0.2576624300753281  0.1836367789816578  0.2988898024980671  1.0000
  H   H9        1.0  0.3814168183432471  0.1372929646527936  0.773561085045749  1.0000
  H   H10       1.0  0.6185835269075852  0.8627024152452308  0.22644496202332226  1.0000
  H   H11       1.0  0.3370934210554566  0.41414831802672586  0.9258043349505698  1.0000
  H   H12       1.0  0.6629097351576759  0.5858512629918946  0.0741918881726632  1.0000
  H   H13       1.0  0.33880694828737745  0.6560538648471593  0.5323249985057856  1.0000
  H   H14       1.0  0.6611909963493686  0.3439471149605851  0.4676749480716538  1.0000
  H   H15       1.0  0.45868496577091383  0.5910590298645888  0.7276425325977628  1.0000
  H   H16       1.0  0.5413204486737513  0.4089461736795813  0.2723562523056414  1.0000
  C   C1        1.0  0.23129460907345842  0.7021969860256834  0.7365937666870579  1.0000
  C   C2        1.0  0.7687057033424196  0.2978054203441758  0.2634181137813272  1.0000
  C   C3        1.0  0.061792793836545484  0.9498785640109305  0.7199602539196945  1.0000
  C   C4        1.0  0.9382081412224892  0.05011539646613981  0.2800346527599586  1.0000
  C   C5        1.0  0.8658112231808915  0.10895931431275593  0.8331324320519471  1.0000
  C   C6        1.0  0.1341938601245971  0.8910486979156218  0.16686785965907094  1.0000
  C   C7        1.0  0.07381512658626817  0.7771790894338222  0.6195688523795013  1.0000
  C   C8        1.0  0.9261884332361989  0.2228134849531216  0.3804339907102944  1.0000
  C   C9        1.0  0.8775062091481373  0.9465412619663311  0.7465106252782974  1.0000
  C   C10       1.0  0.12248311802619578  0.053452681850203  0.2534885794148066  1.0000
  C   C11       1.0  0.2315125264806284  0.1212277515990152  0.7877986088568746  1.0000
  C   C12       1.0  0.7684993196650679  0.8787746674633539  0.21220648292488423  1.0000
  C   C13       1.0  0.20968436860806608  0.2784030424754889  0.8736285049287459  1.0000
  C   C14       1.0  0.7903150918997781  0.7215979428868522  0.12637308373604128  1.0000
  N   N1        1.0  0.028870323655283425  0.27491641119858207  0.8945400442057547  1.0000
  N   N2        1.0  0.9711303561041619  0.7250845638462239  0.1054532238536794  1.0000
  N   N3        1.0  0.35892176258916914  0.6554000743619852  0.6636324826257364  1.0000
  N   N4        1.0  0.6410767002586583  0.3446023085971319  0.3363665477260156  1.0000
  Cl  Cl1       1.0  0.29566643480804083  0.5558909395478936  0.24766621580256037  1.0000
  Cl  Cl2       1.0  0.7043302922618225  0.4441142524928808  0.752336415279224  1.0000
  O   O1        1.0  0.23944323700957423  0.6832352247574036  0.8896271874616133  1.0000
  O   O2        1.0  0.7605549646114725  0.3167629423980998  0.11036876163502995  1.0000
