data_image0
_chemical_formula_structural       Cd2H24C32N12O8
_chemical_formula_sum              "Cd2 H24 C32 N12 O8"
_cell_length_a       7.07956488422114
_cell_length_b       9.534372681564337
_cell_length_c       13.039599527410257
_cell_angle_alpha    111.42179419679817
_cell_angle_beta     103.17260533842261
_cell_angle_gamma    89.99673128717357

_space_group_name_H-M_alt    "P 1"
_space_group_IT_number       1

loop_
  _space_group_symop_operation_xyz
  'x, y, z'

loop_
  _atom_site_type_symbol
  _atom_site_label
  _atom_site_symmetry_multiplicity
  _atom_site_fract_x
  _atom_site_fract_y
  _atom_site_fract_z
  _atom_site_occupancy
  Cd  Cd1       1.0  0.7500340791179881  0.0718707106941778  3.7070289941733175e-05  1.0000
  Cd  Cd2       1.0  0.24995482546951564  0.9281352886172628  0.999970605587997  1.0000
  H   H1        1.0  0.015757193472467255  0.9625148985842175  0.5852521576882809  1.0000
  H   H2        1.0  0.484522352630897  0.37722136461839995  0.41472804643304073  1.0000
  H   H3        1.0  0.9842486917949389  0.037491641199345296  0.4147453079274116  1.0000
  H   H4        1.0  0.5154842294247431  0.6227920539618169  0.5852691690391866  1.0000
  H   H5        1.0  0.5796478512535899  0.20079018743780352  0.553417926943375  1.0000
  H   H6        1.0  0.9204433145983942  0.6472284076478447  0.446448070464669  1.0000
  H   H7        1.0  0.4203507622254321  0.7992137930149142  0.4465848916697084  1.0000
  H   H8        1.0  0.07953651419857273  0.3527767157364394  0.5535514258935309  1.0000
  H   H9        1.0  0.9068515025446613  0.29173401805868343  0.689555829266922  1.0000
  H   H10       1.0  0.5931999061189046  0.6018846520831077  0.31035815765646657  1.0000
  H   H11       1.0  0.09316241668925336  0.7082532286209402  0.31043930820564486  1.0000
  H   H12       1.0  0.4067858277082124  0.3981092421372807  0.6896372474965062  1.0000
  H   H13       1.0  0.03896692412971702  0.25560305490763824  0.9750047660651404  1.0000
  H   H14       1.0  0.4611793131832513  0.2805382865902217  0.02506262770085505  1.0000
  H   H15       1.0  0.9610273314062924  0.7443897931248388  0.02498976392602263  1.0000
  H   H16       1.0  0.5388073496948494  0.7194647793590436  0.974932443927493  1.0000
  H   H17       1.0  0.03593392311497473  0.4114695841398017  0.929346094550958  1.0000
  H   H18       1.0  0.46424265493410394  0.48197203438743946  0.07051435973558991  1.0000
  H   H19       1.0  0.9640846445118854  0.5885297405668909  0.07066223963691713  1.0000
  H   H20       1.0  0.5357466773098737  0.5180287463044737  0.9294811242441342  1.0000
  H   H21       1.0  0.1427270212169276  0.24636076313385763  0.861114889437694  1.0000
  H   H22       1.0  0.3576824732034751  0.3853365908926989  0.13902992807448564  1.0000
  H   H23       1.0  0.8572719262977343  0.7536342657374321  0.1388830966485487  1.0000
  H   H24       1.0  0.6423126354795061  0.6146642360503947  0.860965452340473  1.0000
  C   C1        1.0  0.5212504352314795  0.10182531361089532  0.7710637427801785  1.0000
  C   C2        1.0  0.979089819017652  0.33077211307334403  0.22887913726369652  1.0000
  C   C3        1.0  0.4787542128181741  0.8981685686933218  0.2289353236897114  1.0000
  C   C4        1.0  0.020909339441580233  0.6692363605395216  0.7711257991027481  1.0000
  C   C5        1.0  0.47215092504384876  0.11878693142969614  0.6660469444127841  1.0000
  C   C6        1.0  0.02809102615422893  0.45262935647319597  0.3338993565233751  1.0000
  C   C7        1.0  0.5278634141805014  0.8812023918721439  0.3339534402152041  1.0000
  C   C8        1.0  0.9719067351271705  0.5473790514993836  0.666106938368408  1.0000
  C   C9        1.0  0.6137302918087143  0.18702247214220347  0.6348879723894072  1.0000
  C   C10       1.0  0.8864927251717988  0.5520124283303431  0.36500788857843264  1.0000
  C   C11       1.0  0.38628007904346623  0.8129715182160524  0.3651094675052562  1.0000
  C   C12       1.0  0.11350008504996369  0.44799153677262643  0.6349942720941968  1.0000
  C   C13       1.0  0.7931032761373729  0.23872816510172618  0.7105568865325084  1.0000
  C   C14       1.0  0.7070786183023684  0.5280276354199246  0.28935194353982757  1.0000
  C   C15       1.0  0.20690564390049104  0.7612658214190875  0.289440388877047  1.0000
  C   C16       1.0  0.292913490580453  0.4719707364089346  0.7106469988121802  1.0000
  C   C17       1.0  0.8314364203876963  0.22348170397717135  0.8168107920477539  1.0000
  C   C18       1.0  0.6688628637381486  0.40657932977723743  0.18314448842038197  1.0000
  C   C19       1.0  0.16856750045413094  0.7765190223848322  0.18318862129878263  1.0000
  C   C20       1.0  0.3311338298503515  0.5934213464961504  0.8168548640058121  1.0000
  C   C21       1.0  0.02232896754554052  0.2873576540863496  0.9009587123548004  1.0000
  C   C22       1.0  0.4779453283159897  0.3863521667832473  0.09905584223952964  1.0000
  C   C23       1.0  0.9776742296898037  0.7126362243804253  0.09904018962997443  1.0000
  C   C24       1.0  0.5220515438987761  0.6136508642252139  0.9009419037950579  1.0000
  C   C25       1.0  0.37508205288214913  0.029596572057663195  0.8037248751302214  1.0000
  C   C26       1.0  0.12523955713703572  0.22589857255100299  0.19621998803903307  1.0000
  C   C27       1.0  0.6249130112657754  0.9704017456432088  0.1962759192024637  1.0000
  C   C28       1.0  0.8747576859823953  0.7741053113599891  0.8037849506046089  1.0000
  C   C29       1.0  0.2747812552898168  0.07015101260969202  0.5944116174770997  1.0000
  C   C30       1.0  0.22546720696488626  0.4756000752507178  0.40551364131744805  1.0000
  C   C31       1.0  0.7252290351076455  0.9298430704528544  0.40558353790189033  1.0000
  C   C32       1.0  0.774533062772946  0.5244062328730835  0.5944884968943711  1.0000
  N   N1        1.0  0.697738112860975  0.15475353521379992  0.8449659240661803  1.0000
  N   N2        1.0  0.802601596262818  0.30980020517809237  0.1549818199385484  1.0000
  N   N3        1.0  0.30226182189186096  0.845249318060965  0.15503671996997787  1.0000
  N   N4        1.0  0.19740126238617253  0.690203910392661  0.8450184461089734  1.0000
  N   N5        1.0  0.20013336236505816  0.9793107982888002  0.7352540144281579  1.0000
  N   N6        1.0  0.3002199090950127  0.24407678364457291  0.2646723678147396  1.0000
  N   N7        1.0  0.7998610495296887  0.020683149857639197  0.2647416161302658  1.0000
  N   N8        1.0  0.6997783693990058  0.7559237419591015  0.7353309566226899  1.0000
  N   N9        1.0  0.1580929265203466  0.0005156758995212942  0.6347301771807922  1.0000
  N   N10       1.0  0.34219502197856855  0.3657095038982875  0.36521268470713864  1.0000
  N   N11       1.0  0.8419131187071401  0.9994782720449896  0.3652675307637596  1.0000
  N   N12       1.0  0.6578035155964413  0.6342932837361772  0.6347913178543649  1.0000
  O   O1        1.0  0.4193367315464371  0.02067355620869189  0.9040058541609284  1.0000
  O   O2        1.0  0.08090699217478911  0.1167950559572262  0.0959354148535212  1.0000
  O   O3        1.0  0.5806498867966  0.9793270004983443  0.0959946313851462  1.0000
  O   O4        1.0  0.9190888001303251  0.8832088241163306  0.9040693593050123  1.0000
  O   O5        1.0  0.21481901036396783  0.09291020286379853  0.5033101941510338  1.0000
  O   O6        1.0  0.28529415857636314  0.5893672897551454  0.49662649351918026  1.0000
  O   O7        1.0  0.7852049673479513  0.9070870296690005  0.49669431232710093  1.0000
  O   O8        1.0  0.7147104858719402  0.4106402845020868  0.503373431189111  1.0000
