data_image0
_chemical_formula_structural       Cd2H28C28N4O10
_chemical_formula_sum              "Cd2 H28 C28 N4 O10"
_cell_length_a       6.1927127296508555
_cell_length_b       7.930131420933562
_cell_length_c       17.23603349812753
_cell_angle_alpha    88.7608160784131
_cell_angle_beta     107.40009015891674
_cell_angle_gamma    111.56995945537078

_space_group_name_H-M_alt    "P 1"
_space_group_IT_number       1

loop_
  _space_group_symop_operation_xyz
  'x, y, z'

loop_
  _atom_site_type_symbol
  _atom_site_label
  _atom_site_symmetry_multiplicity
  _atom_site_fract_x
  _atom_site_fract_y
  _atom_site_fract_z
  _atom_site_occupancy
  Cd  Cd1       1.0  0.003486801453256455  0.762370364129204  0.7542089765275222  1.0000
  Cd  Cd2       1.0  0.9965033585886334  0.23762504316095354  0.24579397131876857  1.0000
  H   H1        1.0  0.6583402138515596  0.2365102410063145  0.5519913098620536  1.0000
  H   H2        1.0  0.34164201714801845  0.7634801866120285  0.4480022015482561  1.0000
  H   H3        1.0  0.3505706212909558  0.054267155699285814  0.4225580418037254  1.0000
  H   H4        1.0  0.649411684184493  0.9457190594447696  0.5774377464411843  1.0000
  H   H5        1.0  0.8346126899684736  0.26665924698836824  0.4566315361045739  1.0000
  H   H6        1.0  0.16539070046702897  0.7333251974847529  0.5433734861770533  1.0000
  H   H7        1.0  0.13775930876546036  0.4411305172740897  0.5868497196723651  1.0000
  H   H8        1.0  0.8622466347882352  0.5588967255352773  0.4131456155518123  1.0000
  H   H9        1.0  0.9173578956034094  0.9377772069602416  0.34114552369993595  1.0000
  H   H10       1.0  0.08262140710414911  0.062202071060689014  0.6588522573206815  1.0000
  H   H11       1.0  0.7293350072296008  0.035846362913353906  0.3499135476018651  1.0000
  H   H12       1.0  0.270649855652721  0.9641491073145688  0.6500878121563075  1.0000
  H   H13       1.0  0.40366627129991184  0.31553266632867155  0.966083929624979  1.0000
  H   H14       1.0  0.5963486424155847  0.6844723702480807  0.03391938809325271  1.0000
  H   H15       1.0  0.3805200011971834  0.4631802645606627  0.0884755650645843  1.0000
  H   H16       1.0  0.6194876042451085  0.5368165353458352  0.9115282181346345  1.0000
  H   H17       1.0  0.6025970063760084  0.16314115533022294  0.011860317537404807  1.0000
  H   H18       1.0  0.3974145642860593  0.8368554878203371  0.9881466921983488  1.0000
  H   H19       1.0  0.6248049884781963  0.02444299154434051  0.8904861707365439  1.0000
  H   H20       1.0  0.3752080135616964  0.9755799757459729  0.10951316462558221  1.0000
  H   H21       1.0  0.10963436500981062  0.5333188534360502  0.14637375332517172  1.0000
  H   H22       1.0  0.8903941193848368  0.4666766766267543  0.8536299395865896  1.0000
  H   H23       1.0  0.8109420604344635  0.40962014847324485  0.12139118012221672  1.0000
  H   H24       1.0  0.18908020538201964  0.5903973059396679  0.8786099865016439  1.0000
  H   H25       1.0  0.54277142737552  0.8207683528162165  0.7962759342694667  1.0000
  H   H26       1.0  0.45723052599623776  0.1792286039532129  0.2037244871779933  1.0000
  H   H27       1.0  0.3895885964774806  0.6428923573957235  0.7391572954293154  1.0000
  H   H28       1.0  0.6103999059160188  0.3571087813955743  0.2608403586829128  1.0000
  C   C1        1.0  0.6153840626540584  0.47754223331659773  0.6478340653501605  1.0000
  C   C2        1.0  0.38460078560284233  0.5224547871395729  0.35216382150255743  1.0000
  C   C3        1.0  0.4194844595881265  0.35106194458377626  0.5774098457975184  1.0000
  C   C4        1.0  0.5805207797810894  0.6489354814905114  0.4225821129774374  1.0000
  C   C5        1.0  0.4752505459777082  0.23874924551580531  0.5312672904074063  1.0000
  C   C6        1.0  0.524770878485022  0.7612646851004004  0.46872328139958347  1.0000
  C   C7        1.0  0.3044682097487054  0.1380696761496409  0.45931929673980676  1.0000
  C   C8        1.0  0.6955098020523567  0.8619242755864037  0.5406844038416736  1.0000
  C   C9        1.0  0.07311697845553773  0.14837623295295546  0.4320441335890806  1.0000
  C   C10       1.0  0.9268474828807669  0.85160450233402  0.5679507312526438  1.0000
  C   C11       1.0  0.01375864051910015  0.257090415488932  0.47854446394405414  1.0000
  C   C12       1.0  0.9862238987206952  0.7429151552563698  0.521446369139383  1.0000
  C   C13       1.0  0.18463510996843982  0.35632856621951703  0.5509104451595732  1.0000
  C   C14       1.0  0.8153543284205894  0.6436579927818329  0.449079515728151  1.0000
  C   C15       1.0  0.03517523832206139  0.05545150226164  0.8522530104425526  1.0000
  C   C16       1.0  0.9648376920849204  0.94455625928493  0.14775018568887788  1.0000
  C   C17       1.0  0.017517225822075606  0.15840282529854488  0.9199808754206131  1.0000
  C   C18       1.0  0.9824987818286601  0.8416076608968553  0.08002260476970238  1.0000
  C   C19       1.0  0.2285813762849145  0.2846538243957824  0.9762512105376685  1.0000
  C   C20       1.0  0.7714268484807719  0.7153538435466091  0.023753353611702707  1.0000
  C   C21       1.0  0.2161510141822446  0.3673155067555952  0.04411216409032189  1.0000
  C   C22       1.0  0.7838665050081134  0.6326782546692089  0.9558981937687605  1.0000
  C   C23       1.0  0.9899696165137328  0.3255968599312027  0.05714194062747422  1.0000
  C   C24       1.0  0.01004400908975374  0.6744122639932827  0.9428613299257834  1.0000
  C   C25       1.0  0.7786232131212146  0.19995293108940615  0.0015524191708565396  1.0000
  C   C26       1.0  0.22138196784327857  0.8000330321965806  0.9984498566417698  1.0000
  C   C27       1.0  0.7924053424633328  0.11928338457141761  0.9333643362652778  1.0000
  C   C28       1.0  0.20760044180187986  0.8807202901624009  0.0666382309549718  1.0000
  N   N1        1.0  0.9065058861484375  0.05804687868280211  0.3553702854048311  1.0000
  N   N2        1.0  0.09345731488097925  0.9419489685297436  0.6446223571159991  1.0000
  N   N3        1.0  0.9782566158765462  0.4059237810701646  0.1272591857385663  1.0000
  N   N4        1.0  0.02177105362070366  0.594075711106811  0.8727468248930705  1.0000
  O   O1        1.0  0.8323840242604776  0.480566428337852  0.6660094734748013  1.0000
  O   O2        1.0  0.1676170104871701  0.5194418034765392  0.3339840430470388  1.0000
  O   O3        1.0  0.5635850434999841  0.5881159500378177  0.685280338497023  1.0000
  O   O4        1.0  0.43641368367627825  0.4118867070313712  0.31471524522235933  1.0000
  O   O5        1.0  0.24146256596796437  0.06985410277841451  0.8478043180961023  1.0000
  O   O6        1.0  0.7585426253817503  0.9301550216810526  0.152198276380993  1.0000
  O   O7        1.0  0.8337579590972339  0.9440953080896222  0.8010743000262436  1.0000
  O   O8        1.0  0.1662506964525221  0.05590276026961761  0.19893133125844292  1.0000
  O   O9        1.0  0.3772391242275077  0.7201421913481598  0.780764525310772  1.0000
  O   O10       1.0  0.6227467156836469  0.2798534666231022  0.21923342233534981  1.0000
