data_image0
_chemical_formula_structural       Cu2H16C20Se4N4O8
_chemical_formula_sum              "Cu2 H16 C20 Se4 N4 O8"
_cell_length_a       7.634492236665246
_cell_length_b       8.065796800500763
_cell_length_c       10.532356290212626
_cell_angle_alpha    90.00073115968365
_cell_angle_beta     89.99978343273763
_cell_angle_gamma    112.2580203726502

_space_group_name_H-M_alt    "P 1"
_space_group_IT_number       1

loop_
  _space_group_symop_operation_xyz
  'x, y, z'

loop_
  _atom_site_type_symbol
  _atom_site_label
  _atom_site_symmetry_multiplicity
  _atom_site_fract_x
  _atom_site_fract_y
  _atom_site_fract_z
  _atom_site_occupancy
  Cu  Cu1       1.0  0.49999948651332465  0.9999975566297366  0.5000005464001589  1.0000
  Cu  Cu2       1.0  0.4999976442357907  0.5000028659614629  7.45245202399999e-07  1.0000
  H   H1        1.0  0.11497216182191043  0.9362733655664428  0.586399351261555  1.0000
  H   H2        1.0  0.8850270298355127  0.5637298857436973  0.08639328450510668  1.0000
  H   H3        1.0  0.8850297935720661  0.0637221958482641  0.4135996430505386  1.0000
  H   H4        1.0  0.11496882498896345  0.4362764573050411  0.9136038109595077  1.0000
  H   H5        1.0  0.03032856785932841  0.48419630137119196  0.2542749842814018  1.0000
  H   H6        1.0  0.9696574664992925  0.015805038161367697  0.7542647341654812  1.0000
  H   H7        1.0  0.9696775258290132  0.5157965484208019  0.7457249594659885  1.0000
  H   H8        1.0  0.030345139772116118  0.984198577054542  0.24573426018543637  1.0000
  H   H9        1.0  0.7400531065338143  0.5056069356221257  0.3523992258812427  1.0000
  H   H10       1.0  0.25993040289741737  0.9943929688894997  0.852385477548644  1.0000
  H   H11       1.0  0.25995244315318183  0.4943845745973973  0.6476035662258468  1.0000
  H   H12       1.0  0.7400690462189206  0.0056093229558272  0.14761446625580277  1.0000
  H   H13       1.0  0.7828645969660498  0.7356801486834001  0.5265873405329202  1.0000
  H   H14       1.0  0.2171272604961771  0.7643301684896927  0.0265748948922848  1.0000
  H   H15       1.0  0.21713801412965947  0.26430735084563384  0.4734145021037435  1.0000
  H   H16       1.0  0.7828630425902221  0.23567218011979213  0.9734250489266928  1.0000
  C   C1        1.0  0.2184339747665831  0.6990108570592853  0.3690743770568687  1.0000
  C   C2        1.0  0.7815579587249672  0.8009906274170859  0.8690656355052867  1.0000
  C   C3        1.0  0.7815705937799536  0.3009846881453271  0.6309255667062317  1.0000
  C   C4        1.0  0.218438658671559  0.19901436793357166  0.1309324094066397  1.0000
  C   C5        1.0  0.08595051683371921  0.833465592572935  0.5137370846853528  1.0000
  C   C6        1.0  0.9140403282168349  0.6665485369791851  0.0137319447436113  1.0000
  C   C7        1.0  0.9140464308258344  0.1665273139914376  0.4862638085317244  1.0000
  C   C8        1.0  0.08595552660879949  0.33345780607778147  0.9862661001761595  1.0000
  C   C9        1.0  0.041572138683584135  0.5828934540479908  0.3277442950959468  1.0000
  C   C10       1.0  0.9584163184764234  0.9171086781601258  0.8277418481952098  1.0000
  C   C11       1.0  0.9584350430132176  0.4171020749300567  0.6722546992078476  1.0000
  C   C12       1.0  0.04158313063992129  0.08289361368520078  0.17225809560923716  1.0000
  C   C13       1.0  0.8806378769051832  0.5949422009239951  0.38310387918853905  1.0000
  C   C14       1.0  0.11935082188562512  0.9050676047723412  0.8830906344131505  1.0000
  C   C15       1.0  0.11936767277604328  0.4050493092543945  0.6168941656427549  1.0000
  C   C16       1.0  0.8806484086611591  0.09493737435175831  0.1169064610394557  1.0000
  C   C17       1.0  0.9037214796132818  0.7218437097951452  0.4786073169248866  1.0000
  C   C18       1.0  0.09626800051367475  0.778152974926691  0.978602383013957  1.0000
  C   C19       1.0  0.0962809129151836  0.27814647702911094  0.5213935762702562  1.0000
  C   C20       1.0  0.903726222298687  0.22184934934706746  0.0213966113436399  1.0000
  Se  Se1       1.0  0.45835985858540346  0.6920042282732767  0.2985588836236772  1.0000
  Se  Se2       1.0  0.5416251518130651  0.807998762162498  0.7985661500568639  1.0000
  Se  Se3       1.0  0.5416437288218391  0.3079953519246387  0.7014391612506046  1.0000
  Se  Se4       1.0  0.45837625475641636  0.19201157537485605  0.20143379378433926  1.0000
  N   N1        1.0  0.24107251582574907  0.8221037254777243  0.45950580719433276  1.0000
  N   N2        1.0  0.7589202935258116  0.6778912643227527  0.9595044633798793  1.0000
  N   N3        1.0  0.758926282414322  0.17789051257462762  0.5404950860264464  1.0000
  N   N4        1.0  0.24107686787783678  0.32211507064150163  0.0404954804481363  1.0000
  O   O1        1.0  0.42889543453301837  0.722303268175466  0.1426756327329102  1.0000
  O   O2        1.0  0.5711002950304404  0.7777211254258133  0.6426796593392509  1.0000
  O   O3        1.0  0.5711029265737082  0.27769634447556507  0.8573243110599834  1.0000
  O   O4        1.0  0.4288968663708985  0.22228520952198494  0.357318385578445  1.0000
  O   O5        1.0  0.5986368856350238  0.9020870566591129  0.3582500512333482  1.0000
  O   O6        1.0  0.4013582903652592  0.597906162178873  0.8582499793334932  1.0000
  O   O7        1.0  0.4013627820474142  0.09791254788275691  0.6417498925574704  1.0000
  O   O8        1.0  0.5986449667893581  0.4021055068793657  0.1417537623320442  1.0000
