data_image0
_chemical_formula_structural       Fe2H36C52S4N20
_chemical_formula_sum              "Fe2 H36 C52 S4 N20"
_cell_length_a       8.620367878845512
_cell_length_b       8.68479327219002
_cell_length_c       17.5736
_cell_angle_alpha    97.06289589091351
_cell_angle_beta     103.83884939123082
_cell_angle_gamma    94.46941645324816

_space_group_name_H-M_alt    "P 1"
_space_group_IT_number       1

loop_
  _space_group_symop_operation_xyz
  'x, y, z'

loop_
  _atom_site_type_symbol
  _atom_site_label
  _atom_site_symmetry_multiplicity
  _atom_site_fract_x
  _atom_site_fract_y
  _atom_site_fract_z
  _atom_site_occupancy
  Fe  Fe1       1.0  0.9912800268275745  0.4788078663037751  0.5007401789776651  1.0000
  Fe  Fe2       1.0  0.5093837684046889  0.0224698586355458  0.0030087478602780285  1.0000
  H   H1        1.0  0.23025687907501446  0.7764418438481187  0.7298187183781266  1.0000
  H   H2        1.0  0.7661676279512476  0.2220028104233478  0.2709762639944485  1.0000
  H   H3        1.0  0.1738597632029624  0.5390314305767347  0.7962979607192509  1.0000
  H   H4        1.0  0.8355577379931347  0.4509067605325895  0.20958401160955725  1.0000
  H   H5        1.0  0.2410088454147328  0.048753965850657686  0.653783768583338  1.0000
  H   H6        1.0  0.7652673216196958  0.9497945966312712  0.3427715767869159  1.0000
  H   H7        1.0  0.5005567471447989  0.8920134590581767  0.5232038492817424  1.0000
  H   H8        1.0  0.49180761287864544  0.11855109558197088  0.480541626775576  1.0000
  H   H9        1.0  0.7382300934549093  0.7057142102545768  0.535118889464293  1.0000
  H   H10       1.0  0.2553972856550928  0.302925123722062  0.4738115434374208  1.0000
  H   H11       1.0  0.12890291438596077  0.996407352841615  0.9807286650276693  1.0000
  H   H12       1.0  0.8492149941627929  0.0105379270520842  0.008415932787308105  1.0000
  H   H13       1.0  0.8747702827306655  0.8233616546579157  0.906771119622128  1.0000
  H   H14       1.0  0.1112958861839886  0.16014590248255436  0.08699860935767839  1.0000
  H   H15       1.0  0.8980590177550454  0.5868070247378725  0.8170615262170741  1.0000
  H   H16       1.0  0.10667225216721479  0.39080461708983444  0.18489775410809978  1.0000
  H   H17       1.0  0.5281477045385685  0.8161861505960815  0.3835242470664468  1.0000
  H   H18       1.0  0.47347378004602086  0.2049957216389799  0.6212110890630314  1.0000
  H   H19       1.0  0.8933335090485243  0.600219356443432  0.09930358379889978  1.0000
  H   H20       1.0  0.11138308293481457  0.3807640484383867  0.8950778722097397  1.0000
  H   H21       1.0  0.593897862516954  0.466554870025071  0.8608191805116832  1.0000
  H   H22       1.0  0.3874139605391562  0.5313947608617298  0.1367675919796625  1.0000
  H   H23       1.0  0.7253076445002549  0.9703158844436501  0.6064273087538012  1.0000
  H   H24       1.0  0.28015639143224297  0.04800442572575039  0.3984973601904755  1.0000
  H   H25       1.0  0.3292284073070205  0.6108144913866695  0.2934592222764465  1.0000
  H   H26       1.0  0.6852601074007082  0.4046582668128593  0.7071895413500895  1.0000
  H   H27       1.0  0.9842383361907068  0.146271237615835  0.6664270062872929  1.0000
  H   H28       1.0  0.028818064996009703  0.8642571242768469  0.3322163123109902  1.0000
  H   H29       1.0  0.8125554172480207  0.408032364882942  0.9714624339119522  1.0000
  H   H30       1.0  0.1696560919228958  0.5760542762169649  0.02193630561878019  1.0000
  H   H31       1.0  0.7726265566186115  0.7271741744850644  0.7073647195185869  1.0000
  H   H32       1.0  0.22347067384563962  0.270552462377033  0.2927137580154664  1.0000
  H   H33       1.0  0.7443546472125745  0.833405725833309  0.10961964891353657  1.0000
  H   H34       1.0  0.2805598185053242  0.1635024879328952  0.8893967195615032  1.0000
  H   H35       1.0  0.1107127340658636  0.4826197798673775  0.3465349826795361  1.0000
  H   H36       1.0  0.9055365169277109  0.5147998023952596  0.6509984272226532  1.0000
  C   C1        1.0  0.35168821184779375  0.7637627071557134  0.7249513173604427  1.0000
  C   C2        1.0  0.6448482298262944  0.2352411834394772  0.2757769736867672  1.0000
  C   C3        1.0  0.1246681529093081  0.8239045458698868  0.5898746188823124  1.0000
  C   C4        1.0  0.871340766701941  0.1731250887265219  0.4109233242538934  1.0000
  C   C5        1.0  0.2880230878927179  0.747278661947604  0.874970358988783  1.0000
  C   C6        1.0  0.7087093085038773  0.2561208962025532  0.1257088842626715  1.0000
  C   C7        1.0  0.5646962358750686  0.6859319549952615  0.9255614740697806  1.0000
  C   C8        1.0  0.43632350799305186  0.3174839482666556  0.0754152398513384  1.0000
  C   C9        1.0  0.3913772081272384  0.7607341914485275  0.6522952621105915  1.0000
  C   C10       1.0  0.6035891127002486  0.23350743408513347  0.3477431898466179  1.0000
  C   C11       1.0  0.1549567834002374  0.6409291922931075  0.8347071254139492  1.0000
  C   C12       1.0  0.848101691846601  0.3510859955174935  0.16799713438686575  1.0000
  C   C13       1.0  0.2962543993326676  0.7230797239896418  0.5067533148926273  1.0000
  C   C14       1.0  0.7028924079748436  0.2743608734166827  0.4931830481092945  1.0000
  C   C15       1.0  0.1275004438239193  0.9753268287055122  0.6281587256654149  1.0000
  C   C16       1.0  0.8762801578989396  0.0259525349480185  0.37044801982150927  1.0000
  C   C17       1.0  0.2171087306983068  0.3952820102035872  0.6510653399997182  1.0000
  C   C18       1.0  0.7811435961673965  0.5887357479253339  0.35247254897716823  1.0000
  C   C19       1.0  0.4194466056932741  0.8005485486754508  0.48189952905924116  1.0000
  C   C20       1.0  0.5780134507558827  0.207830431021037  0.5205532701577839  1.0000
  C   C21       1.0  0.8467719253908186  0.7852915543571868  0.5624708952451556  1.0000
  C   C22       1.0  0.1498712141161676  0.2219024047368308  0.4435235875576993  1.0000
  C   C23       1.0  0.4724146848783164  0.7366578418287446  0.7891956408899146  1.0000
  C   C24       1.0  0.5258298818122924  0.2682489691271144  0.2124121275507491  1.0000
  C   C25       1.0  0.13081243132138104  0.8951890807711891  0.9379661756314235  1.0000
  C   C26       1.0  0.8540021237676924  0.1061439882495421  0.05520120863473467  1.0000
  C   C27       1.0  0.9917389496106425  0.7982427204095686  0.898408374424605  1.0000
  C   C28       1.0  0.9976920429183097  0.1914129337679427  0.0976241455892293  1.0000
  C   C29       1.0  0.004716000697243296  0.6676394399219134  0.8464644403865975  1.0000
  C   C30       1.0  0.995176424539423  0.3183759243654549  0.15414149057353646  1.0000
  C   C31       1.0  0.433368443662161  0.7590389698576061  0.4050722897364523  1.0000
  C   C32       1.0  0.5688117320396913  0.2549417131399991  0.5975952873198977  1.0000
  C   C33       1.0  0.7986003955193297  0.618999889853562  0.04920246136862968  1.0000
  C   C34       1.0  0.2048202319641987  0.3689231824775803  0.9471802066196345  1.0000
  C   C35       1.0  0.6337901246257899  0.5464275936473086  0.9163165503159262  1.0000
  C   C36       1.0  0.35588051895127387  0.4500684898009908  0.08166359822335069  1.0000
  C   C37       1.0  0.8402018380236669  0.9333607542664237  0.6010595705855053  1.0000
  C   C38       1.0  0.1623579723039299  0.0782113597628182  0.4026619017242651  1.0000
  C   C39       1.0  0.3219709686567427  0.6432747158304011  0.3542367005609463  1.0000
  C   C40       1.0  0.6874300362719197  0.367445117371453  0.6460521161075478  1.0000
  C   C41       1.0  0.9833810387985977  0.0298368340065451  0.6350307801410011  1.0000
  C   C42       1.0  0.0236346265384455  0.9778252957885414  0.3650068859360474  1.0000
  C   C43       1.0  0.7547331918357189  0.5143678244416492  0.9785661429529782  1.0000
  C   C44       1.0  0.2357899578041724  0.4747075782684433  0.0171852911410397  1.0000
  C   C45       1.0  0.6486997460562236  0.731533649292565  0.711816735269103  1.0000
  C   C46       1.0  0.3477097239929279  0.2674048608555992  0.2886212553538599  1.0000
  C   C47       1.0  0.7187159163414378  0.7509644846490744  0.0550325548439545  1.0000
  C   C48       1.0  0.29558177115753637  0.24481474889783067  0.9435515416467695  1.0000
  C   C49       1.0  0.202686447475827  0.5723135806403121  0.3832328773351961  1.0000
  C   C50       1.0  0.8087930797362474  0.4286960886692056  0.6155944595390395  1.0000
  C   C51       1.0  0.6570282616017664  0.1096348371178948  0.8689378954796537  1.0000
  C   C52       1.0  0.35068695670422306  0.9074175593822673  0.12904726152377316  1.0000
  S   S1        1.0  0.3207654987389644  0.3371214325361079  0.7302872477520879  1.0000
  S   S2        1.0  0.6866204099623445  0.658884297559446  0.274881175260262  1.0000
  S   S3        1.0  0.7612260836481611  0.1653494855615634  0.8097533171742625  1.0000
  S   S4        1.0  0.242485663949715  0.8367669813155771  0.1832331767568363  1.0000
  N   N1        1.0  0.9869513013890837  0.7299633510557939  0.5588885615287396  1.0000
  N   N2        1.0  0.005761842108583398  0.2725699161711788  0.4466023040541387  1.0000
  N   N3        1.0  0.442941137918865  0.7248695137271639  0.8626461245472044  1.0000
  N   N4        1.0  0.5578246801635132  0.2861235163426485  0.1398964510297276  1.0000
  N   N5        1.0  0.19243320810403466  0.6086534341106429  0.4584937761933148  1.0000
  N   N6        1.0  0.8166679619726978  0.3863283914840636  0.5394577610482543  1.0000
  N   N7        1.0  0.2725020517570655  0.7677112191532984  0.5834453549974228  1.0000
  N   N8        1.0  0.7210094242466596  0.2215544873579844  0.4166298895835467  1.0000
  N   N9        1.0  0.2758293213745873  0.8716299371877623  0.925527936807022  1.0000
  N   N10       1.0  0.7091010364602469  0.1354519411399124  0.06873414454575062  1.0000
  N   N11       1.0  0.6076093137362548  0.7863808393050675  0.9934320282143714  1.0000
  N   N12       1.0  0.4066746911989938  0.2145599470334716  0.007587748235131585  1.0000
  N   N13       1.0  0.6239976536872618  0.7230552063220088  0.7830800120277955  1.0000
  N   N14       1.0  0.37432947799123173  0.28211312642198283  0.2182767841795155  1.0000
  N   N15       1.0  0.1418952486592886  0.4388335604832179  0.5932390066239321  1.0000
  N   N16       1.0  0.8500640150382779  0.5362434215139871  0.40876513799305775  1.0000
  N   N17       1.0  0.5413495210214592  0.7449740011897035  0.6449223473666236  1.0000
  N   N18       1.0  0.4536899659597892  0.24875975837146308  0.3549902639574896  1.0000
  N   N19       1.0  0.5802866782059581  0.0668176493593933  0.911929175863598  1.0000
  N   N20       1.0  0.42951842293624753  0.9596950643247909  0.08929502056426489  1.0000
