data_image0
_chemical_formula_structural       Er4H12C16O36
_chemical_formula_sum              "Er4 H12 C16 O36"
_cell_length_a       10.536698689325341
_cell_length_b       9.893507296005641
_cell_length_c       11.968290527208023
_cell_angle_alpha    89.99936972880946
_cell_angle_beta     107.12260816524439
_cell_angle_gamma    89.9991654864989

_space_group_name_H-M_alt    "P 1"
_space_group_IT_number       1

loop_
  _space_group_symop_operation_xyz
  'x, y, z'

loop_
  _atom_site_type_symbol
  _atom_site_label
  _atom_site_symmetry_multiplicity
  _atom_site_fract_x
  _atom_site_fract_y
  _atom_site_fract_z
  _atom_site_occupancy
  Er  Er1       1.0  0.20596951976591532  0.9294073053163386  0.3845650475424733  1.0000
  Er  Er2       1.0  0.294031880196286  0.42941625593102367  0.11543720641986967  1.0000
  Er  Er3       1.0  0.7940418120166728  0.07058605556796493  0.6154455913213326  1.0000
  Er  Er4       1.0  0.7059574728028721  0.5705841794282307  0.8845566446049773  1.0000
  H   H1        1.0  0.9824307915453903  0.8401488667120348  0.18619105245988982  1.0000
  H   H2        1.0  0.5175913092232493  0.3401378562744881  0.31379616346723077  1.0000
  H   H3        1.0  0.017572824393148778  0.1598768391050598  0.8138516349658858  1.0000
  H   H4        1.0  0.4824070610245315  0.6598656105560323  0.6861482849259772  1.0000
  H   H5        1.0  0.13204805321559124  0.9500416778532923  0.1124719539281216  1.0000
  H   H6        1.0  0.3679651692448616  0.45003419048727283  0.3875197374352126  1.0000
  H   H7        1.0  0.867922372985973  0.049996155438677185  0.887527487435861  1.0000
  H   H8        1.0  0.6320608467812222  0.5499864609555232  0.6124710843287318  1.0000
  H   H9        1.0  0.0917328893789886  0.7430828044738435  0.1623641104830824  1.0000
  H   H10       1.0  0.4082888165955509  0.24308625824716765  0.3376418645898127  1.0000
  H   H11       1.0  0.9082463252201833  0.2569449211770518  0.8376252811657706  1.0000
  H   H12       1.0  0.5917400149166951  0.7569303506216374  0.6623687762494014  1.0000
  C   C1        1.0  0.2836607094442485  0.6244163802607332  0.393471698158443  1.0000
  C   C2        1.0  0.21634963822608455  0.1244222860101019  0.1065216307463928  1.0000
  C   C3        1.0  0.7163366003563851  0.37558304434458734  0.6065136199003831  1.0000
  C   C4        1.0  0.7836536527915356  0.8755781497529895  0.8934757310427414  1.0000
  C   C5        1.0  0.34457308672909903  0.6837345739205463  0.3002697007135282  1.0000
  C   C6        1.0  0.155436109667761  0.18375261269400064  0.199724450907901  1.0000
  C   C7        1.0  0.6554214126061666  0.3162537322390833  0.6997167551928882  1.0000
  C   C8        1.0  0.8445699961322221  0.8162589419535636  0.8002927294193256  1.0000
  C   C9        1.0  0.4961620743066463  0.05942190964776729  0.4575076288773801  1.0000
  C   C10       1.0  0.0038326510302865986  0.5594234221451161  0.0424978882519866  1.0000
  C   C11       1.0  0.503836154385283  0.9405835804261999  0.5425189381066886  1.0000
  C   C12       1.0  0.9961658068880227  0.4405871209300046  0.9574893261020493  1.0000
  C   C13       1.0  0.9468013033500429  0.9595844564437146  0.45287644081874845  1.0000
  C   C14       1.0  0.553185240901776  0.45958115191586274  0.047111031636049516  1.0000
  C   C15       1.0  0.05320615015289577  0.0403664522668876  0.5471342937537997  1.0000
  C   C16       1.0  0.4467980151644184  0.5403930033779432  0.9528799745864163  1.0000
  O   O1        1.0  0.2077141781897112  0.6962927768811228  0.4295017029470714  1.0000
  O   O2        1.0  0.2923108819766753  0.1962947103409576  0.0705073979141417  1.0000
  O   O3        1.0  0.7922948142966248  0.303704626695648  0.5704942374822862  1.0000
  O   O4        1.0  0.7076859559510426  0.8037047145846684  0.9294937558895526  1.0000
  O   O5        1.0  0.31478062996642825  0.5013574247188117  0.4322450366201664  1.0000
  O   O6        1.0  0.18523128066631506  0.0013723611372356  0.06774506236601503  1.0000
  O   O7        1.0  0.685241744795796  0.498644022179171  0.567748440349277  1.0000
  O   O8        1.0  0.814736568660166  0.9986583963850892  0.9322371206370335  1.0000
  O   O9        1.0  0.3437511563034619  0.810783422000455  0.29494025055424083  1.0000
  O   O10       1.0  0.1562620090650739  0.3107825187366231  0.2050680389390465  1.0000
  O   O11       1.0  0.6562510697154238  0.18921802491814083  0.7050770243357647  1.0000
  O   O12       1.0  0.8437398955991638  0.6892098307891174  0.7949248661270261  1.0000
  O   O13       1.0  0.3852716448895279  0.6018168698377337  0.2377638446592769  1.0000
  O   O14       1.0  0.11474044657899898  0.10180931665419021  0.262237723836904  1.0000
  O   O15       1.0  0.6147354048439765  0.39819064111362223  0.7622216643214584  1.0000
  O   O16       1.0  0.8852645103525916  0.8982072917459334  0.7377775596221241  1.0000
  O   O17       1.0  0.3808037980054522  0.0884378019968466  0.3898720424768172  1.0000
  O   O18       1.0  0.1191937383013624  0.5884445823153044  0.1101383415238644  1.0000
  O   O19       1.0  0.6192015982958524  0.9115636452728207  0.6101584136329805  1.0000
  O   O20       1.0  0.8808015537922741  0.4115629285558455  0.8898566481035104  1.0000
  O   O21       1.0  0.6018604755855534  0.12028562067260404  0.4612886485003287  1.0000
  O   O22       1.0  0.8981339704860716  0.6202824182839493  0.038720018148069364  1.0000
  O   O23       1.0  0.3981451176265978  0.8797016757324555  0.5387334635183265  1.0000
  O   O24       1.0  0.10185340317465118  0.3797079093814589  0.9612734536171601  1.0000
  O   O25       1.0  0.9871596521635342  0.8995029949841467  0.3763927963022624  1.0000
  O   O26       1.0  0.5128201953089544  0.3994807639793762  0.12359238929087724  1.0000
  O   O27       1.0  0.01283330110305058  0.100498450940492  0.6235874952487848  1.0000
  O   O28       1.0  0.4871711000207669  0.6005186608803683  0.8764118928602967  1.0000
  O   O29       1.0  0.8297326582320537  0.9611727888058821  0.46074257153864545  1.0000
  O   O30       1.0  0.6702603509797883  0.4611575214305574  0.03924270369223138  1.0000
  O   O31       1.0  0.17028664283343883  0.0387366795624473  0.5393014500670503  1.0000
  O   O32       1.0  0.32971569638676357  0.538804504215925  0.9607335090645746  1.0000
  O   O33       1.0  0.07579963039456318  0.8367797679884462  0.1880851927251612  1.0000
  O   O34       1.0  0.4242115560823763  0.3367727921898833  0.3119154706090086  1.0000
  O   O35       1.0  0.9241901180688361  0.1632499796225702  0.8119129244618435  1.0000
  O   O36       1.0  0.5758142222241104  0.6632397730824878  0.6880727911210159  1.0000
