data_image0
_chemical_formula_structural       Zn4Mo4H24C24N4O16
_chemical_formula_sum              "Zn4 Mo4 H24 C24 N4 O16"
_cell_length_a       8.132882205302332
_cell_length_b       9.601139316006432
_cell_length_c       10.962219173305437
_cell_angle_alpha    89.99989040675047
_cell_angle_beta     103.11569902965373
_cell_angle_gamma    90.00009918089572

_space_group_name_H-M_alt    "P 1"
_space_group_IT_number       1

loop_
  _space_group_symop_operation_xyz
  'x, y, z'

loop_
  _atom_site_type_symbol
  _atom_site_label
  _atom_site_symmetry_multiplicity
  _atom_site_fract_x
  _atom_site_fract_y
  _atom_site_fract_z
  _atom_site_occupancy
  Zn  Zn1       1.0  0.30475355901692325  0.5266101562311362  0.44143915680260193  1.0000
  Zn  Zn2       1.0  0.19524697322457743  0.02660991095934411  0.5585609395820654  1.0000
  Zn  Zn3       1.0  0.6952473413749587  0.47338954682442147  0.558561906837511  1.0000
  Zn  Zn4       1.0  0.8047514154984936  0.9733918751819813  0.441438769947858  1.0000
  Mo  Mo1       1.0  0.4363942520858685  0.20935944792471864  0.36375027347785505  1.0000
  Mo  Mo2       1.0  0.0636053128296012  0.7093578675090342  0.6362493474500326  1.0000
  Mo  Mo3       1.0  0.5636053990785188  0.7906423382172888  0.6362496581315256  1.0000
  Mo  Mo4       1.0  0.9363943383339476  0.2906428770899154  0.3637505841600728  1.0000
  H   H1        1.0  0.1478956553177255  0.4860141171837924  0.169478703972203  1.0000
  H   H2        1.0  0.35210688124345063  0.9860146152780733  0.8305209775369988  1.0000
  H   H3        1.0  0.8521014577493348  0.513984544326661  0.8305216934302422  1.0000
  H   H4        1.0  0.6478914942649396  0.013984046233069604  0.1694796419449105  1.0000
  H   H5        1.0  0.017211631262568992  0.6395626044460984  0.9872367609375345  1.0000
  H   H6        1.0  0.482790372251941  0.13956711040614075  0.012761581017336716  1.0000
  H   H7        1.0  0.9827829701314671  0.3604329324348399  0.012762282358330927  1.0000
  H   H8        1.0  0.5172118037951065  0.8604346757372313  0.9872387947509722  1.0000
  H   H9        1.0  0.17756303928776873  0.9931872171103894  0.2279848993068185  1.0000
  H   H10       1.0  0.3224395617090253  0.493191895603694  0.7720111324548427  1.0000
  H   H11       1.0  0.8224391499680692  0.006810402861773901  0.7720145665145566  1.0000
  H   H12       1.0  0.6775575645743926  0.5068119736230656  0.2279883549941744  1.0000
  H   H13       1.0  0.3045166296685694  0.8294805131891039  0.3948374963807383  1.0000
  H   H14       1.0  0.19548820541407963  0.3294759992954612  0.605161026421932  1.0000
  H   H15       1.0  0.6954855595881071  0.17051814832611004  0.6051619694399122  1.0000
  H   H16       1.0  0.8045088944425061  0.6705247453000993  0.3948402809288964  1.0000
  H   H17       1.0  0.8756317299196255  0.8817928691052402  0.943668281147403  1.0000
  H   H18       1.0  0.6243707192084146  0.3817936275850897  0.05632954907510881  1.0000
  H   H19       1.0  0.12436793445523621  0.11820683395166752  0.05633074051360149  1.0000
  H   H20       1.0  0.3756314700491075  0.6182060754731824  0.9436699167448168  1.0000
  H   H21       1.0  0.07263487707760422  0.9062831599926328  0.9096888665269064  1.0000
  H   H22       1.0  0.4273650058437681  0.40628116417097  0.09031048137048708  1.0000
  H   H23       1.0  0.9273647740851134  0.09371654306326599  0.09031106508392382  1.0000
  H   H24       1.0  0.5726359077611107  0.5937195804286687  0.9096896723190823  1.0000
  C   C1        1.0  0.151789091534468  0.5993496202780264  0.1763542055999494  1.0000
  C   C2        1.0  0.34821406984455205  0.0993521396609012  0.8236471440397324  1.0000
  C   C3        1.0  0.8482092971852283  0.4006479996910742  0.823645503932859  1.0000
  C   C4        1.0  0.6517881194138082  0.9006486049404291  0.17635232177947557  1.0000
  C   C5        1.0  0.0785150492205489  0.6849843046295376  0.0770445826983348  1.0000
  C   C6        1.0  0.4214908149672426  0.1849877541690503  0.9229543625193841  1.0000
  C   C7        1.0  0.9214858775922751  0.3150112322558273  0.9229546610450257  1.0000
  C   C8        1.0  0.5785062980998249  0.8150109073414102  0.07704603488306822  1.0000
  C   C9        1.0  0.08345593252394681  0.8305753471350172  0.0914545083126583  1.0000
  C   C10       1.0  0.4165489439704686  0.33057986274726403  0.9085412831163211  1.0000
  C   C11       1.0  0.916542469406224  0.1694201897489762  0.9085442912717739  1.0000
  C   C12       1.0  0.5834507336157062  0.6694187987676018  0.09145682859558954  1.0000
  C   C13       1.0  0.16706411816847577  0.8821233285141973  0.20846826325645648  1.0000
  C   C14       1.0  0.33293577858852075  0.38212381320953887  0.7915274783370448  1.0000
  C   C15       1.0  0.832941898048645  0.1178753330061042  0.7915291389531092  1.0000
  C   C16       1.0  0.6670626497701663  0.6178769313917699  0.2084695013441333  1.0000
  C   C17       1.0  0.2392136384721013  0.7903904134952314  0.303461156402264  1.0000
  C   C18       1.0  0.2607873329497322  0.29038683553675787  0.6965376643088348  1.0000
  C   C19       1.0  0.760786012690609  0.20960928956066033  0.6965387752085589  1.0000
  C   C20       1.0  0.7392059795820315  0.7096128675136981  0.3034629768043331  1.0000
  C   C21       1.0  0.002984365486518896  0.9229550065482354  0.9840212814996718  1.0000
  C   C22       1.0  0.4970180692431043  0.4229564016931846  0.015978487439113617  1.0000
  C   C23       1.0  0.9970152724623562  0.07704261342052382  0.015979560062426432  1.0000
  C   C24       1.0  0.502984120015256  0.5770443429081452  0.9840209783800944  1.0000
  N   N1        1.0  0.2313768032533119  0.6511569476769807  0.28905905012187105  1.0000
  N   N2        1.0  0.2686277174329987  0.15114918329319954  0.7109415398247521  1.0000
  N   N3        1.0  0.7686215854697523  0.3488448384643448  0.7109406594080525  1.0000
  N   N4        1.0  0.7313719337280277  0.8488484366765762  0.2890583917875205  1.0000
  O   O1        1.0  0.4786944700607734  0.37405858600810393  0.45142395591077633  1.0000
  O   O2        1.0  0.021305360823376397  0.8740581783779078  0.5485754366642439  1.0000
  O   O3        1.0  0.5213064303319543  0.6259421585905116  0.5485771077286188  1.0000
  O   O4        1.0  0.9786955527815026  0.12594256622173108  0.4514247170253256  1.0000
  O   O5        1.0  0.6384490980064756  0.1352173461627544  0.37070915497950807  1.0000
  O   O6        1.0  0.8615516376418028  0.6352151774192549  0.6292924348368985  1.0000
  O   O7        1.0  0.3615518155984034  0.8647833984368775  0.6292909987100614  1.0000
  O   O8        1.0  0.13844800030875604  0.3647845256356277  0.37070840672375033  1.0000
  O   O9        1.0  0.33982489562705354  0.2312611174199617  0.20686890895105853  1.0000
  O   O10       1.0  0.1601747046582886  0.7312614159320107  0.7931306816092986  1.0000
  O   O11       1.0  0.6601747555381791  0.7687417102651041  0.7931310226576045  1.0000
  O   O12       1.0  0.8398262089482671  0.26874141175374433  0.2068694720788216  1.0000
  O   O13       1.0  0.3234638262423601  0.08630514078122793  0.43453349932713786  1.0000
  O   O14       1.0  0.17653806484013757  0.5863049240210926  0.5654667363710715  1.0000
  O   O15       1.0  0.6765370873625188  0.9136956038184111  0.5654666543624316  1.0000
  O   O16       1.0  0.8234628355525829  0.4136958205775302  0.43453432726832375  1.0000
