data_image0
_chemical_formula_structural       Cd4H36C36S8N12
_chemical_formula_sum              "Cd4 H36 C36 S8 N12"
_cell_length_a       5.7628599615470675
_cell_length_b       13.029996216648058
_cell_length_c       15.903796129589638
_cell_angle_alpha    92.37945108894071
_cell_angle_beta     89.99914641661883
_cell_angle_gamma    90.00254010213483

_space_group_name_H-M_alt    "P 1"
_space_group_IT_number       1

loop_
  _space_group_symop_operation_xyz
  'x, y, z'

loop_
  _atom_site_type_symbol
  _atom_site_label
  _atom_site_symmetry_multiplicity
  _atom_site_fract_x
  _atom_site_fract_y
  _atom_site_fract_z
  _atom_site_occupancy
  Cd  Cd1       1.0  0.39720246202941206  0.4542353369100523  0.37871684489100926  1.0000
  Cd  Cd2       1.0  0.8972428658252767  0.04575479591630229  0.12128165638744547  1.0000
  Cd  Cd3       1.0  0.6027861444933151  0.5457633507984809  0.621285876080897  1.0000
  Cd  Cd4       1.0  0.10280126922197749  0.9542530538294826  0.8787162777593094  1.0000
  H   H1        1.0  0.18669505439826387  0.6195216907152813  0.2595162323780399  1.0000
  H   H2        1.0  0.6867064817110275  0.8804724924455695  0.24048305365197814  1.0000
  H   H3        1.0  0.8132709938296188  0.3804584370243658  0.7404746766426199  1.0000
  H   H4        1.0  0.31328733113026885  0.11953534966840353  0.759514251431817  1.0000
  H   H5        1.0  0.25055296020951806  0.7008632263282594  0.12194784098598177  1.0000
  H   H6        1.0  0.7505507939815814  0.7991318975179666  0.3780547497676493  1.0000
  H   H7        1.0  0.7494130878453761  0.2991200365233836  0.8780488106396331  1.0000
  H   H8        1.0  0.24941004920712123  0.20088056665166218  0.6219439357696002  1.0000
  H   H9        1.0  0.8820037812710168  0.5235170806634031  0.09693659575957977  1.0000
  H   H10       1.0  0.3820232460799814  0.9764898967326088  0.403062816630303  1.0000
  H   H11       1.0  0.1179865610199329  0.4765023803743418  0.903069821496828  1.0000
  H   H12       1.0  0.6179653599216692  0.023492661073852596  0.5969394755353788  1.0000
  H   H13       1.0  0.7914146337346184  0.44934951835914216  0.23375812497688736  1.0000
  H   H14       1.0  0.2914361029980412  0.050661679591271984  0.26624322671676737  1.0000
  H   H15       1.0  0.20858264927605316  0.5506622688360281  0.7662487170878265  1.0000
  H   H16       1.0  0.7085802671860008  0.9493239300248532  0.7337572601896054  1.0000
  H   H17       1.0  0.45141211912137896  0.656607995777044  0.9749260861150615  1.0000
  H   H18       1.0  0.9514020230712318  0.8433883675982938  0.5250769045435958  1.0000
  H   H19       1.0  0.5485834287491895  0.3433968018861293  0.0250736532616216  1.0000
  H   H20       1.0  0.048591788947199205  0.15661192608151708  0.47493214719386856  1.0000
  H   H21       1.0  0.6347175890007647  0.7482430888557162  0.022464829698044808  1.0000
  H   H22       1.0  0.1346904435392062  0.7517565951727506  0.477530090431351  1.0000
  H   H23       1.0  0.36528837021263877  0.25175787546324807  0.9775354365885602  1.0000
  H   H24       1.0  0.8652912219303558  0.24824133132641174  0.5224732391033625  1.0000
  H   H25       1.0  0.8256032192131356  0.6560986082991961  0.8997127028807481  1.0000
  H   H26       1.0  0.32558586038801  0.843902088886402  0.600285733993857  1.0000
  H   H27       1.0  0.174395798657855  0.3438954710023623  0.10028989558977489  1.0000
  H   H28       1.0  0.6744322459054998  0.1561073106437192  0.399713498938766  1.0000
  H   H29       1.0  0.7995593628093116  0.5376097786406787  0.9504086695408416  1.0000
  H   H30       1.0  0.2995618196801431  0.9623902081524844  0.5495871779000437  1.0000
  H   H31       1.0  0.20043791964459962  0.46238666068737183  0.04959902212089418  1.0000
  H   H32       1.0  0.7004371992145836  0.0376129209034417  0.45040056979573956  1.0000
  H   H33       1.0  0.9828203372465509  0.637111783196751  0.9931279251490323  1.0000
  H   H34       1.0  0.4828081029354649  0.8628899423671682  0.5068689867348438  1.0000
  H   H35       1.0  0.017173475063501097  0.3628899908866927  0.006876135491495502  1.0000
  H   H36       1.0  0.5171822393812704  0.137108619864712  0.49312241238435206  1.0000
  C   C1        1.0  0.9096588042733486  0.3345840280763141  0.35258318555874973  1.0000
  C   C2        1.0  0.40972032465137426  0.16541247172295934  0.14740607937584113  1.0000
  C   C3        1.0  0.0903454199627731  0.6654168734701997  0.6474114197978336  1.0000
  C   C4        1.0  0.5903533089994966  0.8345916564838305  0.8526024455790163  1.0000
  C   C5        1.0  0.9004251557102307  0.5849734981182023  0.4266879789046314  1.0000
  C   C6        1.0  0.4004325426769668  0.9150254781953461  0.07330811587942779  1.0000
  C   C7        1.0  0.09956171573902137  0.4150259227972198  0.5733116175243962  1.0000
  C   C8        1.0  0.5996063867263998  0.0849846687817362  0.9266892505260599  1.0000
  C   C9        1.0  0.3383605689176078  0.6004716802976658  0.22081561580035464  1.0000
  C   C10       1.0  0.8383643194092301  0.8995233646167976  0.2791802425787964  1.0000
  C   C11       1.0  0.6616037439350179  0.39951776211677975  0.7791843441373274  1.0000
  C   C12       1.0  0.1616156114079885  0.10047984088301119  0.7208144240015386  1.0000
  C   C13       1.0  0.37558688409723123  0.6452782708047735  0.14431084613096348  1.0000
  C   C14       1.0  0.8755888846609989  0.8547170725564045  0.35569327377172033  1.0000
  C   C15       1.0  0.6243756938416779  0.35471496323447127  0.855684812957321  1.0000
  C   C16       1.0  0.1243806342301426  0.14528700548032697  0.6443108480925587  1.0000
  C   C17       1.0  0.5726068269401381  0.6186323653956192  0.09598064691265759  1.0000
  C   C18       1.0  0.0726076618975497  0.8813718772671207  0.4040180352906332  1.0000
  C   C19       1.0  0.4273731037560821  0.38137086799293474  0.9040165356354846  1.0000
  C   C20       1.0  0.9273635919399295  0.11862375876822989  0.595986490955269  1.0000
  C   C21       1.0  0.724792850431257  0.5476096214731782  0.13002962678853439  1.0000
  C   C22       1.0  0.22479481639631158  0.9523924452585106  0.369967434543632  1.0000
  C   C23       1.0  0.27521484401229657  0.45238979971519194  0.8699699696698742  1.0000
  C   C24       1.0  0.7752007310966247  0.047601606108806004  0.630032647954188  1.0000
  C   C25       1.0  0.6755118243925224  0.5055714619003453  0.20705883547935844  1.0000
  C   C26       1.0  0.17552755109736745  0.9944262964799223  0.29294303706300434  1.0000
  C   C27       1.0  0.3245010754444166  0.4944226245553692  0.7929443920027095  1.0000
  C   C28       1.0  0.8244870840659075  0.005565450865866201  0.7070569842037172  1.0000
  C   C29       1.0  0.612599536080225  0.6647227432560713  0.011983822892638303  1.0000
  C   C30       1.0  0.11258392696538519  0.8352794822463208  0.4880155194585497  1.0000
  C   C31       1.0  0.3873942761003235  0.335275965437269  0.9880207850624668  1.0000
  C   C32       1.0  0.887397738749236  0.1647222568169582  0.5119853962050767  1.0000
  C   C33       1.0  0.81658965190946  0.6211406109977844  0.9611490180457023  1.0000
  C   C34       1.0  0.3165858025428534  0.8788621334211727  0.5388475676945104  1.0000
  C   C35       1.0  0.1834058956059224  0.3788588518644927  0.038854352347293286  1.0000
  C   C36       1.0  0.6834114807447945  0.12114030421550838  0.4611470784909669  1.0000
  S   S1        1.0  0.155618879546445  0.2947387893940104  0.3123956258458874  1.0000
  S   S2        1.0  0.6556809248352663  0.2052740374637523  0.18758850285194476  1.0000
  S   S3        1.0  0.844383609553347  0.7052675027081674  0.6876003804275539  1.0000
  S   S4        1.0  0.34438750353234576  0.7947369477124651  0.8124151739340417  1.0000
  S   S5        1.0  0.6429050779824053  0.6213235634313817  0.4595628464471487  1.0000
  S   S6        1.0  0.142918414767891  0.8786748553665761  0.040437087940802  1.0000
  S   S7        1.0  0.35707311729603936  0.3786735182376475  0.5404335437518453  1.0000
  S   S8        1.0  0.8571257201063743  0.12133612949120479  0.9595665888109082  1.0000
  N   N1        1.0  0.7305146128659601  0.36206525784918137  0.38197080342174405  1.0000
  N   N2        1.0  0.23057713461472668  0.1379158550166508  0.11802333103914008  1.0000
  N   N3        1.0  0.2694826702371245  0.6379333532790027  0.6180249986509168  1.0000
  N   N4        1.0  0.7694895577348575  0.8620798310750215  0.8819855982850908  1.0000
  N   N5        1.0  0.0864096718993395  0.5621904835437874  0.40100525935257986  1.0000
  N   N6        1.0  0.5864299894533005  0.9378063636286599  0.09898633872389687  1.0000
  N   N7        1.0  0.9135789346233877  0.4378082041647458  0.5989974616193192  1.0000
  N   N8        1.0  0.41362455736878445  0.0622006484411344  0.9010052850986694  1.0000
  N   N9        1.0  0.4848308672979015  0.5308002053248088  0.2519463790739848  1.0000
  N   N10       1.0  0.9848561980524622  0.96919717840467  0.24805299678522624  1.0000
  N   N11       1.0  0.5151403866248855  0.4691961848567345  0.7480569096073564  1.0000
  N   N12       1.0  0.015148025979726799  0.030798353480015795  0.7519420946278996  1.0000
