data_image0
_chemical_formula_structural       Zr6H10C54S10Cl10O36
_chemical_formula_sum              "Zr6 H10 C54 S10 Cl10 O36"
_cell_length_a       16.44804456021691
_cell_length_b       16.45338223699955
_cell_length_c       16.525475805710187
_cell_angle_alpha    61.81731126312466
_cell_angle_beta     59.86609523778502
_cell_angle_gamma    60.30717820581293

_space_group_name_H-M_alt    "P 1"
_space_group_IT_number       1

loop_
  _space_group_symop_operation_xyz
  'x, y, z'

loop_
  _atom_site_type_symbol
  _atom_site_label
  _atom_site_symmetry_multiplicity
  _atom_site_fract_x
  _atom_site_fract_y
  _atom_site_fract_z
  _atom_site_occupancy
  Zr  Zr1       1.0  0.8884006488177434  0.9026004588487807  0.597605257988107  1.0000
  Zr  Zr2       1.0  0.11126645680339212  0.10312164627421076  0.3971956374543453  1.0000
  Zr  Zr3       1.0  0.102721470144395  0.8949542913925017  0.6057117022569186  1.0000
  Zr  Zr4       1.0  0.8964283666610554  0.11133192044707119  0.3894794776059172  1.0000
  Zr  Zr5       1.0  0.10878477189268661  0.8939589633738692  0.3882646487394653  1.0000
  Zr  Zr6       1.0  0.8905688296715725  0.11207944629765593  0.6066335753188455  1.0000
  H   H1        1.0  0.07889013602734  0.7532040782038862  0.5755487928886821  1.0000
  H   H2        1.0  0.09214310806859059  0.08124452287305671  0.2476283605932181  1.0000
  H   H3        1.0  0.0832420328463144  0.08321887967930769  0.5885127452750255  1.0000
  H   H4        1.0  0.7448609721959089  0.09393036351772813  0.577922922677665  1.0000
  H   H5        1.0  0.10480490599374566  0.6343978412668037  0.8650774377708927  1.0000
  H   H6        1.0  0.8475084955702952  0.6502081977664034  0.8454821653917436  1.0000
  H   H7        1.0  0.8961522500019823  0.37065513597796934  0.1287919049085674  1.0000
  H   H8        1.0  0.15719923490604515  0.3508363151497064  0.1447690636594672  1.0000
  H   H9        1.0  0.11241904833181587  0.6329020375444614  0.9939732803270261  1.0000
  H   H10       1.0  0.7613794237649286  0.49979433719926186  0.12782277093408112  1.0000
  C   C1        1.0  0.99636388502487  0.7391462522336452  0.48308437324075015  1.0000
  C   C2        1.0  0.2814250549466096  0.9885750843861061  0.23381986884312778  1.0000
  C   C3        1.0  0.9965853879795219  0.2734702840934631  0.5045860605481495  1.0000
  C   C4        1.0  0.7257305995914225  0.009445180596408366  0.768423099928313  1.0000
  C   C5        1.0  0.9824348556651118  0.740238980932801  0.7638851499530546  1.0000
  C   C6        1.0  0.7314742612529698  0.004029070178979988  0.4883774673347149  1.0000
  C   C7        1.0  0.01347087034325509  0.2695105537761435  0.23492983387217953  1.0000
  C   C8        1.0  0.2760666419101199  0.9937166252941407  0.49859613659069896  1.0000
  C   C9        1.0  0.2728235500127738  0.7312821168191092  0.4972253292473141  1.0000
  C   C10       1.0  0.9922659629263748  0.9972742966368384  0.7763204264778522  1.0000
  C   C11       1.0  0.7336769621297776  0.28169343553705745  0.4920433643584659  1.0000
  C   C12       1.0  0.9980494031958428  0.002756822532304975  0.22594598651120637  1.0000
  C   C13       1.0  0.9261064889396521  0.4233787056054227  0.5643169793502453  1.0000
  C   C14       1.0  0.06394520146449886  0.5916942302910754  0.42079684302161274  1.0000
  C   C15       1.0  0.9936478485758472  0.3650786827947952  0.5020466027443222  1.0000
  C   C16       1.0  0.9967676279481598  0.6497458444800088  0.48334166866984424  1.0000
  C   C17       1.0  0.0379950607723173  0.509182182306688  0.4503184168290487  1.0000
  C   C18       1.0  0.9517743827765062  0.5062371196507411  0.534481206040077  1.0000
  C   C19       1.0  0.4242274328563199  0.9255052871711911  0.0870805854697423  1.0000
  C   C20       1.0  0.5872250201908215  0.06864647675530475  0.9188247490515523  1.0000
  C   C21       1.0  0.3706953529591107  0.9882661109229074  0.14492131687669751  1.0000
  C   C22       1.0  0.6400612478720618  0.006477291581326445  0.8604364077147082  1.0000
  C   C23       1.0  0.5085439875266218  0.03886335034428609  0.0017203316889790976  1.0000
  C   C24       1.0  0.503403575183192  0.9547577752152137  0.00470413322784697  1.0000
  C   C25       1.0  0.056823853568118775  0.9280076578157123  0.9184604721706933  1.0000
  C   C26       1.0  0.9286879235711893  0.06928221144774932  0.08772408813382537  1.0000
  C   C27       1.0  0.9925508098466976  0.9952887423516541  0.8660813022393868  1.0000
  C   C28       1.0  0.9937090365007323  0.0022921432282172367  0.13944404739985575  1.0000
  C   C29       1.0  0.951570425231786  0.041873248459196884  0.0072957736319665826  1.0000
  C   C30       1.0  0.03330713403408951  0.954822505758095  0.9994203349272368  1.0000
  C   C31       1.0  0.41301714506591497  0.5924073379719915  0.5645594235244148  1.0000
  C   C32       1.0  0.595772143769963  0.42333292339022666  0.42315182207219243  1.0000
  C   C33       1.0  0.3636409117448167  0.6443463737118903  0.49723021717824173  1.0000
  C   C34       1.0  0.645162555716098  0.3710406322491763  0.4904130004765648  1.0000
  C   C35       1.0  0.5113642061111109  0.5041202949278014  0.4500687272877357  1.0000
  C   C36       1.0  0.4979173547116389  0.51188815179151  0.537271638932289  1.0000
  C   C37       1.0  0.04456439310430951  0.6056896132664064  0.8968633654514092  1.0000
  C   C38       1.0  0.8989058667211793  0.6147153053072215  0.8849207429004126  1.0000
  C   C39       1.0  0.8897603863713003  0.5341544375287197  0.9665708426277251  1.0000
  C   C40       1.0  0.9585025838875866  0.48635076313441056  0.017483336025719696  1.0000
  C   C41       1.0  0.9533162010161861  0.4024023856533531  0.10017397616928049  1.0000
  C   C42       1.0  0.10186634449448921  0.39029523054117027  0.10926595318411363  1.0000
  C   C43       1.0  0.11013426607318874  0.47186805108712804  0.028613132003336306  1.0000
  C   C44       1.0  0.03823998346797439  0.5229582046657485  0.980822724158692  1.0000
  C   C45       1.0  0.975318045386281  0.6516927974769683  0.8511485196574143  1.0000
  C   C46       1.0  0.022163295539485286  0.3566372517938063  0.14628149693800202  1.0000
  C   C47       1.0  0.419256495578729  0.05963156750736688  0.4270090955597965  1.0000
  C   C48       1.0  0.594219253852259  0.9322101401934548  0.554005710226889  1.0000
  C   C49       1.0  0.36744091621332575  0.9940450935869195  0.4933556948142553  1.0000
  C   C50       1.0  0.6449860231922813  0.9988333985887723  0.4887290272481552  1.0000
  C   C51       1.0  0.5121210747234458  0.9542630939424653  0.5310391609124708  1.0000
  C   C52       1.0  0.5023010000048345  0.03665116275776357  0.44902093135428334  1.0000
  C   C53       1.0  0.1998161493492957  0.4992886824992411  0.9930657630463885  1.0000
  C   C54       1.0  0.8082042605500775  0.49840052514586114  0.9944505862986405  1.0000
  S   S1        1.0  0.08814699999759058  0.4112306646993816  0.4074842288040799  1.0000
  S   S2        1.0  0.9021578125266103  0.6037513033618324  0.5777426222060954  1.0000
  S   S3        1.0  0.41720717308528077  0.08242653918115644  0.09899806191496913  1.0000
  S   S4        1.0  0.593947440634182  0.9119083132011806  0.9067145151967256  1.0000
  S   S5        1.0  0.9032565737358315  0.09092945102247538  0.9163257710368596  1.0000
  S   S6        1.0  0.08231212294101213  0.9060988454273087  0.0897686363111703  1.0000
  S   S7        1.0  0.42104039385162645  0.5946523457037216  0.4010285568770797  1.0000
  S   S8        1.0  0.588188046230684  0.42104449098619057  0.5863265705278664  1.0000
  S   S9        1.0  0.4205354206033505  0.904457342228305  0.5816011070564429  1.0000
  S   S10       1.0  0.5928759058093576  0.08746020550499618  0.39949167101827504  1.0000
  Cl  Cl1       1.0  0.8246512724024061  0.40240159392344993  0.6647121221773205  1.0000
  Cl  Cl2       1.0  0.16593500003415335  0.6123479959003221  0.32069905330855875  1.0000
  Cl  Cl3       1.0  0.4015689743537437  0.8254547036479067  0.10780803990859077  1.0000
  Cl  Cl4       1.0  0.6093718894772665  0.16898497988772476  0.8978300762366942  1.0000
  Cl  Cl5       1.0  0.15342410521689945  0.82452486804079  0.8935661856775853  1.0000
  Cl  Cl6       1.0  0.8329175269686145  0.1731578173041654  0.11212987074434014  1.0000
  Cl  Cl7       1.0  0.38025945140819317  0.6167397177082633  0.6685645215367517  1.0000
  Cl  Cl8       1.0  0.6278186566014842  0.39867245141745394  0.31944803516316983  1.0000
  Cl  Cl9       1.0  0.39163032894563793  0.1572161669488281  0.33057623269009184  1.0000
  Cl  Cl10      1.0  0.6211459041359718  0.8352701282959956  0.6511197008118047  1.0000
  O   O1        1.0  0.9249792638580131  0.7758696477736532  0.551758951378581  1.0000
  O   O2        1.0  0.24725064359228097  0.05740502608244207  0.2703793054582988  1.0000
  O   O3        1.0  0.06946051720463933  0.2354390112070277  0.43729463870928953  1.0000
  O   O4        1.0  0.7580735797038758  0.9423054059798515  0.7302372823284247  1.0000
  O   O5        1.0  0.05319508676708288  0.7708468794614731  0.7340814657694424  1.0000
  O   O6        1.0  0.7651640204851091  0.07302788665752039  0.42198970189213003  1.0000
  O   O7        1.0  0.9418495176578008  0.2398209770047116  0.2654438390027779  1.0000
  O   O8        1.0  0.23977779707779232  0.9273097175758807  0.567578251269353  1.0000
  O   O9        1.0  0.2412111884399978  0.7634324872766526  0.42729871961635996  1.0000
  O   O10       1.0  0.924817651572191  0.06855031561305219  0.7422618123051521  1.0000
  O   O11       1.0  0.7640689733562169  0.24776139267505207  0.5631918278772545  1.0000
  O   O12       1.0  0.06763252460279988  0.9329920922720875  0.2579064062740528  1.0000
  O   O13       1.0  0.06055639487444613  0.9283490398254841  0.7387164965322839  1.0000
  O   O14       1.0  0.772144130210485  0.24423005862850986  0.4229463638116969  1.0000
  O   O15       1.0  0.9324330554372793  0.07369342458142822  0.26156757606839426  1.0000
  O   O16       1.0  0.2321237337005612  0.7671033583646362  0.5679768954563684  1.0000
  O   O17       1.0  0.9160838886796868  0.7777030147679084  0.7255554047557523  1.0000
  O   O18       1.0  0.23918749328314712  0.06218177002561726  0.4332861534582193  1.0000
  O   O19       1.0  0.08058022937817805  0.23118002853964015  0.2725364579489806  1.0000
  O   O20       1.0  0.7652345814308035  0.9386804231210062  0.5568117409562205  1.0000
  O   O21       1.0  0.760588029026188  0.0781801634871897  0.7333656790672052  1.0000
  O   O22       1.0  0.06724839387295121  0.7720197215978857  0.41671552050642907  1.0000
  O   O23       1.0  0.24376460840987585  0.9224728271425987  0.26640491810979944  1.0000
  O   O24       1.0  0.9277906146363435  0.23862691789774013  0.5730362273803564  1.0000
  O   O25       1.0  0.8172874520539396  0.0689825666376436  0.5545038538812008  1.0000
  O   O26       1.0  0.059146051740015186  0.05988021781100637  0.5635169327873369  1.0000
  O   O27       1.0  0.06592825838213663  0.05900988392556879  0.3186554381974247  1.0000
  O   O28       1.0  0.056335730984897955  0.8242238294482365  0.5532879149010272  1.0000
  O   O29       1.0  0.1338875251702092  0.9542363007591633  0.45559710662763575  1.0000
  O   O30       1.0  0.9560852913982886  0.9612243632513966  0.44869708686337634  1.0000
  O   O31       1.0  0.9578722036293642  0.1346875640590709  0.45643724203421954  1.0000
  O   O32       1.0  0.9509418395506302  0.9618751055524727  0.6291565640077438  1.0000
  O   O33       1.0  0.18373791132079023  0.5946962101890563  0.9769159472836223  1.0000
  O   O34       1.0  0.2839730737153728  0.44010760466287013  0.9808439071366166  1.0000
  O   O35       1.0  0.7451980626737226  0.4824457878394881  0.08994565169057016  1.0000
  O   O36       1.0  0.7953267769359301  0.48575802077307617  0.9356213000318335  1.0000
