data_image0
_chemical_formula_structural       Zn4H61C80N33
_chemical_formula_sum              "Zn4 H61 C80 N33"
_cell_length_a       19.595997533811232
_cell_length_b       19.39081846456495
_cell_length_c       20.672964925868797
_cell_angle_alpha    107.14752014821397
_cell_angle_beta     105.51159769656591
_cell_angle_gamma    112.18229646303921

_space_group_name_H-M_alt    "P 1"
_space_group_IT_number       1

loop_
  _space_group_symop_operation_xyz
  'x, y, z'

loop_
  _atom_site_type_symbol
  _atom_site_label
  _atom_site_symmetry_multiplicity
  _atom_site_fract_x
  _atom_site_fract_y
  _atom_site_fract_z
  _atom_site_occupancy
  Zn  Zn1       1.0  0.10482395602824822  0.11379919100021138  0.5054147236654527  1.0000
  Zn  Zn2       1.0  0.879412145122167  0.9131495064878405  0.5210237092244652  1.0000
  Zn  Zn3       1.0  0.9932850791533239  0.9174970743737203  0.39971026829702777  1.0000
  Zn  Zn4       1.0  0.9916256734406302  0.11569966784728786  0.6195501735448372  1.0000
  H   H1        1.0  0.1704411018805985  0.1641416969360279  0.37050053157257407  1.0000
  H   H2        1.0  0.10663662208463617  0.6757269695750877  0.6671685460887316  1.0000
  H   H3        1.0  0.3688419996336877  0.1450449926848307  0.4481313811908477  1.0000
  H   H4        1.0  0.5097373843672841  0.22481684372739605  0.46278546441076424  1.0000
  H   H5        1.0  0.7211046371440304  0.15534995331214668  0.4813606881516249  1.0000
  H   H6        1.0  0.8909265448279344  0.7273796338581136  0.2774279220249411  1.0000
  H   H7        1.0  0.5968190672328433  0.887996357249932  0.3783448331728321  1.0000
  H   H8        1.0  0.3809992944569416  0.2606413176300464  0.9840577279288777  1.0000
  H   H9        1.0  0.13089585411746193  0.0665384355867715  0.004286012910860395  1.0000
  H   H10       1.0  0.08688384339277624  0.8855682872481409  0.7535741093557603  1.0000
  H   H11       1.0  0.15316163885022857  0.8697196307541474  0.865029760379947  1.0000
  H   H12       1.0  0.6952613942803224  0.7547381602293654  0.3190740537306309  1.0000
  H   H13       1.0  0.044249044224251584  0.20577356025658836  0.4254427528106957  1.0000
  H   H14       1.0  0.26517508367104636  0.16302499438514673  0.6356267535002401  1.0000
  H   H15       1.0  0.8228033013359166  0.6525880430335887  0.47367971389486  1.0000
  H   H16       1.0  0.7740363397538915  0.6966132987806688  0.43785356327627034  1.0000
  H   H17       1.0  0.13561050036355482  0.8742039555595085  0.3643700389072321  1.0000
  H   H18       1.0  0.07630040770328612  0.126703006005684  0.7845275809548793  1.0000
  H   H19       1.0  0.9446118354366819  0.8594533205164722  0.6532292891100437  1.0000
  H   H20       1.0  0.3469439944570709  0.17000020834082358  0.5370645563792633  1.0000
  H   H21       1.0  0.2772111998664286  0.19332104683443418  0.5016293381758314  1.0000
  H   H22       1.0  0.1605325831306388  0.23772316453302977  0.7839838983380643  1.0000
  H   H23       1.0  0.07955283151660814  0.8450165290897615  0.4837399755354069  1.0000
  H   H24       1.0  0.05633746712719305  0.7425729460497408  0.5963091665956595  1.0000
  H   H25       1.0  0.8739607497631354  0.6505998038901736  0.35283244306948075  1.0000
  H   H26       1.0  0.8337883566249361  0.5463545582138706  0.307615469046091  1.0000
  H   H27       1.0  0.8546994374000721  0.4506936210222179  0.2939067408040684  1.0000
  H   H28       1.0  0.7424185286047091  0.9115509982662289  0.3963933026374915  1.0000
  H   H29       1.0  0.8308676720316512  0.2576582189159851  0.2872011557462954  1.0000
  H   H30       1.0  0.8089308345341595  0.30865314983231684  0.23893106042697101  1.0000
  H   H31       1.0  0.9048000542956417  0.25731214655503715  0.3730668193347454  1.0000
  H   H32       1.0  0.12266189631210983  0.45679402108729056  0.6599503213067519  1.0000
  H   H33       1.0  0.0831410187647776  0.3524275871097373  0.617277435024185  1.0000
  H   H34       1.0  0.10650174789852684  0.5516819020969592  0.6726478748072393  1.0000
  H   H35       1.0  0.2510079891371645  0.8777678605452975  0.3591902395908446  1.0000
  H   H36       1.0  0.6400325585998987  0.228911363510889  0.47367593651182444  1.0000
  H   H37       1.0  0.3882214763643219  0.740216108774007  0.25877917715585136  1.0000
  H   H38       1.0  0.48532648184774263  0.7961843037075764  0.273426086619743  1.0000
  H   H39       1.0  0.31433915792912603  0.8033339085546628  0.30013084310000676  1.0000
  H   H40       1.0  0.790226740949116  0.5973697573354568  0.17840603353808132  1.0000
  H   H41       1.0  0.6829982708877865  0.45570818885066433  0.07974440702028565  1.0000
  H   H42       1.0  0.5457860892889812  0.371905870968689  0.8311011315478465  1.0000
  H   H43       1.0  0.5879852698502503  0.38685200601427283  0.9215870279788587  1.0000
  H   H44       1.0  0.3973175251552803  0.2819507447953811  0.7544192739000335  1.0000
  H   H45       1.0  0.6285018000358633  0.602126974258013  0.2843376020447222  1.0000
  H   H46       1.0  0.4898751010155635  0.48215611598924807  0.21860100350800574  1.0000
  H   H47       1.0  0.4647956923626851  0.3975856020331321  0.14039733417978784  1.0000
  H   H48       1.0  0.9287305587247233  0.22885363166172817  0.5759007652250289  1.0000
  H   H49       1.0  0.23859548734016306  0.16132825150497604  0.907405148127779  1.0000
  H   H50       1.0  0.1951163268580984  0.13000925767082086  0.8152133385923503  1.0000
  H   H51       1.0  0.0501747416404683  0.1122275216497925  0.9451801763612547  1.0000
  H   H52       1.0  0.0070253037918846005  0.0797685551491085  0.8517221138097637  1.0000
  H   H53       1.0  0.3300278461594672  0.19817174628352058  0.24772283704343312  1.0000
  H   H54       1.0  0.3174348498539032  0.13577767274681918  0.16153644188178615  1.0000
  H   H55       1.0  0.2399555633471239  0.13812432795266716  0.3039165350409404  1.0000
  H   H56       1.0  0.1078473177325776  0.8653957147204281  0.013607599407329429  1.0000
  H   H57       1.0  0.03002666888402668  0.8176502941672935  0.039409593876023004  1.0000
  H   H58       1.0  0.03250771979710979  0.891433760923796  0.15429313746330559  1.0000
  H   H59       1.0  0.8036467474611728  0.12964067912113109  0.5881213635245712  1.0000
  H   H60       1.0  0.9859761554021417  0.8578607686266434  0.2048863025781243  1.0000
  H   H61       1.0  0.9233762444486828  0.8581016853933435  0.24815322623951616  1.0000
  C   C1        1.0  0.12182661001798321  0.1018240554511181  0.3526691717043561  1.0000
  C   C2        1.0  0.7422140832011266  0.022077219794852006  0.4733759731071173  1.0000
  C   C3        1.0  0.7701395461285757  0.700835687965984  0.28229533665709966  1.0000
  C   C4        1.0  0.983539171339743  0.2469444073517337  0.49540846493301416  1.0000
  C   C5        1.0  0.2278382856932382  0.1766854630857466  0.6620942658722837  1.0000
  C   C6        1.0  0.8966825574066419  0.7607694742408595  0.47828232904362966  1.0000
  C   C7        1.0  0.1604539614901555  0.9376391164855418  0.40525638717561197  1.0000
  C   C8        1.0  0.036946486780827605  0.0629249968692775  0.7419201112979933  1.0000
  C   C9        1.0  0.9705626354151988  0.9264080283230881  0.6752111658745503  1.0000
  C   C10       1.0  0.23231605365231198  0.07220047364671699  0.48158874706012955  1.0000
  C   C11       1.0  0.17352224772713504  0.21441660826545927  0.7368453014393237  1.0000
  C   C12       1.0  0.7664274724872512  0.9634582005102104  0.4503398684844268  1.0000
  C   C13       1.0  0.019841941866040713  0.826366488602815  0.48361632472377625  1.0000
  C   C14       1.0  0.24363154478341906  0.2092550951983796  0.7381688554379833  1.0000
  C   C15       1.0  0.9655839963242698  0.7521890611592068  0.48062660107107996  1.0000
  C   C16       1.0  0.23665771246428594  0.007997748715844502  0.43123582330597526  1.0000
  C   C17       1.0  0.0272319920061577  0.9896152920222859  0.7478372660162618  1.0000
  C   C18       1.0  0.02234090899604267  0.6837912307141065  0.545532987074523  1.0000
  C   C19       1.0  0.9735683845262957  0.6793632032836923  0.4797269427204255  1.0000
  C   C20       1.0  0.9283256965189254  0.6037399251024596  0.41290961588602926  1.0000
  C   C21       1.0  0.9323261681009996  0.5319600053277256  0.413271250728499  1.0000
  C   C22       1.0  0.9801272898425495  0.5370551818047459  0.4818875338341752  1.0000
  C   C23       1.0  0.8510206506963344  0.747666215713849  0.294168972534706  1.0000
  C   C24       1.0  0.026224245426654032  0.6140025365786029  0.5484888810448323  1.0000
  C   C25       1.0  0.8890933378820237  0.45488400155954867  0.3474327071212142  1.0000
  C   C26       1.0  0.8904222277133514  0.38448799919800075  0.3482188427998237  1.0000
  C   C27       1.0  0.9361897065777357  0.38727066906875507  0.4174735513323353  1.0000
  C   C28       1.0  0.9812611400838451  0.4644501588555058  0.48392660551562716  1.0000
  C   C29       1.0  0.02767971317545202  0.4692334888746998  0.5531629076999065  1.0000
  C   C30       1.0  0.07265283908648712  0.5472801814899099  0.6189141524811602  1.0000
  C   C31       1.0  0.07236867471387134  0.6168347958619335  0.6164466992553199  1.0000
  C   C32       1.0  0.9379944429433849  0.3171945201227614  0.42246562650917224  1.0000
  C   C33       1.0  0.9818506333303105  0.3204389135076299  0.4897993009272452  1.0000
  C   C34       1.0  0.9593564703000582  0.21309465275473363  0.5421001844412386  1.0000
  C   C35       1.0  0.028264078545653583  0.3970297399420771  0.55555014679377  1.0000
  C   C36       1.0  0.30307301661818536  0.9372763282662004  0.37489404779283547  1.0000
  C   C37       1.0  0.30325757960336125  0.011447712127520002  0.4105527403313259  1.0000
  C   C38       1.0  0.3696932404780924  0.0869735519564543  0.42715888292094206  1.0000
  C   C39       1.0  0.4396852379013865  0.09030765327491959  0.4193119821940383  1.0000
  C   C40       1.0  0.4416125349631201  0.015119324710866501  0.3901023475910249  1.0000
  C   C41       1.0  0.36999473814892536  0.9371880174856243  0.36262862783536304  1.0000
  C   C42       1.0  0.512280221466007  0.16726506220016543  0.4448122180857296  1.0000
  C   C43       1.0  0.5843861679259774  0.16957967220724157  0.45078315568634497  1.0000
  C   C44       1.0  0.589687337239802  0.09489322114547599  0.43039096619875034  1.0000
  C   C45       1.0  0.7527634236634314  0.7628498572148814  0.317376726982026  1.0000
  C   C46       1.0  0.5156328679834206  0.016998781595027903  0.39401079012611717  1.0000
  C   C47       1.0  0.518343025813948  0.941570316581213  0.368473772867446  1.0000
  C   C48       1.0  0.4418642658945233  0.8635198896159438  0.32760824443816716  1.0000
  C   C49       1.0  0.37116787521378575  0.862546801152341  0.32716392865774674  1.0000
  C   C50       1.0  0.6644501904518806  0.0957303691110525  0.4502632082966327  1.0000
  C   C51       1.0  0.6672831324740616  0.0216788719473229  0.4351557743605382  1.0000
  C   C52       1.0  0.5942631932310078  0.9453884875898096  0.3900049043777115  1.0000
  C   C53       1.0  0.3171835416830433  0.23658139946542178  0.8035961622808896  1.0000
  C   C54       1.0  0.31220382168927324  0.22546285442943767  0.868042722154733  1.0000
  C   C55       1.0  0.38344083258761696  0.2644197275842258  0.9330345693036431  1.0000
  C   C56       1.0  0.01848926706075098  0.20200351317869544  0.46548207574040384  1.0000
  C   C57       1.0  0.4602911805209616  0.31102864801203356  0.935805120027403  1.0000
  C   C58       1.0  0.4664401999249108  0.31144547566808706  0.8686710955748748  1.0000
  C   C59       1.0  0.3938800289720846  0.2756127670594779  0.8044002911731026  1.0000
  C   C60       1.0  0.672481721702944  0.4881883864604787  0.1255843782561071  1.0000
  C   C61       1.0  0.7318775147929771  0.5671146671287773  0.18050429738023152  1.0000
  C   C62       1.0  0.5947500758546198  0.4497858482739119  0.12425718735576649  1.0000
  C   C63       1.0  0.7148947085837849  0.6119423856881313  0.23586941538973596  1.0000
  C   C64       1.0  0.6414302729859075  0.5700760892243011  0.24010573822612  1.0000
  C   C65       1.0  0.5813858106444273  0.4887977297145413  0.18620460125070784  1.0000
  C   C66       1.0  0.13008250272908134  0.0170764280600864  0.23586879198518318  1.0000
  C   C67       1.0  0.8003989755747938  0.0758346266458929  0.5484869417888445  1.0000
  C   C68       1.0  0.09168063348617743  0.9429201245002473  0.16979010239080583  1.0000
  C   C69       1.0  0.1241572959558681  0.9329917107538391  0.11727871097354373  1.0000
  C   C70       1.0  0.1932056053838878  0.004252262688901001  0.12650647876760954  1.0000
  C   C71       1.0  0.23715525670545648  0.07738131883473899  0.19751781819839911  1.0000
  C   C72       1.0  0.2058301450325359  0.08229737954928137  0.250654351145016  1.0000
  C   C73       1.0  0.1234985309778622  0.029257605228885108  0.9491293021472128  1.0000
  C   C74       1.0  0.08282978757368652  0.0360336543570909  0.8866370636137189  1.0000
  C   C75       1.0  0.14800951173132396  0.9691373947216846  0.9422141762632773  1.0000
  C   C76       1.0  0.0692295079012482  0.9835279076528136  0.8144064269262185  1.0000
  C   C77       1.0  0.09635042538209856  0.9251710446205976  0.8088643819316769  1.0000
  C   C78       1.0  0.02808892711300363  0.9688603968008066  0.29353043383442656  1.0000
  C   C79       1.0  0.1342262357601314  0.9164793948793742  0.8707975645946602  1.0000
  C   C80       1.0  0.09463451116984338  0.027873351398682192  0.2890748807254866  1.0000
  N   N1        1.0  0.0773522879271553  0.0885723899291904  0.39139746057980307  1.0000
  N   N2        1.0  0.9105613838818272  0.8348484916495096  0.47995500594489454  1.0000
  N   N3        1.0  0.11479222391882621  0.9583534534766754  0.4363972846318659  1.0000
  N   N4        1.0  0.9900874423410003  0.044464871552293096  0.6717479183982388  1.0000
  N   N5        1.0  0.9483990960993438  0.960221236091698  0.6307662761367749  1.0000
  N   N6        1.0  0.15941260207159758  0.04113629058856108  0.48485296172177766  1.0000
  N   N7        1.0  0.1203481435766207  0.18725002436247  0.6662281468419734  1.0000
  N   N8        1.0  0.9868737130258228  0.8764391809638782  0.48267195214107517  1.0000
  N   N9        1.0  0.5319877131099843  0.36561609054637495  0.0004820324408853812  1.0000
  N   N10       1.0  0.5250928555938118  0.3820791512994787  0.06256435073198922  1.0000
  N   N11       1.0  0.2060588797946394  0.015990510169551397  0.06814707080135919  1.0000
  N   N12       1.0  0.8330992980337728  0.9813006832374994  0.5081805803513147  1.0000
  N   N13       1.0  0.17205952004253083  0.9524514171222548  0.0033385342291722313  1.0000
  N   N14       1.0  0.8773769758565919  0.829638497485689  0.33229113646102343  1.0000
  N   N15       1.0  0.9801099800769607  0.15404079757193756  0.5408267199349693  1.0000
  N   N16       1.0  0.8168017802785033  0.83959138037833  0.3471547465904192  1.0000
  N   N17       1.0  0.016919571079156998  0.1470889694398849  0.4940471507482726  1.0000
  N   N18       1.0  0.8544281040492907  0.0511850668578973  0.5697060706274542  1.0000
  N   N19       1.0  0.018211125669601803  0.005162825897457401  0.3546623031853784  1.0000
  N   N20       1.0  0.15443030936113195  0.16335212403541988  0.6195077548462109  1.0000
  N   N21       1.0  0.8253008980121734  0.7073111390150401  0.4781714837063118  1.0000
  N   N22       1.0  0.2886416799548215  0.1576190048904778  0.5259441525638023  1.0000
  N   N23       1.0  0.8831694508945633  0.6013847951243748  0.3471898947726118  1.0000
  N   N24       1.0  0.8511357424927938  0.3114065629662123  0.28218189290373624  1.0000
  N   N25       1.0  0.07287472279277547  0.40095974935589845  0.6226293754165579  1.0000
  N   N26       1.0  0.44376232417162953  0.7906606865111526  0.29504012889157843  1.0000
  N   N27       1.0  0.542170973371242  0.3490393823875522  0.8690054295068633  1.0000
  N   N28       1.0  0.5089165818362319  0.4470781132052153  0.18989385614406015  1.0000
  N   N29       1.0  0.236006307607056  0.17944203630696617  0.865799754171327  1.0000
  N   N30       1.0  0.0560894010841224  0.09402784343557609  0.8966095777499486  1.0000
  N   N31       1.0  0.30906651166316124  0.14006255706495097  0.20878774560891594  1.0000
  N   N32       1.0  0.08855567093959144  0.8598932561012517  0.05475859684367627  1.0000
  N   N33       1.0  0.9813336375251395  0.883198644493575  0.25258762671298013  1.0000
