data_image0
_chemical_formula_structural       Cu4H32C36N8O8
_chemical_formula_sum              "Cu4 H32 C36 N8 O8"
_cell_length_a       5.282074697422577
_cell_length_b       12.72747751240112
_cell_length_c       14.67396150804662
_cell_angle_alpha    88.11063159712094
_cell_angle_beta     80.8654104419564
_cell_angle_gamma    78.04529782463682

_space_group_name_H-M_alt    "P 1"
_space_group_IT_number       1

loop_
  _space_group_symop_operation_xyz
  'x, y, z'

loop_
  _atom_site_type_symbol
  _atom_site_label
  _atom_site_symmetry_multiplicity
  _atom_site_fract_x
  _atom_site_fract_y
  _atom_site_fract_z
  _atom_site_occupancy
  Cu  Cu1       1.0  0.3969191191937113  0.20823912679178141  0.7501871737288469  1.0000
  Cu  Cu2       1.0  0.6030520552938156  0.7917630807667635  0.24983354235794766  1.0000
  Cu  Cu3       1.0  0.9999751386413037  2.0559661849000136e-06  5.220911774009698e-06  1.0000
  Cu  Cu4       1.0  0.9999330115530183  0.9999931903493149  0.5000095814858554  1.0000
  H   H1        1.0  0.08807342178365464  0.6037471736520813  0.7000897167056337  1.0000
  H   H2        1.0  0.30939418618468295  0.603988096272886  0.7995581080574397  1.0000
  H   H3        1.0  0.911941203151606  0.39624218736320665  0.2999113229903401  1.0000
  H   H4        1.0  0.6905953066517226  0.39601009780093227  0.2004331218423161  1.0000
  H   H5        1.0  0.9746271077234283  0.248013583790204  0.6166213129316702  1.0000
  H   H6        1.0  0.7788056727145969  0.24873372369624752  0.88383301699362  1.0000
  H   H7        1.0  0.025369301036207013  0.751981397820785  0.3833825854460358  1.0000
  H   H8        1.0  0.22121066133033915  0.7512708970883393  0.1161750259480527  1.0000
  H   H9        1.0  0.7086569488130366  0.41145105679914457  0.5517932934819143  1.0000
  H   H10       1.0  0.8809719705178763  0.4124848990373168  0.9482619063828681  1.0000
  H   H11       1.0  0.2913486916564238  0.5885447287121367  0.4482087327481068  1.0000
  H   H12       1.0  0.1190307626270979  0.5875325715472073  0.05173220360890701  1.0000
  H   H13       1.0  0.6003226700500264  0.8052573775014337  0.5170054971448934  1.0000
  H   H14       1.0  0.594124870895527  0.8057865944669801  0.982857270177199  1.0000
  H   H15       1.0  0.39967793597071477  0.1947295730885941  0.4829929394267865  1.0000
  H   H16       1.0  0.4059002593886659  0.1942164209788828  0.017140808946450606  1.0000
  H   H17       1.0  0.7452438857976914  0.8688416225137061  0.5966296371965428  1.0000
  H   H18       1.0  0.3851471434069468  0.8692639102430986  0.9033851327837896  1.0000
  H   H19       1.0  0.2547578478104526  0.1311589819722485  0.40336020061818806  1.0000
  H   H20       1.0  0.6148660123316104  0.13073990737294142  0.09661560251823431  1.0000
  H   H21       1.0  0.2276245346891557  0.7875242783834082  0.6385064228970805  1.0000
  H   H22       1.0  0.984301031050684  0.7894642294552057  0.8613647145824574  1.0000
  H   H23       1.0  0.7723701892438226  0.21248596312698  0.3614917090203633  1.0000
  H   H24       1.0  0.01570713662464841  0.21053075328425305  0.13863106555056254  1.0000
  H   H25       1.0  0.2664754104813553  0.9234796772612981  0.6369231776798046  1.0000
  H   H26       1.0  0.8077991424639062  0.9251455220910145  0.8635099049521244  1.0000
  H   H27       1.0  0.7335581654663414  0.07652655184676858  0.3630607396291765  1.0000
  H   H28       1.0  0.1922254595787436  0.07485508402650251  0.1364828135225267  1.0000
  H   H29       1.0  0.38069679364132  0.8356948870421733  0.7244951212021392  1.0000
  H   H30       1.0  0.7826031109771705  0.8377258029372143  0.7755049625548623  1.0000
  H   H31       1.0  0.6192943197444335  0.1643225825478964  0.2755030105023408  1.0000
  H   H32       1.0  0.21741105162926289  0.16227239280362235  0.22449246045880505  1.0000
  C   C1        1.0  0.19509765310776572  0.4312396839587578  0.7164924113239054  1.0000
  C   C2        1.0  0.37544441407270296  0.43142710723213185  0.7834260497132137  1.0000
  C   C3        1.0  0.8049089056692507  0.5687544954242653  0.28350620117677044  1.0000
  C   C4        1.0  0.6245701497056472  0.5685702853887378  0.21657137332412194  1.0000
  C   C5        1.0  0.05966674397948417  0.5257388529692051  0.6811407287061471  1.0000
  C   C6        1.0  0.4159539916139534  0.5260931799867875  0.8186442702073721  1.0000
  C   C7        1.0  0.9403448529117638  0.4742529173481884  0.31885768122017316  1.0000
  C   C8        1.0  0.584056857740286  0.47390822828778323  0.1813471092363272  1.0000
  C   C9        1.0  0.8801836557021331  0.5200332580262952  0.6222926233494378  1.0000
  C   C10       1.0  0.6009359267346637  0.520679222266608  0.877530269308302  1.0000
  C   C11       1.0  0.11982936875613605  0.47996333130514285  0.37770558378956315  1.0000
  C   C12       1.0  0.39906905896876294  0.47932620129118675  0.12246199541776552  1.0000
  C   C13       1.0  0.9956386656441221  0.3282228504534999  0.6333410619536296  1.0000
  C   C14       1.0  0.6777088004104428  0.3288448783273097  0.8668462915288232  1.0000
  C   C15       1.0  0.004365034333339598  0.6717729348883098  0.3666617483543888  1.0000
  C   C16       1.0  0.3222961689954787  0.6711597417085072  0.13315826281689172  1.0000
  C   C17       1.0  0.8480829311597302  0.4188571723062467  0.5973548729067701  1.0000
  C   C18       1.0  0.7343447456262311  0.41964417429603174  0.9026503029442239  1.0000
  C   C19       1.0  0.15192166393254766  0.5811370068849727  0.4026452064272449  1.0000
  C   C20       1.0  0.2656550628064807  0.5803636581933915  0.09734626088819448  1.0000
  C   C21       1.0  0.15017897428076307  0.07648402340362281  0.905504643259164  1.0000
  C   C22       1.0  0.7747954050784145  0.07598775535700501  0.5950685437336035  1.0000
  C   C23       1.0  0.8498095101616769  0.9235109573731677  0.0945071707178968  1.0000
  C   C24       1.0  0.22507953013304416  0.9240040040004162  0.40495276347513  1.0000
  C   C25       1.0  0.714926261492053  0.6188157335798864  0.5889682220502479  1.0000
  C   C26       1.0  0.6671298323338275  0.6195798853726586  0.9107845192019184  1.0000
  C   C27       1.0  0.28508932447073226  0.3811832653387057  0.4110318306384145  1.0000
  C   C28       1.0  0.3328814455957314  0.38042473564058105  0.0892033450477925  1.0000
  C   C29       1.0  0.6219950988225803  0.8107487516366164  0.5897809716496171  1.0000
  C   C30       1.0  0.5670204603132447  0.8114955436635541  0.9100789980446535  1.0000
  C   C31       1.0  0.3780126444880949  0.18924703420047004  0.4102154912150695  1.0000
  C   C32       1.0  0.43299463591730347  0.1885082741219577  0.08992095317936591  1.0000
  C   C33       1.0  0.35869532193983383  0.8401224053178142  0.6512793173653222  1.0000
  C   C34       1.0  0.8001301501629001  0.8417470862854655  0.8487639332885523  1.0000
  C   C35       1.0  0.641311017541703  0.15988382135073922  0.34871762530173817  1.0000
  C   C36       1.0  0.19988086843579816  0.15825351864580034  0.15123427373213624  1.0000
  N   N1        1.0  0.16315377905251435  0.33327939290824565  0.6925545637002203  1.0000
  N   N2        1.0  0.505465665419564  0.3335899784580079  0.8075508238547046  1.0000
  N   N3        1.0  0.8368457737148631  0.6667131795123212  0.30744855067047183  1.0000
  N   N4        1.0  0.4945406424479091  0.6664082165156271  0.1924524664923197  1.0000
  N   N5        1.0  0.2456256242012742  0.12490129481380315  0.8447435042728131  1.0000
  N   N6        1.0  0.6315599316392522  0.1243769968075839  0.655962444544052  1.0000
  N   N7        1.0  0.7543414114974852  0.8751057314960774  0.155271850952019  1.0000
  N   N8        1.0  0.36836975231043556  0.8756123571755979  0.34406012223283267  1.0000
  O   O1        1.0  0.7768533404398851  0.7091024482107714  0.6170141217905468  1.0000
  O   O2        1.0  0.5151845233626274  0.7097277397973014  0.8824827226672268  1.0000
  O   O3        1.0  0.22316458718680815  0.29089574775731813  0.38298514684377954  1.0000
  O   O4        1.0  0.4848189994941947  0.2902760770384205  0.11751988475882061  1.0000
  O   O5        1.0  0.5408353009050514  0.6182635173251613  0.543020284173096  1.0000
  O   O6        1.0  0.8413137540588947  0.619279961540002  0.9568918214713236  1.0000
  O   O7        1.0  0.4591594188172721  0.38174270834893775  0.4569806802066623  1.0000
  O   O8        1.0  0.1587468454095883  0.3807222539702765  0.043088047739900014  1.0000
