data_image0
_chemical_formula_structural       Cd6H36C36N24O12
_chemical_formula_sum              "Cd6 H36 C36 N24 O12"
_cell_length_a       12.668504309693205
_cell_length_b       12.669279620382007
_cell_length_c       12.5772
_cell_angle_alpha    96.53911331415229
_cell_angle_beta     96.53951525379628
_cell_angle_gamma    96.5991083866452

_space_group_name_H-M_alt    "P 1"
_space_group_IT_number       1

loop_
  _space_group_symop_operation_xyz
  'x, y, z'

loop_
  _atom_site_type_symbol
  _atom_site_label
  _atom_site_symmetry_multiplicity
  _atom_site_fract_x
  _atom_site_fract_y
  _atom_site_fract_z
  _atom_site_occupancy
  Cd  Cd1       1.0  0.9626997984181925  0.6718690424206457  0.23223924126887843  1.0000
  Cd  Cd2       1.0  0.2320661734088461  0.9627866399742402  0.6727784292002921  1.0000
  Cd  Cd3       1.0  0.6710456925607956  0.2335348311598864  0.9627576218317341  1.0000
  Cd  Cd4       1.0  0.03729905340630069  0.3281301028230743  0.7677598928927836  1.0000
  Cd  Cd5       1.0  0.7679345789448178  0.0372149089710518  0.32722358399063717  1.0000
  Cd  Cd6       1.0  0.3289524685588744  0.7664651153176933  0.037243115188338956  1.0000
  H   H1        1.0  0.9063034172810802  0.511363472420264  0.9173475907033005  1.0000
  H   H2        1.0  0.9189290151753085  0.9070928745517648  0.5116152306086121  1.0000
  H   H3        1.0  0.5105484728159694  0.9195160055095499  0.907460429115396  1.0000
  H   H4        1.0  0.09369664436776048  0.4886388777588877  0.08265125480887997  1.0000
  H   H5        1.0  0.08107332623582407  0.0929086743935272  0.48838616978182603  1.0000
  H   H6        1.0  0.48945397241906347  0.0804863446696018  0.09253789474082197  1.0000
  H   H7        1.0  0.7643675212032688  0.49500067458602365  0.9092517726848611  1.0000
  H   H8        1.0  0.9108115239145461  0.7651486880901146  0.49534941720251874  1.0000
  H   H9        1.0  0.4942619257257092  0.9116959630620869  0.764476228263163  1.0000
  H   H10       1.0  0.23562894703503184  0.5049984706576964  0.09074390768513038  1.0000
  H   H11       1.0  0.0891883300864862  0.2348520596213248  0.5046524010200102  1.0000
  H   H12       1.0  0.5057387228040539  0.0883047846493525  0.23552329583529996  1.0000
  H   H13       1.0  0.8417130044331884  0.6094256829840887  0.9886824645907593  1.0000
  H   H14       1.0  0.9897598389618664  0.8424797738295808  0.610596792956862  1.0000
  H   H15       1.0  0.6087145072396253  0.9905902560571818  0.8423703618663579  1.0000
  H   H16       1.0  0.15828643427222738  0.390571859791919  0.01131655306765818  1.0000
  H   H17       1.0  0.0102416040966276  0.1575209738818586  0.3894036173756489  1.0000
  H   H18       1.0  0.3912862451140454  0.0094112928881103  0.15762926605598435  1.0000
  H   H19       1.0  0.95522276609352  0.4034372718389463  0.485343261464301  1.0000
  H   H20       1.0  0.483288807757873  0.9540660106711485  0.40292829744379327  1.0000
  H   H21       1.0  0.40305823163323845  0.48387394000938855  0.9544924299142323  1.0000
  H   H22       1.0  0.0447788846127821  0.5965650783402054  0.5146597417845554  1.0000
  H   H23       1.0  0.5167109424192589  0.04593393580643121  0.5970702365967426  1.0000
  H   H24       1.0  0.5969407240151625  0.5161260064681841  0.04550760316083569  1.0000
  H   H25       1.0  0.8880926304228252  0.3070520437384943  0.3736777625625151  1.0000
  H   H26       1.0  0.372259603863796  0.8871141083194374  0.3059702759312941  1.0000
  H   H27       1.0  0.30658451043931473  0.3726867176287669  0.8874956119622579  1.0000
  H   H28       1.0  0.11190670445868989  0.6929446978036538  0.6263227414510765  1.0000
  H   H29       1.0  0.627741148489875  0.1128874406258618  0.6940317372596281  1.0000
  H   H30       1.0  0.6934146528568945  0.6273148313165251  0.1125038336710418  1.0000
  H   H31       1.0  0.7130482848113002  0.0859098966498166  0.12431810485476545  1.0000
  H   H32       1.0  0.12443054659177476  0.7120421067929287  0.08385565932105978  1.0000
  H   H33       1.0  0.08503095421517767  0.12446847479959901  0.7132044444061307  1.0000
  H   H34       1.0  0.28695246754236337  0.9140916522954754  0.8756831132466302  1.0000
  H   H35       1.0  0.8755693074092575  0.2879586409185038  0.9161437736328821  1.0000
  H   H36       1.0  0.9149694866667772  0.8755306704441281  0.28679566713410043  1.0000
  C   C1        1.0  0.8446149909860665  0.4640674390563859  0.059338467650633185  1.0000
  C   C2        1.0  0.059774030586666485  0.8453289614262189  0.4640873148605563  1.0000
  C   C3        1.0  0.4632211407233271  0.06043706985782651  0.8454697366340367  1.0000
  C   C4        1.0  0.15538634824852687  0.5359325074211938  0.940660248678945  1.0000
  C   C5        1.0  0.9402257195904653  0.1546709850513608  0.5359128093590327  1.0000
  C   C6        1.0  0.5367794039825283  0.9395628766197532  0.154529683640547  1.0000
  C   C7        1.0  0.9293779919729912  0.4575702337073579  0.33886185734652224  1.0000
  C   C8        1.0  0.3378019926598412  0.9292525993437337  0.4574437312855294  1.0000
  C   C9        1.0  0.4570851584436254  0.33846201341324905  0.9292085899378576  1.0000
  C   C10       1.0  0.0706153298492964  0.542416893028502  0.661137649002896  1.0000
  C   C11       1.0  0.6621978613411982  0.0707481483677057  0.5425628574741593  1.0000
  C   C12       1.0  0.5429098245611215  0.6615379330643307  0.07078860214602396  1.0000
  C   C13       1.0  0.8853506751501213  0.4274021765114568  0.223949254473645  1.0000
  C   C14       1.0  0.22340619877725484  0.8855012245646421  0.4270121485519808  1.0000
  C   C15       1.0  0.4267443194797025  0.22409469385291203  0.88552443509527  1.0000
  C   C16       1.0  0.11464658761691027  0.5725969687322632  0.7760496973989743  1.0000
  C   C17       1.0  0.7765951404573384  0.1144987219129376  0.5729889530461774  1.0000
  C   C18       1.0  0.5732546361686984  0.7759052526246677  0.1144755979797978  1.0000
  C   C19       1.0  0.8292823459410528  0.33509122257549256  0.16095025340786148  1.0000
  C   C20       1.0  0.16061128532775368  0.8290775350981505  0.3343406379285695  1.0000
  C   C21       1.0  0.33423041904090667  0.1611681904003888  0.8299016579292271  1.0000
  C   C22       1.0  0.17071819876480987  0.6649087239020873  0.8390483717771955  1.0000
  C   C23       1.0  0.839389950082939  0.1709216101455766  0.6656603598457096  1.0000
  C   C24       1.0  0.6657692273123172  0.8388309548433313  0.17009756737695617  1.0000
  C   C25       1.0  0.7944313774486461  0.22522763852716574  0.1838883018170847  1.0000
  C   C26       1.0  0.1834382006678865  0.7936317504840673  0.22400793636439426  1.0000
  C   C27       1.0  0.22445547499201268  0.1839801195522099  0.7946513724887935  1.0000
  C   C28       1.0  0.2055701694337557  0.7747739104181264  0.8161130074288392  1.0000
  C   C29       1.0  0.8165622402140682  0.2063673947596527  0.7759929702653635  1.0000
  C   C30       1.0  0.7755452773616509  0.8160214293930821  0.20534905052308255  1.0000
  C   C31       1.0  0.8388315613306145  0.5232121187023466  0.9634983281952144  1.0000
  C   C32       1.0  0.9646901964594575  0.8396418035069431  0.5237519473510445  1.0000
  C   C33       1.0  0.5224984864234868  0.9654315129372649  0.8395604308874522  1.0000
  C   C34       1.0  0.16116649596515484  0.4767870265413734  0.03649912464287297  1.0000
  C   C35       1.0  0.0353112465990364  0.16035894420449642  0.4762492580710002  1.0000
  C   C36       1.0  0.47750306045890767  0.0345700360080272  0.16043849308988456  1.0000
  N   N1        1.0  0.804134007752168  0.3605440185210469  0.05805209407458989  1.0000
  N   N2        1.0  0.058390305999722586  0.8043298249470325  0.36000295407956157  1.0000
  N   N3        1.0  0.35948671078752165  0.0588370058447509  0.8053076825574975  1.0000
  N   N4        1.0  0.1958674353063259  0.6394567291903854  0.9419459309893481  1.0000
  N   N5        1.0  0.941611723939701  0.1956693202966875  0.6399989299287653  1.0000
  N   N6        1.0  0.6405154229757954  0.9411629406328289  0.19469271509565533  1.0000
  N   N7        1.0  0.8940817817440132  0.5064567162780236  0.15781345154662316  1.0000
  N   N8        1.0  0.15765349314742136  0.8948588347843085  0.5064999027359532  1.0000
  N   N9        1.0  0.5058017061827869  0.1585129013972235  0.894377163323952  1.0000
  N   N10       1.0  0.10592014437149537  0.4935416277318438  0.8421859433692376  1.0000
  N   N11       1.0  0.8423461532058096  0.1051403104594115  0.4935025029283437  1.0000
  N   N12       1.0  0.4941974571134152  0.8414886475480685  0.10562387248840814  1.0000
  N   N13       1.0  0.9230369043350422  0.3835073808719116  0.40564806701964057  1.0000
  N   N14       1.0  0.40410329467061956  0.9224853781847884  0.3828266093280773  1.0000
  N   N15       1.0  0.3830006677799601  0.4046687682776451  0.9226995127425963  1.0000
  N   N16       1.0  0.07696236278506768  0.6164949693072401  0.5943498922584849  1.0000
  N   N17       1.0  0.595898252211782  0.0775161707605037  0.6171731097387932  1.0000
  N   N18       1.0  0.6169982878684335  0.5953311781999275  0.07730131542199807  1.0000
  N   N19       1.0  0.7340997785304636  0.1610680361682242  0.10497762159908317  1.0000
  N   N20       1.0  0.1048901271581499  0.7336882406823548  0.15928644808119688  1.0000
  N   N21       1.0  0.15997592441699737  0.1051130685082597  0.734978320980552  1.0000
  N   N22       1.0  0.2659000754705758  0.8389327115432154  0.8950234015339119  1.0000
  N   N23       1.0  0.8951105213716133  0.2663125070290846  0.8407146661963266  1.0000
  N   N24       1.0  0.8400237219362268  0.8948860767354603  0.2650224945046844  1.0000
  O   O1        1.0  0.9715512490839797  0.5539314247920828  0.37099356772077385  1.0000
  O   O2        1.0  0.3700491294607672  0.9716186407835039  0.5542833772411484  1.0000
  O   O3        1.0  0.553440164948931  0.3707885946207767  0.9713953469287374  1.0000
  O   O4        1.0  0.0284495032696839  0.4460701241532092  0.629005265112049  1.0000
  O   O5        1.0  0.6299505168924638  0.0283805044602161  0.4457150529755082  1.0000
  O   O6        1.0  0.4465605874047398  0.6292129543245224  0.0286018957250249  1.0000
  O   O7        1.0  0.8254336340468809  0.19949761566697793  0.2782858432212407  1.0000
  O   O8        1.0  0.27764903514546546  0.8238510866468332  0.19869207532053676  1.0000
  O   O9        1.0  0.19925665399706108  0.2782380717614714  0.8245418280973096  1.0000
  O   O10       1.0  0.17456791283551346  0.8005039332783213  0.7217162611142098  1.0000
  O   O11       1.0  0.7223507150316661  0.1761488598307466  0.8013088439885792  1.0000
  O   O12       1.0  0.8007438907087943  0.7217618747161083  0.1754583872668006  1.0000
