data_image0
_chemical_formula_structural       Zn2H40C84N4O40
_chemical_formula_sum              "Zn2 H40 C84 N4 O40"
_cell_length_a       16.868026698336003
_cell_length_b       17.43454344764615
_cell_length_c       27.86896035421624
_cell_angle_alpha    92.04885851689741
_cell_angle_beta     90.86545479915745
_cell_angle_gamma    90.39755034616928

_space_group_name_H-M_alt    "P 1"
_space_group_IT_number       1

loop_
  _space_group_symop_operation_xyz
  'x, y, z'

loop_
  _atom_site_type_symbol
  _atom_site_label
  _atom_site_symmetry_multiplicity
  _atom_site_fract_x
  _atom_site_fract_y
  _atom_site_fract_z
  _atom_site_occupancy
  Zn  Zn1       1.0  0.41107207505802273  0.500513672409227  0.5022709589335363  1.0000
  Zn  Zn2       1.0  0.5832994204343791  0.49617363117724295  0.5024582341978885  1.0000
  H   H1        1.0  0.3725533600529757  0.506631760998161  0.3515840764196909  1.0000
  H   H2        1.0  0.3797565113830643  0.5141038682401771  0.6568747150942187  1.0000
  H   H3        1.0  0.47436505061074274  0.313396440278929  0.1208835544586435  1.0000
  H   H4        1.0  0.5557866452998823  0.6877510458147571  0.8818913379813011  1.0000
  H   H5        1.0  0.6322227576286962  0.4844609572092011  0.6482994603612013  1.0000
  H   H6        1.0  0.6266971851609496  0.4889508160840635  0.3503931073844129  1.0000
  H   H7        1.0  0.640347674402285  0.47782849572246294  0.7377318257042517  1.0000
  H   H8        1.0  0.6230260607950271  0.49853650099103675  0.2609632254611398  1.0000
  H   H9        1.0  0.5459413686336559  0.3068830340355009  0.87640119253615  1.0000
  H   H10       1.0  0.4850452845305854  0.694217471532234  0.12713266739120846  1.0000
  H   H11       1.0  0.4817767747848052  0.3107002897277837  0.0323218199203836  1.0000
  H   H12       1.0  0.5530673877586024  0.6906145184696372  0.9705775818582509  1.0000
  H   H13       1.0  0.37450329104863295  0.7342801116402031  0.4714286509263772  1.0000
  H   H14       1.0  0.5938372632801145  0.24766607057884477  0.5387296697425654  1.0000
  H   H15       1.0  0.4126238838985614  0.2740356542826349  0.43093606300495674  1.0000
  H   H16       1.0  0.628598879524304  0.7366772207685629  0.4831101782084346  1.0000
  H   H17       1.0  0.0326649995892936  0.3052936855953661  0.4601869589596461  1.0000
  H   H18       1.0  0.961009584248032  0.5925706696739185  0.6197925985101945  1.0000
  H   H19       1.0  0.0431126768770724  0.7065515558223794  0.539330511354045  1.0000
  H   H20       1.0  0.9596600205351179  0.4122361806050777  0.3835715720520554  1.0000
  H   H21       1.0  0.32607378730340736  0.34974075804552757  0.3908503865390571  1.0000
  H   H22       1.0  0.6497834725449606  0.6731726736394493  0.5865881725785016  1.0000
  H   H23       1.0  0.3003053929048392  0.7303734843900216  0.5534376742830958  1.0000
  H   H24       1.0  0.6431347871395443  0.31660515341823015  0.4244237447764618  1.0000
  H   H25       1.0  0.28457859353120085  0.5265067668509716  0.2034692868498666  1.0000
  H   H26       1.0  0.3131753189532346  0.5138885924809176  0.8091515933866447  1.0000
  H   H27       1.0  0.6195820626352598  0.22350427653076824  0.9063704786976886  1.0000
  H   H28       1.0  0.6883002500250156  0.2863075661349015  0.93686752447519  1.0000
  H   H29       1.0  0.6616741147973711  0.19758014859675652  0.9619242975252434  1.0000
  H   H30       1.0  0.5937398858046237  0.2982401145690973  0.0068316213527382045  1.0000
  H   H31       1.0  0.5226355786500037  0.24388972517067498  0.9734926642723778  1.0000
  H   H32       1.0  0.3468430649162569  0.7171154013634438  0.0662788603791853  1.0000
  H   H33       1.0  0.41599349293660737  0.7799243967233311  0.096394227160026  1.0000
  H   H34       1.0  0.3744415050590106  0.8049962537490318  0.04052640513970121  1.0000
  H   H35       1.0  0.513152362378591  0.757168397826348  0.029649862129808503  1.0000
  H   H36       1.0  0.44159043855241  0.7032487515720406  0.9964720074559137  1.0000
  H   H37       1.0  0.2938540383593208  0.9520351578800683  0.41785932866073244  1.0000
  H   H38       1.0  0.6483489299613722  0.0046899646036564005  0.5493202551031402  1.0000
  H   H39       1.0  0.41529048011410896  0.06930471244567832  0.3358424227866905  1.0000
  H   H40       1.0  0.7209096437741067  0.9475352834195903  0.4311754092556441  1.0000
  C   C1        1.0  0.492574088207796  0.3528918638512196  0.5009376990531464  1.0000
  C   C2        1.0  0.5000339105310516  0.6435952618080378  0.4899585822987831  1.0000
  C   C3        1.0  0.49935511847304787  0.49258404109723863  0.41006301904522496  1.0000
  C   C4        1.0  0.5009808730522706  0.503708742995869  0.5935929999270186  1.0000
  C   C5        1.0  0.49162561184837017  0.43419040861405045  0.18104246993319603  1.0000
  C   C6        1.0  0.5324691515239266  0.56668276738376  0.8220215473707384  1.0000
  C   C7        1.0  0.5019704803105397  0.5776274495263538  0.1831803729201056  1.0000
  C   C8        1.0  0.5237780065886994  0.4232064474310206  0.8205006697627937  1.0000
  C   C9        1.0  0.5684722020074132  0.5003134845485491  0.281429546523114  1.0000
  C   C10       1.0  0.5835615245572968  0.48577991997937203  0.7194836407734826  1.0000
  C   C11       1.0  0.5705745771281057  0.4952799953410507  0.3311458286189435  1.0000
  C   C12       1.0  0.5790064799490933  0.48905930865898034  0.6697808366861722  1.0000
  C   C13       1.0  0.4276821042567107  0.5047482592766884  0.3317879846613323  1.0000
  C   C14       1.0  0.4370419634390003  0.5058754696747201  0.67444222330775  1.0000
  C   C15       1.0  0.4244936397873146  0.5085346376813222  0.2816953875240458  1.0000
  C   C16       1.0  0.4408638914165195  0.5038502333235328  0.7247071699087896  1.0000
  C   C17       1.0  0.49645140065329224  0.5062996125147806  0.2567126688396186  1.0000
  C   C18       1.0  0.5155908152424901  0.4939498029164542  0.746881985018419  1.0000
  C   C19       1.0  0.5042787043399243  0.5035257099027036  0.10393588611091792  1.0000
  C   C20       1.0  0.5275456185186939  0.4976794890626338  0.8996238867704847  1.0000
  C   C21       1.0  0.4959690028717532  0.43415927997588  0.1282689779389798  1.0000
  C   C22       1.0  0.5340749045855585  0.56688981068033  0.8749782275920452  1.0000
  C   C23       1.0  0.4868825221488322  0.3656015033834877  0.10190604042942648  1.0000
  C   C24       1.0  0.5446966623794509  0.6354721876022609  0.9011051819022101  1.0000
  C   C25       1.0  0.5020388979874042  0.5744404977775376  0.130133242410011  1.0000
  C   C26       1.0  0.5286140579650649  0.4266704878115065  0.8735254156398681  1.0000
  C   C27       1.0  0.49960972472399584  0.4975360468169967  0.35655228368585773  1.0000
  C   C28       1.0  0.5054123067230449  0.49932293211311674  0.6470779658976297  1.0000
  C   C29       1.0  0.5245617375328421  0.4271306960744711  0.9751178013863608  1.0000
  C   C30       1.0  0.5101354541903759  0.5743902980160129  0.0285120129074343  1.0000
  C   C31       1.0  0.5228070510405373  0.5709722803506525  0.9766976294515288  1.0000
  C   C32       1.0  0.5117814489420595  0.43049340396977714  0.0268762455918434  1.0000
  C   C33       1.0  0.5229385950098403  0.49829276334908484  0.9507736886558931  1.0000
  C   C34       1.0  0.511005345638374  0.5031347887747374  0.0528562226808305  1.0000
  C   C35       1.0  0.5425679972879961  0.358679496566829  0.9483672579206013  1.0000
  C   C36       1.0  0.49167102091147535  0.6428275822720199  0.0551913711585854  1.0000
  C   C37       1.0  0.5388084720525228  0.3597402907738216  0.8979299462502581  1.0000
  C   C38       1.0  0.49335427061329523  0.6415090687586373  0.1056423519129552  1.0000
  C   C39       1.0  0.4933611597094368  0.36444747385520065  0.052063787751436094  1.0000
  C   C40       1.0  0.5406286121809954  0.6367857649363985  0.9511144077898592  1.0000
  C   C41       1.0  0.4306442232535942  0.8414601383354212  0.4561199180218267  1.0000
  C   C42       1.0  0.5601864991349146  0.14484471769391405  0.49834359114662874  1.0000
  C   C43       1.0  0.4628211213419745  0.16205408885708292  0.433738021733717  1.0000
  C   C44       1.0  0.5749952452447431  0.8432561381696076  0.463575903225852  1.0000
  C   C45       1.0  0.43073985512583596  0.7647048962146674  0.4686380081975656  1.0000
  C   C46       1.0  0.5548558232018052  0.22300843193367834  0.5106349038076274  1.0000
  C   C47       1.0  0.45436401664414217  0.23812903810634375  0.4496716008522553  1.0000
  C   C48       1.0  0.5734710375775973  0.7662430882023729  0.4752118303080833  1.0000
  C   C49       1.0  0.5014519919001046  0.7264492854123007  0.47755666965547755  1.0000
  C   C50       1.0  0.49952825756587765  0.26919482775846154  0.4879568560498484  1.0000
  C   C51       1.0  0.5034221001165876  0.8826269367649147  0.4534005704072612  1.0000
  C   C52       1.0  0.5125399854241265  0.1121463554095357  0.4599628780296782  1.0000
  C   C53       1.0  0.5056398496308885  0.9625745345609148  0.4479127399190048  1.0000
  C   C54       1.0  0.511291707724581  0.03226794457988552  0.4505302869588661  1.0000
  C   C55       1.0  0.1568087851176614  0.444933617274458  0.4757687813567202  1.0000
  C   C56       1.0  0.8369973071661149  0.5447954745706767  0.5351411978835543  1.0000
  C   C57       1.0  0.16120396206203938  0.5648603418597347  0.5223924668331462  1.0000
  C   C58       1.0  0.8356722090883437  0.45598660229129007  0.46633574250668625  1.0000
  C   C59       1.0  0.23966139642080717  0.44637561390487696  0.47568408493796716  1.0000
  C   C60       1.0  0.7542558460682044  0.5414440644158206  0.5342108812497273  1.0000
  C   C61       1.0  0.24374102628650007  0.5597606051029588  0.5225649574368632  1.0000
  C   C62       1.0  0.7532068284246235  0.4534544393571595  0.4693699944684866  1.0000
  C   C63       1.0  0.11675077894541629  0.5057357000755047  0.498984753972934  1.0000
  C   C64       1.0  0.8786408742612579  0.5022093776453577  0.500126702922735  1.0000
  C   C65       1.0  0.0336056584285629  0.5064627799767932  0.49907666564094194  1.0000
  C   C66       1.0  0.9617054195323644  0.504902344932731  0.4993548357099016  1.0000
  C   C67       1.0  0.10679975003614567  0.38486405186267814  0.4489927303570695  1.0000
  C   C68       1.0  0.8837249117837587  0.5967392091796385  0.5696739292925699  1.0000
  C   C69       1.0  0.1167458770985377  0.6267127774879881  0.5495933316231074  1.0000
  C   C70       1.0  0.8824789548602964  0.40537029607277475  0.4322745395912762  1.0000
  C   C71       1.0  0.27561679896162156  0.3782329011788193  0.4487362602816772  1.0000
  C   C72       1.0  0.7153415739135269  0.588109277667684  0.5741698314539505  1.0000
  C   C73       1.0  0.2885301129530403  0.6213232754763001  0.5519570864220498  1.0000
  C   C74       1.0  0.7121660678513351  0.40193859175609253  0.4317042716974981  1.0000
  C   C75       1.0  0.34339651065833715  0.5130094076131045  0.2600259092157557  1.0000
  C   C76       1.0  0.3638029901122337  0.5130082468993393  0.7497295237953665  1.0000
  C   C77       1.0  0.5719680474472143  0.2852176616374394  0.9701059878219452  1.0000
  C   C78       1.0  0.6388792694241658  0.24613314908071265  0.9419257123768717  1.0000
  C   C79       1.0  0.4632994754755301  0.7164664895530991  0.033192829370023  1.0000
  C   C80       1.0  0.39667603849604655  0.7567113066294057  0.06098468527666511  1.0000
  C   C81       1.0  0.3509308580220321  0.876598334239205  0.4500314083948567  1.0000
  C   C82       1.0  0.62092507122491  0.1019853875783383  0.5263625137720638  1.0000
  C   C83       1.0  0.41879417915482253  0.14044839238813014  0.3883587476918038  1.0000
  C   C84       1.0  0.6535848067957984  0.8833795569286953  0.4656300732158627  1.0000
  N   N1        1.0  0.4991372916116106  0.5062667994409298  0.2051141988427361  1.0000
  N   N2        1.0  0.5255285370258561  0.49426102815358064  0.798289268777708  1.0000
  N   N3        1.0  0.2828092792534917  0.5021916760533642  0.49923269982843277  1.0000
  N   N4        1.0  0.7124640276501424  0.4961299639251636  0.5022356740651404  1.0000
  O   O1        1.0  0.4272503280232911  0.38453194825502385  0.48999696392314007  1.0000
  O   O2        1.0  0.563970571424221  0.6069869980306779  0.4831595635277068  1.0000
  O   O3        1.0  0.43536699962450587  0.6172087538742376  0.5059716649244876  1.0000
  O   O4        1.0  0.5533432580569907  0.38573476359890446  0.5199130684912419  1.0000
  O   O5        1.0  0.43589350297125407  0.5123249808809831  0.430802591224257  1.0000
  O   O6        1.0  0.5647349254789447  0.5235832327166747  0.5728256267295606  1.0000
  O   O7        1.0  0.43509929184835267  0.4874969075167713  0.5729781497066782  1.0000
  O   O8        1.0  0.5624243965914031  0.46884828286309965  0.4307185937290186  1.0000
  O   O9        1.0  0.4828409725663717  0.3755215242415774  0.20379680197031289  1.0000
  O   O10       1.0  0.5354841372436567  0.6255711608959661  0.799013627554416  1.0000
  O   O11       1.0  0.518083769473577  0.3627419302609597  0.7964716024806292  1.0000
  O   O12       1.0  0.5041899206905213  0.6378237412456687  0.20763949346807917  1.0000
  O   O13       1.0  0.09672924928818818  0.3842380300421767  0.4054976968909045  1.0000
  O   O14       1.0  0.07051855145452629  0.337887565414576  0.4790120213075255  1.0000
  O   O15       1.0  0.8848794487343595  0.6663665290347254  0.5668474744735903  1.0000
  O   O16       1.0  0.9268769213685812  0.5565107328598203  0.6008638820574675  1.0000
  O   O17       1.0  0.11503168911197285  0.6316332115337175  0.5932921543916478  1.0000
  O   O18       1.0  0.07579732231188528  0.6714551829919414  0.5197279534163215  1.0000
  O   O19       1.0  0.8881037577673607  0.33624034374936684  0.4369334712602964  1.0000
  O   O20       1.0  0.9217423334279147  0.4462789825302665  0.4002082130904654  1.0000
  O   O21       1.0  0.26269570250649815  0.3132988474884399  0.4614550130052919  1.0000
  O   O22       1.0  0.3111349518504554  0.39746989295488094  0.4081975033693651  1.0000
  O   O23       1.0  0.7293450032874488  0.5740637958239603  0.6159622393313738  1.0000
  O   O24       1.0  0.6738442406206316  0.6474683959660582  0.5585323114248268  1.0000
  O   O25       1.0  0.32584300858799503  0.6098130421408143  0.5883606366866942  1.0000
  O   O26       1.0  0.27337380918445575  0.6904782375160681  0.5333803340150567  1.0000
  O   O27       1.0  0.7241527280654267  0.4098475144024506  0.38911060269430203  1.0000
  O   O28       1.0  0.6699743051645015  0.34589276295489674  0.45072930507374304  1.0000
  O   O29       1.0  0.2824438948058585  0.5071595423625228  0.2828706803578243  1.0000
  O   O30       1.0  0.34116306890808085  0.5247586642292106  0.2118007251620853  1.0000
  O   O31       1.0  0.300658615072436  0.5245073959860137  0.7292479340765041  1.0000
  O   O32       1.0  0.3678973751591101  0.5070133448530003  0.7985920573610485  1.0000
  O   O33       1.0  0.2922566412065705  0.8556860566845402  0.4714972198639558  1.0000
  O   O34       1.0  0.3484874830399533  0.9331853113364021  0.41776558302117905  1.0000
  O   O35       1.0  0.6815748104762631  0.1324594074897973  0.5426177054277872  1.0000
  O   O36       1.0  0.6028307568790082  0.0271194774106291  0.532655313788041  1.0000
  O   O37       1.0  0.36440211846036863  0.17814490313690362  0.37185607667671405  1.0000
  O   O38       1.0  0.4474072949642575  0.07691117241574123  0.3652436157867598  1.0000
  O   O39       1.0  0.7003628894306856  0.8800317588054442  0.49947063055288504  1.0000
  O   O40       1.0  0.669009440509292  0.9227698513602365  0.4256621703738119  1.0000
