data_image0
_chemical_formula_structural       Cu4H48C56I4N16
_chemical_formula_sum              "Cu4 H48 C56 I4 N16"
_cell_length_a       10.00328965956333
_cell_length_b       11.624541585113601
_cell_length_c       13.8012
_cell_angle_alpha    95.66325440614429
_cell_angle_beta     90.22681153659221
_cell_angle_gamma    94.06988481917847

_space_group_name_H-M_alt    "P 1"
_space_group_IT_number       1

loop_
  _space_group_symop_operation_xyz
  'x, y, z'

loop_
  _atom_site_type_symbol
  _atom_site_label
  _atom_site_symmetry_multiplicity
  _atom_site_fract_x
  _atom_site_fract_y
  _atom_site_fract_z
  _atom_site_occupancy
  Cu  Cu1       1.0  0.11952118525010752  0.534989621142671  0.5409061888485667  1.0000
  Cu  Cu2       1.0  0.8804762936087016  0.4650079324233332  0.4590926586279095  1.0000
  Cu  Cu3       1.0  0.623234215659629  0.5382778808120179  0.9659727473383483  1.0000
  Cu  Cu4       1.0  0.3767614075941239  0.46172140615392  0.03402551431599219  1.0000
  H   H1        1.0  0.29128473790270704  0.7002147024776091  0.44016538239862507  1.0000
  H   H2        1.0  0.7087190265357393  0.2997863178882625  0.5598381187141896  1.0000
  H   H3        1.0  0.5005301448966364  0.7030306106657207  0.3415787461640676  1.0000
  H   H4        1.0  0.4994726198628357  0.29697040970015104  0.6584204046323875  1.0000
  H   H5        1.0  0.509025235508723  0.3363480559355168  0.3695693970821452  1.0000
  H   H6        1.0  0.4909733149055029  0.6636503643304578  0.6304295255072461  1.0000
  H   H7        1.0  0.29835841717432027  0.3490235429318672  0.4646052063384332  1.0000
  H   H8        1.0  0.7016392054373811  0.6509757440340707  0.5353945102018969  1.0000
  H   H9        1.0  0.6345005807813919  0.5540206189864918  0.2211842559426032  1.0000
  H   H10       1.0  0.36549796963284115  0.4459778012794756  0.7788153912214567  1.0000
  H   H11       1.0  0.7291626741572088  0.5820046274745748  0.33177317313274557  1.0000
  H   H12       1.0  0.2708349484544925  0.41799465949136305  0.6682279925569432  1.0000
  H   H13       1.0  0.5916500508541205  0.3271307018017566  0.1560784234747885  1.0000
  H   H14       1.0  0.40835049891805403  0.6728677184642108  0.8439226785752751  1.0000
  H   H15       1.0  0.5752756002192214  0.12089684489627217  0.09966122470402888  1.0000
  H   H16       1.0  0.42472616486127635  0.8791041754695924  0.9003357495000727  1.0000
  H   H17       1.0  0.597112591740597  0.9316825288804437  0.0011762873887732907  1.0000
  H   H18       1.0  0.4028911008214068  0.06831762478546469  0.9988213448820602  1.0000
  H   H19       1.0  0.8098973674978682  0.8369730234436403  0.0007873457592352929  1.0000
  H   H20       1.0  0.19010632506413572  0.16302713022226809  0.9992117356609426  1.0000
  H   H21       1.0  0.001767895778094381  0.9257291668169925  0.10761599386845688  1.0000
  H   H22       1.0  0.9982360124132514  0.0742735869488058  0.892383304285495  1.0000
  H   H23       1.0  0.9764078883360415  0.10951880774837258  0.2105865335525152  1.0000
  H   H24       1.0  0.023590805831084093  0.8904813459175357  0.7894103598020336  1.0000
  H   H25       1.0  0.8037995400566161  0.353766125143423  0.008105431816815695  1.0000
  H   H26       1.0  0.19619886660471764  0.6462305617226178  0.9918947954327493  1.0000
  H   H27       1.0  0.016298652876812997  0.3403764773754503  0.0991863604682237  1.0000
  H   H28       1.0  0.9836991134877878  0.6596245429904214  0.9008149497106429  1.0000
  H   H29       1.0  0.9987932607433337  0.7025981273829058  0.20262811922156487  1.0000
  H   H30       1.0  0.0012009381640609937  0.29740809318276007  0.7973699900781739  1.0000
  H   H31       1.0  0.7846066555774414  0.6996522141999577  0.10867970061480037  1.0000
  H   H32       1.0  0.21538882392341924  0.30034533936605357  0.8913169674010105  1.0000
  H   H33       1.0  0.23517780265557783  0.5818659554800831  0.1808493127833302  1.0000
  H   H34       1.0  0.7648191077829483  0.4181367982857153  0.8191528635910642  1.0000
  H   H35       1.0  0.1435361456165012  0.5568642615735085  0.2884936436310284  1.0000
  H   H36       1.0  0.8564609085749169  0.4431402255922236  0.7115065035085237  1.0000
  H   H37       1.0  0.08918148989415191  0.3306997722599476  0.31417749660690925  1.0000
  H   H38       1.0  0.9108192755073788  0.6693012481059242  0.6858252713262658  1.0000
  H   H39       1.0  0.0964112025074328  0.150283173928635  0.3757428212003688  1.0000
  H   H40       1.0  0.9035943456596202  0.8497152463373396  0.624260468915331  1.0000
  H   H41       1.0  0.07569228314315518  0.948308434319827  0.41926343335105537  1.0000
  H   H42       1.0  0.9243091944315511  0.051689119246177  0.5807354255987107  1.0000
  H   H43       1.0  0.20878612454580997  0.7992637746419786  0.3330685430993937  1.0000
  H   H44       1.0  0.7912184958187112  0.20073551232395903  0.6669326426685416  1.0000
  H   H45       1.0  0.36933057148856113  0.8535564605847127  0.20353981080036476  1.0000
  H   H46       1.0  0.6306753360607331  0.14644629318109278  0.7964645651129558  1.0000
  H   H47       1.0  0.38863682393385096  0.0549149765180061  0.1585923062323644  1.0000
  H   H48       1.0  0.6113616546039254  0.9450825770480051  0.8414072686871137  1.0000
  C   C1        1.0  0.3433490253912197  0.6216206162004737  0.4223317314637356  1.0000
  C   C2        1.0  0.6566495250230063  0.3783778040655008  0.5776671911256557  1.0000
  C   C3        1.0  0.4597521527697452  0.622554918763349  0.3680662481775982  1.0000
  C   C4        1.0  0.5402496123107526  0.3774461016025228  0.6319350734745511  1.0000
  C   C5        1.0  0.5236674853826742  0.5193682209633791  0.3483188807734762  1.0000
  C   C6        1.0  0.47633313626595725  0.4806310660025587  0.6516808443718247  1.0000
  C   C7        1.0  0.46492964525490516  0.419357111837229  0.3832106653051923  1.0000
  C   C8        1.0  0.5350698329618525  0.5806404417287823  0.616787463333253  1.0000
  C   C9        1.0  0.34731749609061074  0.4256866216857276  0.43632441153586404  1.0000
  C   C10       1.0  0.6526831255580136  0.5743126652802104  0.5636760381841057  1.0000
  C   C11       1.0  0.6524377148090679  0.5220151226582033  0.2923995047309944  1.0000
  C   C12       1.0  0.3475609074816077  0.4779841643077347  0.7075994901029857  1.0000
  C   C13       1.0  0.673126073734167  0.3224799897865509  0.2074813019967578  1.0000
  C   C14       1.0  0.326875403840539  0.6775175637794533  0.7925190061023598  1.0000
  C   C15       1.0  0.7620579000336961  0.23814054943770194  0.21949065465168618  1.0000
  C   C16       1.0  0.23793972257800533  0.7618587375282359  0.7805112356126783  1.0000
  C   C17       1.0  0.7745263445717472  0.12723415504446928  0.1617746522423076  1.0000
  C   C18       1.0  0.2254746364591256  0.8727694654212995  0.8382218112525661  1.0000
  C   C19       1.0  0.6679557217951952  0.077041826638812  0.10175616722718668  1.0000
  C   C20       1.0  0.33204497172988573  0.9229583270270894  0.8982429055880273  1.0000
  C   C21       1.0  0.6808921154693054  0.9722986893665959  0.04564195126628326  1.0000
  C   C22       1.0  0.31910957773474286  0.0277014642993052  0.9543571244172568  1.0000
  C   C23       1.0  0.8007229765630017  0.9175882540404672  0.04691106627176108  1.0000
  C   C24       1.0  0.1992785728881543  0.0824101662255075  0.9530871403479181  1.0000
  C   C25       1.0  0.9072587505607288  0.9669866852776605  0.10631496113182948  1.0000
  C   C26       1.0  0.09274501387771752  0.0330143350882039  0.8936812942342413  1.0000
  C   C27       1.0  0.8939736807860968  0.0709367920813904  0.1638990844428179  1.0000
  C   C28       1.0  0.1060271564918835  0.9290650949844447  0.8361015820109259  1.0000
  C   C29       1.0  0.8512961752594067  0.4294056312379553  0.051656645813032795  1.0000
  C   C30       1.0  0.1487003757968708  0.5705927890280122  0.9483437201890652  1.0000
  C   C31       1.0  0.9702618166235198  0.422810044500025  0.10259460325215738  1.0000
  C   C32       1.0  0.0297338785066827  0.5771901091658762  0.8974059043707924  1.0000
  C   C33       1.0  0.027612276844010405  0.5215921730750068  0.15712375770700496  1.0000
  C   C34       1.0  0.9723836339155341  0.4784105806907916  0.8428791403737391  1.0000
  C   C35       1.0  0.9599542663597733  0.6233956177299403  0.1596250903667027  1.0000
  C   C36       1.0  0.04004171627622101  0.37660800273582135  0.8403764308092859  1.0000
  C   C37       1.0  0.841040122105511  0.622523717564583  0.10730579477709769  1.0000
  C   C38       1.0  0.15895750050619037  0.377475569401355  0.8926895743151916  1.0000
  C   C39       1.0  0.15835724889044664  0.5237493892892928  0.2119669578105885  1.0000
  C   C40       1.0  0.8416385181162056  0.47625163107657187  0.7880343466316332  1.0000
  C   C41       1.0  0.1702936625798586  0.32334928985201117  0.2624124339125444  1.0000
  C   C42       1.0  0.8297061031426907  0.6766517305138605  0.7375917803016563  1.0000
  C   C43       1.0  0.24909281873696903  0.2329715508430894  0.23211329563405056  1.0000
  C   C44       1.0  0.7509079466645547  0.7670294695227824  0.7678887477244486  1.0000
  C   C45       1.0  0.24402708864530354  0.1162452661811031  0.2631982311963483  1.0000
  C   C46       1.0  0.7559695342874235  0.8837540207848347  0.7367978596022906  1.0000
  C   C47       1.0  0.1568374333326119  0.0857278936936794  0.33779899376573047  1.0000
  C   C48       1.0  0.8431651876739679  0.9142713932722586  0.6622000125415395  1.0000
  C   C49       1.0  0.14510776522809007  0.9722094192701433  0.36264055075672985  1.0000
  C   C50       1.0  0.8548937842230658  0.0277890009958313  0.6373612787363283  1.0000
  C   C51       1.0  0.22081691148567734  0.8882686609054531  0.31424020964301036  1.0000
  C   C52       1.0  0.7791895644839073  0.11172889266055108  0.6857622865217435  1.0000
  C   C53       1.0  0.30984967288397774  0.91849308880451  0.24173324617936484  1.0000
  C   C54       1.0  0.6901529481226022  0.0815061981614278  0.7582672092772498  1.0000
  C   C55       1.0  0.32137215100761557  0.0316709501415815  0.21629181879124806  1.0000
  C   C56       1.0  0.6786315415543882  0.9683292035243198  0.7837079872036128  1.0000
  I   I1        1.0  0.9765669614624884  0.678002049060204  0.450258398519061  1.0000
  I   I2        1.0  0.0234308049021124  0.3219989713056606  0.5497429116597985  1.0000
  I   I3        1.0  0.4744283124464418  0.6756888268521165  0.07721129027285659  1.0000
  I   I4        1.0  0.5255673826837609  0.3243113268137847  0.9227892173500932  1.0000
  N   N1        1.0  0.2864928902618757  0.5248076299472473  0.4563354171294946  1.0000
  N   N2        1.0  0.7135056601523573  0.4751907903187274  0.543665679183917  1.0000
  N   N3        1.0  0.7098854132035514  0.410815783676611  0.275721606872942  1.0000
  N   N4        1.0  0.290113280963574  0.5891843699892974  0.7242774602056343  1.0000
  N   N5        1.0  0.8156900353839234  0.3827364381923174  0.3294646983292608  1.0000
  N   N6        1.0  0.1843116578201318  0.6172637154735909  0.6705336527795965  1.0000
  N   N7        1.0  0.8472071211197303  0.27874630952426566  0.29496900641547086  1.0000
  N   N8        1.0  0.1527935724053435  0.7212538441416355  0.7050300663997432  1.0000
  N   N9        1.0  0.7868919032618821  0.527419863643452  0.052859767688232785  1.0000
  N   N10       1.0  0.21310664715234404  0.47257855662252257  0.9471398794758342  1.0000
  N   N11       1.0  0.2125240664861323  0.41122486606035114  0.2103536865390581  1.0000
  N   N12       1.0  0.7874739155078105  0.5887787544054106  0.7896485649482513  1.0000
  N   N13       1.0  0.3125543219342219  0.3778751180854768  0.14893690165010298  1.0000
  N   N14       1.0  0.6874466590966435  0.6221285023802919  0.8510668075915219  1.0000
  N   N15       1.0  0.33503921930037  0.2703037851597259  0.1627735456705039  1.0000
  N   N16       1.0  0.6649606901750788  0.7296989686060724  0.8372286393088542  1.0000
