data_image0
_chemical_formula_structural       Al6H42C84Br13O28F13
_chemical_formula_sum              "Al6 H42 C84 Br13 O28 F13"
_cell_length_a       13.701916738936085
_cell_length_b       13.7458391546813
_cell_length_c       28.06104602427202
_cell_angle_alpha    90.37682802105248
_cell_angle_beta     90.05031299728579
_cell_angle_gamma    119.27282744770207

_space_group_name_H-M_alt    "P 1"
_space_group_IT_number       1

loop_
  _space_group_symop_operation_xyz
  'x, y, z'

loop_
  _atom_site_type_symbol
  _atom_site_label
  _atom_site_symmetry_multiplicity
  _atom_site_fract_x
  _atom_site_fract_y
  _atom_site_fract_z
  _atom_site_occupancy
  Al  Al1       1.0  0.4175175419100867  0.5878437402734138  0.5025565662727232  1.0000
  Al  Al2       1.0  0.642746533683642  0.5695293851106344  0.4994606779924453  1.0000
  Al  Al3       1.0  0.42380226441632357  0.3574004855775001  0.5013976935747735  1.0000
  Al  Al4       1.0  0.9210461071399506  0.07953676873208342  0.9969746589030352  1.0000
  Al  Al5       1.0  0.9085441683477599  0.3070663448902877  0.0026291747242766  1.0000
  Al  Al6       1.0  0.6923243485279896  0.09143660661967351  0.0011157202160702998  1.0000
  H   H1        1.0  0.7923034568947712  0.5103426761855517  0.7829379281986775  1.0000
  H   H2        1.0  0.6491273905209027  0.003959673024994002  0.7797603141287653  1.0000
  H   H3        1.0  0.786449156190713  0.025633096365893906  0.7703748057843214  1.0000
  H   H4        1.0  0.7237784951372461  0.7339467060675066  0.7921638580887844  1.0000
  H   H5        1.0  0.5800504499219841  0.6556656428482343  0.7276915875900513  1.0000
  H   H6        1.0  0.531869033682682  0.6892175762142829  0.8016718844245787  1.0000
  H   H7        1.0  0.49443904529779564  0.2972325172476503  0.19127449619836773  1.0000
  H   H8        1.0  0.4653969322725828  0.2683354921787356  0.2735673840912938  1.0000
  H   H9        1.0  0.6979263201793556  0.21727363701821642  0.29917455788276476  1.0000
  H   H10       1.0  0.5503992057103133  0.15576954275833546  0.2976184276735196  1.0000
  H   H11       1.0  0.5463527672936123  0.1453188498253297  0.2140072713353263  1.0000
  H   H12       1.0  0.05819991220369761  0.14452825989989293  0.7925231535484939  1.0000
  H   H13       1.0  0.6872903501131303  0.17806197522075007  0.2172517747353169  1.0000
  H   H14       1.0  0.8195634244032701  0.4159107440560915  0.2994932494086342  1.0000
  H   H15       1.0  0.5088566819849589  0.21563852164249653  0.7835399881309968  1.0000
  H   H16       1.0  0.5996304479714425  0.4378896965318547  0.20063382181644582  1.0000
  H   H17       1.0  0.8386683567954306  0.3868992429288129  0.2197642775468225  1.0000
  H   H18       1.0  0.2884522203307114  0.5221795343872844  0.2828365844681286  1.0000
  H   H19       1.0  0.00940041951727008  0.2544901477889496  0.2984004699559506  1.0000
  H   H20       1.0  0.07408510596939523  0.42426926997868014  0.2209470370814515  1.0000
  H   H21       1.0  0.592236515950695  0.13964802048211314  0.7077807735472704  1.0000
  H   H22       1.0  0.1252736093412992  0.16325584490157044  0.2978311162204008  1.0000
  H   H23       1.0  0.1450111218133543  0.47409933146578004  0.6964471265646353  1.0000
  H   H24       1.0  0.3666009047042564  0.45117535017775623  0.2778973984479762  1.0000
  H   H25       1.0  0.060060586358090993  0.1536926348751564  0.2214177884291075  1.0000
  H   H26       1.0  0.8113438267752924  0.007538163718649604  0.3061564557498713  1.0000
  H   H27       1.0  0.8562634583915595  0.9066704851673607  0.30295607696729127  1.0000
  H   H28       1.0  0.8012670529540102  0.22876539135116053  0.7552346451733668  1.0000
  H   H29       1.0  0.8429351157983972  0.029054260103869512  0.22434000864345194  1.0000
  H   H30       1.0  0.6036524223660819  0.9464741003503433  0.31102836737781564  1.0000
  H   H31       1.0  0.6750522571754018  0.012214511666940105  0.2369606004253129  1.0000
  H   H32       1.0  0.2646124280177489  0.2931800147776897  0.7973990552977385  1.0000
  H   H33       1.0  0.3190182415694593  0.33419503899522607  0.7177801479339863  1.0000
  H   H34       1.0  0.014706854754784627  0.348898547352576  0.6979825329659306  1.0000
  H   H35       1.0  0.0058789201239975095  0.16257737956954094  0.6975146287463544  1.0000
  H   H36       1.0  0.32023795742541955  0.4635881476299845  0.7206784281019835  1.0000
  H   H37       1.0  0.3026828604692753  0.43561761834929075  0.8034574669760133  1.0000
  H   H38       1.0  0.015574466441407328  0.3959328729776318  0.778776151698338  1.0000
  H   H39       1.0  0.8745942590993819  0.43429224478952494  0.7074631961722417  1.0000
  H   H40       1.0  0.5818112907950097  0.9143593082564794  0.7052303615732073  1.0000
  H   H41       1.0  0.3400322326095164  0.6944299297370337  0.5331691512449481  1.0000
  H   H42       1.0  0.009261378558228736  0.979756816124244  0.022791248914209902  1.0000
  C   C1        1.0  0.6219826858845607  0.7076081316474048  0.5666430130244109  1.0000
  C   C2        1.0  0.6578140225233113  0.3504491781654764  0.6491538598330066  1.0000
  C   C3        1.0  0.2718450576534934  0.3749447736576172  0.7297154440883276  1.0000
  C   C4        1.0  0.6038597266711322  0.39483585871668253  0.5644608994101574  1.0000
  C   C5        1.0  0.08314722968514592  0.20427265544324064  0.7186272224850256  1.0000
  C   C6        1.0  0.05286559297068291  0.20817950325932344  0.7711082682386845  1.0000
  C   C7        1.0  0.08140582621139462  0.30803423482828424  0.8860204449937186  1.0000
  C   C8        1.0  0.16054640002858633  0.32402662302545343  0.7011133003210617  1.0000
  C   C9        1.0  0.24900504048417094  0.35886456720093207  0.7834564822030572  1.0000
  C   C10       1.0  0.1251833994915401  0.3253432071151111  0.7932727219924515  1.0000
  C   C11       1.0  0.0966590324569196  0.40701431737902294  0.7668983820684049  1.0000
  C   C12       1.0  0.6363819938906444  0.36706008891081876  0.6088094405039756  1.0000
  C   C13       1.0  0.09987661486407264  0.3915636105239316  0.7129451190782135  1.0000
  C   C14       1.0  0.10330742072371632  0.32086847429385307  0.8438752151780378  1.0000
  C   C15       1.0  0.18936257478236487  0.3320098643891783  0.6510352699554005  1.0000
  C   C16       1.0  0.2914687549391816  0.38739524477532694  0.5677145953059792  1.0000
  C   C17       1.0  0.2278859290071225  0.35185298216720895  0.611055821825488  1.0000
  C   C18       1.0  0.5673787739600443  0.7286027161691708  0.7266108411884602  1.0000
  C   C19       1.0  0.6676299189137324  0.9332115712686716  0.7133409396002222  1.0000
  C   C20       1.0  0.6974052464925011  0.966077444305903  0.7656549212324322  1.0000
  C   C21       1.0  0.6824645949478736  0.9079610838813468  0.8872273153626437  1.0000
  C   C22       1.0  0.6730826806209791  0.8251211801097187  0.7019466341323763  1.0000
  C   C23       1.0  0.75254774416603  0.27140583740354884  0.7506357433949802  1.0000
  C   C24       1.0  0.5556868869048159  0.7610897500863774  0.7784417947701313  1.0000
  C   C25       1.0  0.6704149631246212  0.8597810599183479  0.7947599355494006  1.0000
  C   C26       1.0  0.7578862391168786  0.8213646844071933  0.7819608361079701  1.0000
  C   C27       1.0  0.7778979839287887  0.8317301264819437  0.7277952975743888  1.0000
  C   C28       1.0  0.614806467010368  0.7084274486238374  0.43628079514049034  1.0000
  C   C29       1.0  0.6721969256497999  0.882670195864698  0.8452778205352729  1.0000
  C   C30       1.0  0.6718443287707957  0.8017879367266975  0.6516582037829651  1.0000
  C   C31       1.0  0.6590892926485096  0.7694145548357767  0.610672110910926  1.0000
  C   C32       1.0  0.5452341169372303  0.34275482206758323  0.26523946308874  1.0000
  C   C33       1.0  0.6279756391815994  0.2217850941177772  0.2820622970882667  1.0000
  C   C34       1.0  0.706391428826805  0.31362955618550364  0.793604922622272  1.0000
  C   C35       1.0  0.6289170285022506  0.2076781854526502  0.2274347955603417  1.0000
  C   C36       1.0  0.6954304149671344  0.29247399233035765  0.1102758497539966  1.0000
  C   C37       1.0  0.6387419724083401  0.3369949230263671  0.2944587349126451  1.0000
  C   C38       1.0  0.5704700234958793  0.3515624734738196  0.21168842836865312  1.0000
  C   C39       1.0  0.6624061655970763  0.3196952214726637  0.20193882473456168  1.0000
  C   C40       1.0  0.5927201977439438  0.391408714713812  0.4338200040109186  1.0000
  C   C41       1.0  0.7732618890847716  0.41038966881093597  0.22431504998531443  1.0000
  C   C42       1.0  0.7570856516907793  0.4256225768983983  0.2783696226415628  1.0000
  C   C43       1.0  0.6781539670138484  0.3072294724382516  0.1514891067498993  1.0000
  C   C44       1.0  0.6242651260908686  0.348805810895051  0.3450033785876983  1.0000
  C   C45       1.0  0.6365254090360182  0.2215685453853028  0.7249448532812438  1.0000
  C   C46       1.0  0.6133001062226029  0.3623304180027703  0.38711306547320135  1.0000
  C   C47       1.0  0.2856929470085419  0.4455889988853273  0.2698126055034678  1.0000
  C   C48       1.0  0.07536020196204157  0.3340142588587867  0.2846276671587376  1.0000
  C   C49       1.0  0.06407458467367631  0.34297601454230897  0.23075920777930042  1.0000
  C   C50       1.0  0.10062754182821011  0.30317508501133267  0.11129703119257779  1.0000
  C   C51       1.0  0.19102932174678242  0.34455000155395527  0.29604363572238407  1.0000
  C   C52       1.0  0.296388397186881  0.39577806136420435  0.4346170128976894  1.0000
  C   C53       1.0  0.26751998600162347  0.43194170776533986  0.2157849633421449  1.0000
  C   C54       1.0  0.1538196604555537  0.3261028783807589  0.2031359116238178  1.0000
  C   C55       1.0  0.1482499168600455  0.21846308908508416  0.2238410594426767  1.0000
  C   C56       1.0  0.6775852482610462  0.3352556917688221  0.6972976519263696  1.0000
  C   C57       1.0  0.1844135186719456  0.2350508850396125  0.2766449650120819  1.0000
  C   C58       1.0  0.13023507567449144  0.31603204563296583  0.1526095115812538  1.0000
  C   C59       1.0  0.2157125425228799  0.35551806434555294  0.34663387004550833  1.0000
  C   C60       1.0  0.24462609225404455  0.3682722881131113  0.38810241485299457  1.0000
  C   C61       1.0  0.6509028255042394  0.7299101179833516  0.2731622574346204  1.0000
  C   C62       1.0  0.7946896359146579  0.9285305723064143  0.28916530106074134  1.0000
  C   C63       1.0  0.8077912335218684  0.9414607496643017  0.2347895787879892  1.0000
  C   C64       1.0  0.7935389438808754  0.3851084898088644  0.724690883915784  1.0000
  C   C65       1.0  0.7140261425738643  0.9276865899343607  0.11731131813738929  1.0000
  C   C66       1.0  0.675347020903473  0.8367888570823468  0.3025554567629456  1.0000
  C   C67       1.0  0.5902268557785533  0.2631498614624874  0.766454465685733  1.0000
  C   C68       1.0  0.6394366389021684  0.7478553101658607  0.2186001947165579  1.0000
  C   C69       1.0  0.6918283092644729  0.8751096130306665  0.209131681610252  1.0000
  C   C70       1.0  0.6212416412043991  0.9212801800663541  0.2353561624203735  1.0000
  C   C71       1.0  0.5933983245059621  0.8783276022773026  0.2870581122855  1.0000
  C   C72       1.0  0.7026845353766619  0.900560324263012  0.1588155784733729  1.0000
  C   C73       1.0  0.6637694469248814  0.8076025671762254  0.35250693590121074  1.0000
  C   C74       1.0  0.6484138350327912  0.7713473568729657  0.3926888252651963  1.0000
  C   C75       1.0  0.034421073856663  0.2758470121694714  0.9328046017577165  1.0000
  C   C76       1.0  0.7482265010321216  0.42777599242803194  0.7663176938350632  1.0000
  C   C77       1.0  0.7414432808397605  0.26559270720436967  0.9336952556097486  1.0000
  C   C78       1.0  0.63230447759058  0.3766129527023382  0.7410930294699795  1.0000
  C   C79       1.0  0.7147923479906595  0.9584308365469172  0.9338996065042339  1.0000
  C   C80       1.0  0.04419561942679453  0.2757801888104155  0.0658755132073239  1.0000
  C   C81       1.0  0.7266800088028375  0.2657882957523299  0.0652549089139427  1.0000
  C   C82       1.0  0.7360878887157513  0.9711966230044528  0.06954657650530291  1.0000
  C   C83       1.0  0.7246428206643145  0.2886224882949407  0.8855531102747561  1.0000
  C   C84       1.0  0.7183947300557705  0.30098675909265893  0.8428816919950607  1.0000
  Br  Br1       1.0  0.15177925490770153  0.10836367668839844  0.7108019913370357  1.0000
  Br  Br2       1.0  0.9111295925120686  0.23741378036723404  0.20900815544754892  1.0000
  Br  Br3       1.0  0.2226649514477614  0.15494503576223204  0.1858655514127747  1.0000
  Br  Br4       1.0  0.7022866057076199  0.6758698789684418  0.1789234320102935  1.0000
  Br  Br5       1.0  0.4899945889265068  0.9035922324808751  0.20100623167324017  1.0000
  Br  Br6       1.0  0.4374642679490606  0.8000270133119258  0.7900352758496467  1.0000
  Br  Br7       1.0  0.43329119622779183  0.6765893359473623  0.6871476930362306  1.0000
  Br  Br8       1.0  0.7565329490944634  0.057304613334864016  0.6697744490690241  1.0000
  Br  Br9       1.0  0.8117295564884514  0.7152758257139242  0.7054892875586702  1.0000
  Br  Br10      1.0  0.5419416659406835  0.44672997482565086  0.7349393614133177  1.0000
  Br  Br11      1.0  0.89788515803577  0.8988040453095822  0.8174905059180446  1.0000
  Br  Br12      1.0  0.27094016500181084  0.5654355352039817  0.1876380677062102  1.0000
  Br  Br13      1.0  0.05135238897506163  0.446445736455722  0.3180147696118354  1.0000
  O   O1        1.0  0.3237500376429098  0.48604129499442933  0.5543569451463455  1.0000
  O   O2        1.0  0.6692321888370215  0.17204136689967703  0.9510291299040573  1.0000
  O   O3        1.0  0.6433828168746132  0.9770770288686638  0.9564645257114464  1.0000
  O   O4        1.0  0.5250239858884314  0.6832478061733983  0.5526329758244231  1.0000
  O   O5        1.0  0.8274636906868126  0.9898435072141826  0.0510800531706153  1.0000
  O   O6        1.0  0.023734135730016717  0.18460407736182566  0.04669476169627979  1.0000
  O   O7        1.0  0.014729961893074558  0.345892476944691  0.0505194617906284  1.0000
  O   O8        1.0  0.8238866530357072  0.3337361817083605  0.04939922039677211  1.0000
  O   O9        1.0  0.6572214375503904  0.17303457449127546  0.0454251026636285  1.0000
  O   O10       1.0  0.6616613016638836  0.9908771082478582  0.0509096450368531  1.0000
  O   O11       1.0  0.8398435663475751  0.16002028605632293  0.0007421522021858  1.0000
  O   O12       1.0  0.6650600183629507  0.4864910955048245  0.4506590178478049  1.0000
  O   O13       1.0  0.6887516000125016  0.6784716197220177  0.5470112776483518  1.0000
  O   O14       1.0  0.6739162613622227  0.4866979820223777  0.5449483361950271  1.0000
  O   O15       1.0  0.5055528171185985  0.32799958075702323  0.5487147861870127  1.0000
  O   O16       1.0  0.3137345814754795  0.316145875544713  0.5471688326816135  1.0000
  O   O17       1.0  0.3210865729690013  0.4902100491740527  0.4515577839733069  1.0000
  O   O18       1.0  0.5192183220810307  0.6827655206196612  0.4519626445629115  1.0000
  O   O19       1.0  0.6844364188902077  0.6804219268150934  0.4538934525086873  1.0000
  O   O20       1.0  0.5015091204660181  0.3227692592445522  0.4543717574876069  1.0000
  O   O21       1.0  0.3164570822591699  0.3222404717428518  0.4535557419665679  1.0000
  O   O22       1.0  0.49558420668004993  0.5044564608937636  0.5012341236030693  1.0000
  O   O23       1.0  0.8120968713087677  0.9845493368392085  0.9476765713352151  1.0000
  O   O24       1.0  0.007478402649574898  0.17794433187670222  0.9454137620879166  1.0000
  O   O25       1.0  0.01967121904898046  0.3478002341615394  0.956861032493002  1.0000
  O   O26       1.0  0.8303072905386059  0.3383934374074613  0.9550229504680843  1.0000
  O   O27       1.0  0.344670606110853  0.662576000432985  0.5030383912065517  1.0000
  O   O28       1.0  0.9930541549246854  0.004357756084488101  0.9931122651032425  1.0000
  F   F1        1.0  0.938831117717406  0.18301808034138395  0.7729669745801574  1.0000
  F   F2        1.0  0.8838198612704105  0.9080983251610563  0.21872410764061104  1.0000
  F   F3        1.0  0.48340741618918776  0.7931745986123176  0.2919582264679548  1.0000
  F   F4        1.0  0.5555514238023349  0.6394387459814227  0.2883907552033449  1.0000
  F   F5        1.0  0.526862799472667  0.6980017976919866  0.20777179006856272  1.0000
  F   F6        1.0  0.1769918126131103  0.5172272849245233  0.7800062028735084  1.0000
  F   F7        1.0  0.8693570789630698  0.9324566863209187  0.7160820662737706  1.0000
  F   F8        1.0  0.7747652662550308  0.5327162874373812  0.2872318610107314  1.0000
  F   F9        1.0  0.8097643110519996  0.5111623472612835  0.20044436810604083  1.0000
  F   F10       1.0  0.5336096195659721  0.43453238105514214  0.2799671913482626  1.0000
  F   F11       1.0  0.2894966116288629  0.24370073701343395  0.2832238787678278  1.0000
  F   F12       1.0  0.3527758948747958  0.4212262630812305  0.1943829053706807  1.0000
  F   F13       1.0  0.7375854984714254  0.7092695599930467  0.2812239852355063  1.0000
