data_image0
_chemical_formula_structural       Co4H64C104N12O18
_chemical_formula_sum              "Co4 H64 C104 N12 O18"
_cell_length_a       15.001771050251023
_cell_length_b       15.004236965898919
_cell_length_c       15.178434164043578
_cell_angle_alpha    109.54701581192687
_cell_angle_beta     118.20434906176823
_cell_angle_gamma    89.87925107288049

_space_group_name_H-M_alt    "P 1"
_space_group_IT_number       1

loop_
  _space_group_symop_operation_xyz
  'x, y, z'

loop_
  _atom_site_type_symbol
  _atom_site_label
  _atom_site_symmetry_multiplicity
  _atom_site_fract_x
  _atom_site_fract_y
  _atom_site_fract_z
  _atom_site_occupancy
  Co  Co1       1.0  0.3156613217393768  0.302445174525552  0.1367396277429407  1.0000
  Co  Co2       1.0  0.16924561281590655  0.1993322083082987  0.8756739707172656  1.0000
  Co  Co3       1.0  0.6843140273521584  0.697681419294753  0.863494884712523  1.0000
  Co  Co4       1.0  0.830810543846809  0.8006989567790443  0.1246061795024572  1.0000
  H   H1        1.0  0.32225675037438617  0.21285231766891138  0.4292780465722715  1.0000
  H   H2        1.0  0.8899597262948974  0.2847369982326455  0.5682086669734404  1.0000
  H   H3        1.0  0.677889777646385  0.7869577012099852  0.5707904708183235  1.0000
  H   H4        1.0  0.1103178863458893  0.7151447951849833  0.4314366295306158  1.0000
  H   H5        1.0  0.2063505067313045  0.10866110288322524  0.04320949996372999  1.0000
  H   H6        1.0  0.1590325512234684  0.40469024121792074  0.9505146307981818  1.0000
  H   H7        1.0  0.7933062852274803  0.8915494517852522  0.9567218189560478  1.0000
  H   H8        1.0  0.8405567289702275  0.5954110144555713  0.049545288302198176  1.0000
  H   H9        1.0  0.3384448642245488  0.3269412212985614  0.3456661167465925  1.0000
  H   H10       1.0  0.9900356220540376  0.1755684808186331  0.6595662139363939  1.0000
  H   H11       1.0  0.6616429099273944  0.6730232107776715  0.6545691518841679  1.0000
  H   H12       1.0  0.010213163855766396  0.8243922669193752  0.34031469834690836  1.0000
  H   H13       1.0  0.1833442114214775  0.9875069879857108  0.11272206884093086  1.0000
  H   H14       1.0  0.06405989325390492  0.5214062265051709  0.8749934412766436  1.0000
  H   H15       1.0  0.8163313039327349  0.012537193641520603  0.8871030200802181  1.0000
  H   H16       1.0  0.9353927892334966  0.478568097522576  0.12474609674519863  1.0000
  H   H17       1.0  0.3505730145602611  0.7498560076685334  0.4282407243342518  1.0000
  H   H18       1.0  0.9125310889235152  0.7524598438504809  0.5608862159737953  1.0000
  H   H19       1.0  0.649504976347373  0.249977948134557  0.5717493147222754  1.0000
  H   H20       1.0  0.08759458858851593  0.24757178876907196  0.4389123579666858  1.0000
  H   H21       1.0  0.3314545780712451  0.5720206229924898  0.3549700097793149  1.0000
  H   H22       1.0  0.9692964988679692  0.9308972117344753  0.6431310115325743  1.0000
  H   H23       1.0  0.6685552410925908  0.4279694622843025  0.6447693038100866  1.0000
  H   H24       1.0  0.030682332525991268  0.06911199751885991  0.35669394751290895  1.0000
  H   H25       1.0  0.22869088828543485  0.8553612778257078  0.4644823340726134  1.0000
  H   H26       1.0  0.7553847615822491  0.6409849296320899  0.5262012131883793  1.0000
  H   H27       1.0  0.7712079270663496  0.1445715112677632  0.5355778822679866  1.0000
  H   H28       1.0  0.24469920710119206  0.35900345020902347  0.47374347546548284  1.0000
  H   H29       1.0  0.074690637648736  0.557570890784781  0.053163465838956314  1.0000
  H   H30       1.0  0.012570268944756343  0.9319926486124145  0.9448890709760248  1.0000
  H   H31       1.0  0.9251226764543786  0.4422734435621933  0.9467688648580294  1.0000
  H   H32       1.0  0.9873921680288689  0.0678532317811928  0.054887390402683485  1.0000
  H   H33       1.0  0.23629180371569436  0.8911534233066831  0.19906150034232428  1.0000
  H   H34       1.0  0.02605941457699149  0.6077783030694943  0.7845290869100693  1.0000
  H   H35       1.0  0.7636211482891325  0.1087202802786038  0.8009226726573359  1.0000
  H   H36       1.0  0.974306872873541  0.39205386941831943  0.21503166103963192  1.0000
  H   H37       1.0  0.09723561798531216  0.7350910060117073  0.12253886023692218  1.0000
  H   H38       1.0  0.9647088900178177  0.7551660260398523  0.8674355305527828  1.0000
  H   H39       1.0  0.9023631637828589  0.2648047067024423  0.8773104195173147  1.0000
  H   H40       1.0  0.035434514531480894  0.24464845033555355  0.1322702271869574  1.0000
  H   H41       1.0  0.17943115483058147  0.9134766650439943  0.5732001064787724  1.0000
  H   H42       1.0  0.6014286450430576  0.5825554596948664  0.42431485706546124  1.0000
  H   H43       1.0  0.8205951985311303  0.08644997467654748  0.4268963602753361  1.0000
  H   H44       1.0  0.3988179408393506  0.41745461044465776  0.575922848547286  1.0000
  H   H45       1.0  0.2515027159865327  0.19049724551339864  0.5703810372668414  1.0000
  H   H46       1.0  0.678777527287231  0.3065469110496721  0.4297093881296874  1.0000
  H   H47       1.0  0.7485558081759649  0.8093633881630211  0.42954693183531134  1.0000
  H   H48       1.0  0.32148985848848344  0.6935855864797916  0.5705790530544306  1.0000
  H   H49       1.0  0.14908303070649953  0.9990482768537562  0.7251533958917094  1.0000
  H   H50       1.0  0.42495387087387826  0.4967940762051555  0.277239693066221  1.0000
  H   H51       1.0  0.8510070130271572  0.000961448482065901  0.27496617899226555  1.0000
  H   H52       1.0  0.5751009471574094  0.5031930544838801  0.723016610919359  1.0000
  H   H53       1.0  0.21830738405849792  0.2645461783356993  0.7248462648548396  1.0000
  H   H54       1.0  0.4963516895881739  0.23187860678573463  0.2806110685342417  1.0000
  H   H55       1.0  0.781820363529853  0.7354281032926194  0.2751450017019862  1.0000
  H   H56       1.0  0.5037772221951614  0.7680709078637452  0.7197851991514386  1.0000
  H   H57       1.0  0.5442663747473162  0.1321095752825556  0.17386825580900478  1.0000
  H   H58       1.0  0.3722265608330631  0.3690223778857914  0.8290686012895848  1.0000
  H   H59       1.0  0.45606449230860613  0.8680942670381243  0.8262334075772985  1.0000
  H   H60       1.0  0.6274075629192026  0.6313175720341847  0.17105807283241603  1.0000
  H   H61       1.0  0.3360198916373705  0.9824671026144927  0.8346692254112398  1.0000
  H   H62       1.0  0.5074718637210437  0.5160685864956207  0.17180667987879858  1.0000
  H   H63       1.0  0.6644382598078735  0.018045552880806802  0.16571552275439663  1.0000
  H   H64       1.0  0.4923455163334367  0.48431277770304604  0.8282808936126714  1.0000
  C   C1        1.0  0.2025703150388195  0.5526551564928467  0.19884308713931625  1.0000
  C   C2        1.0  0.9944694531893532  0.9430874944314596  0.7988630068351199  1.0000
  C   C3        1.0  0.7973143898605671  0.44736808130084443  0.8011503817582765  1.0000
  C   C4        1.0  0.005465880164749127  0.056773860092157215  0.20093350207754673  1.0000
  C   C5        1.0  0.18415468941348212  0.44359183783330985  0.15433716958906266  1.0000
  C   C6        1.0  0.017193840905036995  0.0517078504611632  0.8455387348877466  1.0000
  C   C7        1.0  0.8158640751152505  0.5564617747538421  0.8458773140467102  1.0000
  C   C8        1.0  0.9827065353199202  0.9481394044191589  0.1543222617650599  1.0000
  C   C9        1.0  0.22141851560486708  0.04581791549524891  0.5600584469836605  1.0000
  C   C10       1.0  0.6576386306403919  0.450848188810383  0.43826321915751276  1.0000
  C   C11       1.0  0.7785442502303183  0.9540817631473927  0.43990394972555436  1.0000
  C   C12       1.0  0.34247663448847737  0.5491496215730508  0.5618327771858489  1.0000
  C   C13       1.0  0.2486202932454944  0.020535490162025397  0.3273877808111791  1.0000
  C   C14       1.0  0.9131261682543013  0.4781260113661575  0.6631517670770251  1.0000
  C   C15       1.0  0.751332322627377  0.9793640624164794  0.672557941124765  1.0000
  C   C16       1.0  0.08696447296895124  0.5217870751351015  0.3366135828221104  1.0000
  C   C17       1.0  0.25762951510521503  0.08907613549192922  0.27958589018533797  1.0000
  C   C18       1.0  0.9713874701177118  0.4124529319794449  0.7130025302961087  1.0000
  C   C19       1.0  0.7424056109811944  0.9108297155250613  0.7203924540001979  1.0000
  C   C20       1.0  0.02862171251939573  0.5874641655556869  0.28675375522433905  1.0000
  C   C21       1.0  0.3562223551069152  0.1286762053344148  0.005469076530758253  1.0000
  C   C22       1.0  0.3606523344428751  0.365968151262642  0.9997164003757462  1.0000
  C   C23       1.0  0.6439923821962096  0.8714760792155687  0.9947633273561252  1.0000
  C   C24       1.0  0.639210949566106  0.6343716954844039  0.00040560772163182574  1.0000
  C   C25       1.0  0.22635127281296252  0.7547829945678118  0.2801726911116162  1.0000
  C   C26       1.0  0.9351829053003018  0.7419775851329291  0.708558437648037  1.0000
  C   C27       1.0  0.7734921140244709  0.24517247559138164  0.7197072566097091  1.0000
  C   C28       1.0  0.06494695039005897  0.257867180871088  0.291153056788616  1.0000
  C   C29       1.0  0.23409377140677629  0.8599303094882131  0.3269209006858631  1.0000
  C   C30       1.0  0.8965627157170246  0.6374648110181627  0.6603488797973966  1.0000
  C   C31       1.0  0.7656662892789043  0.1399771708075974  0.6729817999031837  1.0000
  C   C32       1.0  0.10361229282987945  0.36241727105753097  0.3393884771990301  1.0000
  C   C33       1.0  0.2981129682097929  0.1871813575197336  0.3438065079217907  1.0000
  C   C34       1.0  0.9499392266692227  0.3133341675080458  0.6529172198911651  1.0000
  C   C35       1.0  0.7019610121276969  0.8127179583277098  0.6562493557325837  1.0000
  C   C36       1.0  0.050246914876623874  0.6865816971194577  0.346831542839496  1.0000
  C   C37       1.0  0.2342116953868327  0.1277189995450811  0.1286819197165343  1.0000
  C   C38       1.0  0.10018731205688879  0.3817368996196676  0.8658046343878212  1.0000
  C   C39       1.0  0.7655232359199219  0.8723578659457305  0.8712733792530187  1.0000
  C   C40       1.0  0.8996464828544504  0.6182668554385132  0.13415063004524114  1.0000
  C   C41       1.0  0.23753527634997346  0.0007436848844193003  0.46687648303130663  1.0000
  C   C42       1.0  0.7642836915645291  0.4964978821057784  0.527289578662959  1.0000
  C   C43       1.0  0.762329542467846  0.9991380422496831  0.5330295817682253  1.0000
  C   C44       1.0  0.23582852403144017  0.503453740850027  0.47265681846889157  1.0000
  C   C45       1.0  0.307346162034392  0.2504680823085295  0.29848056961871094  1.0000
  C   C46       1.0  0.0048895920641101424  0.25325744889168794  0.7025273371058773  1.0000
  C   C47       1.0  0.6926345542361217  0.7495084568721354  0.7016241463351632  1.0000
  C   C48       1.0  0.9952903551272881  0.7467140665524782  0.2973776087633979  1.0000
  C   C49       1.0  0.22307882475354995  0.060715150466769806  0.16910125900847814  1.0000
  C   C50       1.0  0.047799213721809494  0.44618260603975574  0.822344208782397  1.0000
  C   C51       1.0  0.7767808842212603  0.9392724139123771  0.8308333724508757  1.0000
  C   C52       1.0  0.9520013418137765  0.5537747492047133  0.17748836660859982  1.0000
  C   C53       1.0  0.2912820234837382  0.7076513495786402  0.34500541957487485  1.0000
  C   C54       1.0  0.9363403664394526  0.7920518903436502  0.6457111751815461  1.0000
  C   C55       1.0  0.708692387586865  0.2923811246851855  0.6549058820014865  1.0000
  C   C56       1.0  0.06371540358786384  0.2078823829844225  0.3540674601338409  1.0000
  C   C57       1.0  0.28092969709886967  0.6079821467021987  0.3040715817933588  1.0000
  C   C58       1.0  0.968217653893227  0.8915330872874636  0.6914052711503444  1.0000
  C   C59       1.0  0.7189868112822637  0.3920641544761737  0.6958239783939533  1.0000
  C   C60       1.0  0.031754224707654495  0.1084098422713424  0.308392492470368  1.0000
  C   C61       1.0  0.23440355850880937  0.9015916078917884  0.4245778839268866  1.0000
  C   C62       1.0  0.8010970440905184  0.5953779953889436  0.5659255275885258  1.0000
  C   C63       1.0  0.7654237808940323  0.09827637377890143  0.5753596627987464  1.0000
  C   C64       1.0  0.19900080953967608  0.4045637411950267  0.43396422186734906  1.0000
  C   C65       1.0  0.43240388035987826  0.0638626601829131  0.004466992905975059  1.0000
  C   C66       1.0  0.4321900306393971  0.43618434404143613  0.00025126819254951276  1.0000
  C   C67       1.0  0.5679556349231873  0.9363379927146199  0.9957477921307643  1.0000
  C   C68       1.0  0.5676557419705831  0.5641607849165738  0.9998210682022021  1.0000
  C   C69       1.0  0.13765378035116532  0.5997581724165428  0.13408697682420007  1.0000
  C   C70       1.0  0.9946691691793321  0.8928951500226319  0.8619437678393637  1.0000
  C   C71       1.0  0.8620989329786539  0.4001740387971963  0.865840726734568  1.0000
  C   C72       1.0  0.005230331872795106  0.10690539909479922  0.1377861693718572  1.0000
  C   C73       1.0  0.23838446132778296  0.9209925987806785  0.2761189144301071  1.0000
  C   C74       1.0  0.9520794053275666  0.5771794162850554  0.7104474411176512  1.0000
  C   C75       1.0  0.7614769485456777  0.07890682299381518  0.7238264483745169  1.0000
  C   C76       1.0  0.048148271073365764  0.42270602575997174  0.2892374130756608  1.0000
  C   C77       1.0  0.15039564654452414  0.6999231367739468  0.173119081344815  1.0000
  C   C78       1.0  0.9674378819078553  0.7929346507886378  0.8181800777248326  1.0000
  C   C79       1.0  0.8493515090249416  0.3000213511257004  0.8267499711709831  1.0000
  C   C80       1.0  0.03260838745084982  0.20686225710747405  0.1815031022081328  1.0000
  C   C81       1.0  0.19099339351215844  0.9918188095018508  0.6043195631962915  1.0000
  C   C82       1.0  0.5835076111381525  0.5043374461705099  0.39510337999312384  1.0000
  C   C83       1.0  0.8090514709934952  0.0081187512081939  0.39573870440986514  1.0000
  C   C84       1.0  0.4166044055971697  0.49566121259030643  0.6050645368814713  1.0000
  C   C85       1.0  0.23035420714562352  0.1460672242575001  0.6039049570171784  1.0000
  C   C86       1.0  0.6246009238597737  0.3507285294436926  0.3968545916613594  1.0000
  C   C87       1.0  0.7697077784777948  0.8538459078230431  0.3960977153790494  1.0000
  C   C88       1.0  0.3755228220063884  0.6492877240467153  0.6033524629356677  1.0000
  C   C89       1.0  0.17315942434897386  0.0383961609414172  0.6889663293367647  1.0000
  C   C90       1.0  0.4841639946434384  0.4578585204241179  0.31326442118864867  1.0000
  C   C91       1.0  0.8270145049775549  0.9615983919527411  0.31119140072028967  1.0000
  C   C92       1.0  0.5158862358527332  0.5421214204836176  0.6869880322838995  1.0000
  C   C93       1.0  0.21113806833270135  0.1869569725214859  0.6884264436983116  1.0000
  C   C94       1.0  0.5237779130932695  0.3093274189013897  0.3152360909997682  1.0000
  C   C95       1.0  0.7890198267327692  0.8130024213408976  0.3116598368131065  1.0000
  C   C96       1.0  0.4762775928941565  0.6906503222795238  0.6850776077080596  1.0000
  C   C97       1.0  0.5250892679014784  0.0740438498955456  0.0979798787956199  1.0000
  C   C98       1.0  0.42814139831990866  0.4270507412970447  0.9034361271319254  1.0000
  C   C99       1.0  0.4752541941465084  0.9260976042949667  0.9021943954422441  1.0000
  C   C100      1.0  0.5715977669656596  0.5733283742148244  0.09659904348710309  1.0000
  C   C101      1.0  0.4082758124762124  0.9893805253412964  0.90661947731693  1.0000
  C   C102      1.0  0.5045031568739518  0.5098381719653275  0.09689135742331699  1.0000
  C   C103      1.0  0.5921326408987042  0.010839374388702099  0.09361189454273941  1.0000
  C   C104      1.0  0.49526928718557167  0.4905237502552994  0.9031649189274091  1.0000
  N   N1        1.0  0.2787672808493157  0.22070898081194903  0.19294711449749255  1.0000
  N   N2        1.0  0.0797820406470039  0.2868605141011641  0.8069649459368122  1.0000
  N   N3        1.0  0.7211122704931725  0.7793266121872832  0.8071195055757272  1.0000
  N   N4        1.0  0.9202546201457266  0.7131181962917738  0.19304814765208536  1.0000
  N   N5        1.0  0.18372823952095987  0.13459622753733672  0.7313385353017383  1.0000
  N   N6        1.0  0.4543444834891376  0.36152111953251154  0.2726881614714928  1.0000
  N   N7        1.0  0.8164775144711527  0.8654134272832222  0.26884007193374526  1.0000
  N   N8        1.0  0.5456399305774227  0.6384402422983229  0.7275962484569547  1.0000
  N   N9        1.0  0.2491113568491627  0.05937708878857251  0.42129321161875316  1.0000
  N   N10       1.0  0.8211638996067877  0.4384775261166922  0.5729014479547985  1.0000
  N   N11       1.0  0.7507953118308209  0.9405081954329191  0.5786337682117522  1.0000
  N   N12       1.0  0.17888261910267997  0.5614205957291672  0.4269727811044745  1.0000
  O   O1        1.0  0.1994071405320881  0.2548273261397327  0.009430908518943688  1.0000
  O   O2        1.0  0.8005309052715505  0.745176226954257  0.9908773800983752  1.0000
  O   O3        1.0  0.2682689680299362  0.4102871837657959  0.20118820715114794  1.0000
  O   O4        1.0  0.05016248210626633  0.08997701769055773  0.7985674494098589  1.0000
  O   O5        1.0  0.731545723403265  0.5895468439057651  0.7992211720438789  1.0000
  O   O6        1.0  0.9497643807066324  0.9099208874312978  0.20134530429972844  1.0000
  O   O7        1.0  0.3892858657339175  0.20546801737064874  0.09194241425282706  1.0000
  O   O8        1.0  0.30532009995712883  0.2947319253289394  0.9135362635713592  1.0000
  O   O9        1.0  0.6108662852144705  0.7948640733888724  0.9081046584870122  1.0000
  O   O10       1.0  0.6947222080859061  0.7055021494594275  0.08659841866766273  1.0000
  O   O11       1.0  0.26756049331523724  0.101580161471496  0.9231262321881033  1.0000
  O   O12       1.0  0.36405720742773434  0.38728328315038857  0.09094537622848252  1.0000
  O   O13       1.0  0.7325004396974322  0.8983674134712203  0.07731263123825015  1.0000
  O   O14       1.0  0.635595021158295  0.6131418822130925  0.9091143838496195  1.0000
  O   O15       1.0  0.09724417794033259  0.39693375020949867  0.08220099331798275  1.0000
  O   O16       1.0  0.0028508681090785425  0.0957442150707308  0.9221012287641487  1.0000
  O   O17       1.0  0.9028066259510227  0.6031847403439629  0.9178705859071742  1.0000
  O   O18       1.0  0.996920671802485  0.903929767574553  0.07771918229615689  1.0000
