data_image0
_chemical_formula_structural       Zn2H52C52N8O8
_chemical_formula_sum              "Zn2 H52 C52 N8 O8"
_cell_length_a       9.140528146096534
_cell_length_b       10.744078090841377
_cell_length_c       12.32770657070332
_cell_angle_alpha    84.81071607005599
_cell_angle_beta     74.88678680975706
_cell_angle_gamma    87.73591909998052

_space_group_name_H-M_alt    "P 1"
_space_group_IT_number       1

loop_
  _space_group_symop_operation_xyz
  'x, y, z'

loop_
  _atom_site_type_symbol
  _atom_site_label
  _atom_site_symmetry_multiplicity
  _atom_site_fract_x
  _atom_site_fract_y
  _atom_site_fract_z
  _atom_site_occupancy
  Zn  Zn1       1.0  0.6593474291614  0.43275676311122163  0.6934213776866257  1.0000
  Zn  Zn2       1.0  0.3406498939561616  0.5672429119604485  0.3065813781054132  1.0000
  H   H1        1.0  0.09772364739622219  0.32502292772324637  0.109307361840024  1.0000
  H   H2        1.0  0.9022667333393315  0.6749768425579743  0.8906903166370626  1.0000
  H   H3        1.0  0.49959735617996875  0.927999797554584  0.8203480551049722  1.0000
  H   H4        1.0  0.5004022146996405  0.07199800287759217  0.17965275666149694  1.0000
  H   H5        1.0  0.3154564362987529  0.08490603632314019  0.9182969556286977  1.0000
  H   H6        1.0  0.6845431781798865  0.9150889545032183  0.08170486586542577  1.0000
  H   H7        1.0  0.5569790941673034  0.7922844302446918  0.2817782842988734  1.0000
  H   H8        1.0  0.4430124921038329  0.20771717272766915  0.7182230688083281  1.0000
  H   H9        1.0  0.6116992799413694  0.8984876954933582  0.46547386755015197  1.0000
  H   H10       1.0  0.38829451981760604  0.1015157714386987  0.5345252726318533  1.0000
  H   H11       1.0  0.5769466650305262  0.7931928913739625  0.6735512646457024  1.0000
  H   H12       1.0  0.4230562275933707  0.20681143228411963  0.3264475749392304  1.0000
  H   H13       1.0  0.44030698391889445  0.6783269630134894  0.7221672189968728  1.0000
  H   H14       1.0  0.5596993791397438  0.3216754493966434  0.2778334856424181  1.0000
  H   H15       1.0  0.3379053811780182  0.42670505298868705  0.06827803499895418  1.0000
  H   H16       1.0  0.662083927844087  0.5732919103566728  0.9317216924434746  1.0000
  H   H17       1.0  0.366373086326412  0.5769196849957793  0.9921011466865082  1.0000
  H   H18       1.0  0.6336150902461171  0.42307915031912546  0.007899485543802631  1.0000
  H   H19       1.0  0.7436954563582105  0.9316266338520832  0.6090669545057352  1.0000
  H   H20       1.0  0.25630754060085076  0.06837020129477618  0.39093403898431933  1.0000
  H   H21       1.0  0.1938368507427839  0.6149918021234482  0.6637359342966462  1.0000
  H   H22       1.0  0.8061707506131197  0.38500497709226517  0.33626736666612805  1.0000
  H   H23       1.0  0.3524895428233635  0.5135474198584261  0.6562427667638885  1.0000
  H   H24       1.0  0.6475203700557871  0.4864502603850908  0.3437624287632773  1.0000
  H   H25       1.0  0.2409992768155078  0.5051430452455958  0.558095085059513  1.0000
  H   H26       1.0  0.759006084590638  0.4948528103166365  0.4419095535506159  1.0000
  H   H27       1.0  0.17400790382981057  0.8300558225953264  0.6457737734150228  1.0000
  H   H28       1.0  0.8259949966063757  0.16994570276978746  0.3542244597916877  1.0000
  H   H29       1.0  0.019228171302458505  0.6833270255864291  0.4690175605593083  1.0000
  H   H30       1.0  0.9807760211111046  0.3166688496150059  0.5309856931297005  1.0000
  H   H31       1.0  0.8503431981326345  0.7356146551175795  0.43905136048525145  1.0000
  H   H32       1.0  0.1496608854081813  0.2643775267360127  0.560945697679891  1.0000
  H   H33       1.0  0.980489252248873  0.4987393011696139  0.6934647103110548  1.0000
  H   H34       1.0  0.019507974345813802  0.5012650641203037  0.3065352851976542  1.0000
  H   H35       1.0  0.1693631160628328  0.34479701203688495  0.7955277869545226  1.0000
  H   H36       1.0  0.8306385904313773  0.6552092005600015  0.204469533259484  1.0000
  H   H37       1.0  0.9252993755830378  0.07954360261216206  0.9581163623287593  1.0000
  H   H38       1.0  0.07470463310959727  0.9204625820191477  0.04188211162161081  1.0000
  H   H39       1.0  0.07522284010610042  0.17428520359104735  0.9661573528618489  1.0000
  H   H40       1.0  0.9247834334856864  0.8257172371011734  0.03383931151276435  1.0000
  H   H41       1.0  0.9916845848857961  0.9796015437424967  0.7449536695668542  1.0000
  H   H42       1.0  0.0083171294207034  0.020401870561414594  0.2550430442689375  1.0000
  H   H43       1.0  0.6692220262966729  0.14357358129875308  0.9541322127773169  1.0000
  H   H44       1.0  0.33078207035028123  0.856428847764114  0.045868954231480095  1.0000
  H   H45       1.0  0.7480470648980031  0.05364768377804549  0.8379068816343391  1.0000
  H   H46       1.0  0.2519570146118467  0.9463566145844095  0.16209415092464502  1.0000
  H   H47       1.0  0.6125005421496182  0.17650093607465314  0.8282563696913315  1.0000
  H   H48       1.0  0.3875024212914937  0.8235015013145808  0.17174502850222242  1.0000
  H   H49       1.0  0.8251544908866676  0.33515607582553025  0.10930028092113993  1.0000
  H   H50       1.0  0.17483590547346492  0.6648380978697473  0.8906961847995091  1.0000
  H   H51       1.0  0.8130626236705538  0.15238372060988328  0.598583600718797  1.0000
  H   H52       1.0  0.1869392930065104  0.8476112422509059  0.401419374511697  1.0000
  C   C1        1.0  0.3496945566822377  0.8668036847427483  0.7273263071713315  1.0000
  C   C2        1.0  0.6503072727967664  0.13319689732967524  0.2726746486038536  1.0000
  C   C3        1.0  0.05504202188709681  0.400402110796982  0.0597034080083958  1.0000
  C   C4        1.0  0.9449483588484497  0.5995976594842459  0.9402942704686906  1.0000
  C   C5        1.0  0.15477450986045233  0.49281755843492886  0.9983787475978474  1.0000
  C   C6        1.0  0.8452181093123272  0.5071794082134244  0.0016162460256410373  1.0000
  C   C7        1.0  0.3873749118074486  0.9391462887276627  0.8046897757916868  1.0000
  C   C8        1.0  0.6126257922780028  0.06085150337814579  0.19531080479003285  1.0000
  C   C9        1.0  0.28370456202293326  0.025836033265257193  0.8608117670802713  1.0000
  C   C10       1.0  0.7162938670822855  0.9741627101430905  0.13918920864605158  1.0000
  C   C11       1.0  0.8284626006062085  0.6695288993379476  0.6107858641972825  1.0000
  C   C12       1.0  0.1715358456361145  0.3304679747707977  0.3892152459788534  1.0000
  C   C13       1.0  0.40974571139950206  0.4221910678223109  0.8886078560188082  1.0000
  C   C14       1.0  0.5902548961630812  0.5778114145017524  0.11138996427958156  1.0000
  C   C15       1.0  0.512350078683305  0.7696492815670053  0.37152813391628564  1.0000
  C   C16       1.0  0.48764380046143435  0.230351364446399  0.6284736320992436  1.0000
  C   C17       1.0  0.5410089808394929  0.8213802348818715  0.4612083197773628  1.0000
  C   C18       1.0  0.4589848718433275  0.17862135143775495  0.5387925709603252  1.0000
  C   C19       1.0  0.46174103102087116  0.7694216314483879  0.6727660513003287  1.0000
  C   C20       1.0  0.5382630469764464  0.23057893962771908  0.32723363405241196  1.0000
  C   C21       1.0  0.38483146415919117  0.6612360726087303  0.5247008875979446  1.0000
  C   C22       1.0  0.6151726488686081  0.33876262351135716  0.47529974025754734  1.0000
  C   C23       1.0  0.959767337621635  0.8727731623990134  0.504845916070117  1.0000
  C   C24       1.0  0.0402310992958661  0.1272227827163519  0.4951544532779835  1.0000
  C   C25       1.0  0.1397103055287658  0.041022036552156686  0.8411360815265709  1.0000
  C   C26       1.0  0.860290337064292  0.958978570815887  0.15886268127456302  1.0000
  C   C27       1.0  0.32082216524848656  0.4835981144603352  0.9938144835335905  1.0000
  C   C28       1.0  0.6791693844796499  0.5164016361816832  0.006184579864616147  1.0000
  C   C29       1.0  0.8563941445608805  0.960730059320184  0.5603380087564106  1.0000
  C   C30       1.0  0.1436031334451258  0.039268698070941396  0.43966239010173064  1.0000
  C   C31       1.0  0.28717216892441405  0.5687260297981493  0.604992463149749  1.0000
  C   C32       1.0  0.7128332010502801  0.4312688911142785  0.39501224268528295  1.0000
  C   C33       1.0  0.20631767831400086  0.8835159445372085  0.7065971565595461  1.0000
  C   C34       1.0  0.7936830078780871  0.116481853225018  0.2934026159692351  1.0000
  C   C35       1.0  0.9168555501422091  0.7402291259549326  0.5012229685413558  1.0000
  C   C36       1.0  0.08314404644305991  0.2597658705278504  0.4987780448998365  1.0000
  C   C37       1.0  0.9614791598551806  0.4075931767602795  0.7388057732012782  1.0000
  C   C38       1.0  0.0385204054809378  0.5924130128944042  0.2611976657527819  1.0000
  C   C39       1.0  0.05531590228640231  0.3334693737526705  0.7878676372272294  1.0000
  C   C40       1.0  0.9446835806388874  0.6665321822479626  0.21213048148081273  1.0000
  C   C41       1.0  0.0258164263132628  0.12975372506642907  0.9074639179332351  1.0000
  C   C42       1.0  0.9741887412908741  0.8702496472891209  0.09253452650709446  1.0000
  C   C43       1.0  0.10233729532971131  0.9693754656116267  0.763047292812594  1.0000
  C   C44       1.0  0.8976644088957072  0.0306251560557271  0.2369480065920371  1.0000
  C   C45       1.0  0.7096985193632931  0.14801758121172529  0.8616367396224617  1.0000
  C   C46       1.0  0.29030668402758414  0.8519857798309899  0.1383633209237445  1.0000
  C   C47       1.0  0.8319561607666727  0.24069256597276473  0.8189990330087298  1.0000
  C   C48       1.0  0.16804564300667119  0.7593108200490447  0.1810017210917394  1.0000
  C   C49       1.0  0.9019699935037622  0.4077410074168739  0.061170777309556064  1.0000
  C   C50       1.0  0.09801807495227882  0.5922559981933657  0.9388243330000065  1.0000
  C   C51       1.0  0.8959102519025423  0.08555323805789067  0.5551021840988639  1.0000
  C   C52       1.0  0.1040893625760972  0.9144417527684678  0.4448996373952667  1.0000
  N   N1        1.0  0.4146971200258918  0.6706428524211531  0.4115424148926152  1.0000
  N   N2        1.0  0.585304708696853  0.32935586600808614  0.5884578672794376  1.0000
  N   N3        1.0  0.46096542114584327  0.7518702659608109  0.5568701496822542  1.0000
  N   N4        1.0  0.5390375680009285  0.24812936747902362  0.4431314501860157  1.0000
  N   N5        1.0  0.8236936121448579  0.34919277725794007  0.7576021122644008  1.0000
  N   N6        1.0  0.1763081737351229  0.650810614420294  0.24239783378313012  1.0000
  N   N7        1.0  0.9722689781004235  0.2293278079811713  0.8382184427293495  1.0000
  N   N8        1.0  0.027735046973049307  0.7706746437073658  0.16177949206770853  1.0000
  O   O1        1.0  0.4917555340060034  0.49848225015669095  0.8099803013054795  1.0000
  O   O2        1.0  0.5082451093433135  0.5015202208545304  0.19001913509877266  1.0000
  O   O3        1.0  0.7658117587774385  0.5701067008858371  0.5905174302442546  1.0000
  O   O4        1.0  0.2341843603170659  0.42989486878105504  0.4094829981239272  1.0000
  O   O5        1.0  0.39944450489712585  0.30761409544206225  0.8820679004734018  1.0000
  O   O6        1.0  0.6005594758210578  0.6923893022091149  0.1179283509928766  1.0000
  O   O7        1.0  0.8229558549441761  0.7039794893731395  0.7053606820148276  1.0000
  O   O8        1.0  0.17704829387036375  0.29601919543411265  0.294641561946527  1.0000
