data_image0
_chemical_formula_structural       Cd2H40C56S8N8O8
_chemical_formula_sum              "Cd2 H40 C56 S8 N8 O8"
_cell_length_a       5.051778382
_cell_length_b       11.88345890627336
_cell_length_c       22.815
_cell_angle_alpha    90.0
_cell_angle_beta     90.0
_cell_angle_gamma    100.13806224908623

_space_group_name_H-M_alt    "P 1"
_space_group_IT_number       1

loop_
  _space_group_symop_operation_xyz
  'x, y, z'

loop_
  _atom_site_type_symbol
  _atom_site_label
  _atom_site_symmetry_multiplicity
  _atom_site_fract_x
  _atom_site_fract_y
  _atom_site_fract_z
  _atom_site_occupancy
  Cd  Cd1       1.0  0.4999997149884051  0.5000001666963598  0.5  1.0000
  Cd  Cd2       1.0  0.5000001601416244  0.0  0.0  1.0000
  H   H1        1.0  0.8861873545502164  0.4610393811937143  0.318176638176638  1.0000
  H   H2        1.0  0.1138125205798133  0.0389607855026384  0.818176638176638  1.0000
  H   H3        1.0  0.11381172146687389  0.5389600973458855  0.6818229235152344  1.0000
  H   H4        1.0  0.8861872633567031  0.9610404027431868  0.181823361823362  1.0000
  H   H5        1.0  0.6060503546772296  0.4177308127556145  0.365948279640584  1.0000
  H   H6        1.0  0.3939491664930869  0.0822684990876255  0.865948279640584  1.0000
  H   H7        1.0  0.3939510548005032  0.582269520637098  0.6340512820512814  1.0000
  H   H8        1.0  0.6060518890249326  0.9177309794519742  0.1340512820512814  1.0000
  H   H9        1.0  0.548305014906262  0.1007897466455603  0.1674753451676523  1.0000
  H   H10       1.0  0.4516968397246969  0.3992104200507995  0.667475783475787  1.0000
  H   H11       1.0  0.45169639457147065  0.8992105867471594  0.83252553144861  1.0000
  H   H12       1.0  0.5483061952942591  0.6007890584888003  0.33252553144861  1.0000
  H   H13       1.0  0.8738551255891166  0.2441716948200678  0.1140438308130598  1.0000
  H   H14       1.0  0.12614672904184226  0.2558284718762849  0.6140442691211945  1.0000
  H   H15       1.0  0.1261443043876938  0.7558286385726447  0.8859557308788055  1.0000
  H   H16       1.0  0.8738566599368198  0.7441718615164277  0.3859561691869402  1.0000
  H   H17       1.0  0.9021324248220636  0.45315165151509257  0.1340582949813722  1.0000
  H   H18       1.0  0.09786780426767192  0.0468493700343799  0.6340591715976345  1.0000
  H   H19       1.0  0.09786502565381026  0.5468486818776199  0.8659403900942382  1.0000
  H   H20       1.0  0.9021359386707032  0.9531518182114525  0.3659412667105002  1.0000
  H   H21       1.0  0.5983282531113189  0.5196412718330237  0.2072544378698211  1.0000
  H   H22       1.0  0.40167235725348144  0.980358373402936  0.7072548761779558  1.0000
  H   H23       1.0  0.40167351032611975  0.4803599164128016  0.7927451238220443  1.0000
  H   H24       1.0  0.5983260108441968  0.0196393954304384  0.2927455621301789  1.0000
  H   H25       1.0  0.2069730633527485  0.2687205116815647  0.43482840236686127  1.0000
  H   H26       1.0  0.7930264578175681  0.2312788001616823  0.9348284023668612  1.0000
  H   H27       1.0  0.7930283461249842  0.7312798217111478  0.5651711593250042  1.0000
  H   H28       1.0  0.20697226423981618  0.7687198235248047  0.0651711593250042  1.0000
  H   H29       1.0  0.18462383386548706  0.059920928993499  0.43404426912119487  1.0000
  H   H30       1.0  0.8153760412645426  0.4400792377028608  0.9340438308130601  1.0000
  H   H31       1.0  0.8153775756122453  0.9400794043992134  0.5659552925706777  1.0000
  H   H32       1.0  0.1846233887122679  0.5599210956898588  0.0659557308788052  1.0000
  H   H33       1.0  0.8207360586478741  0.1080713854666797  0.5637115932500549  1.0000
  H   H34       1.0  0.17926381648214826  0.39192878122967295  0.0637115932500549  1.0000
  H   H35       1.0  0.17926337132892908  0.8919289479260328  0.4362884067499451  1.0000
  H   H36       1.0  0.820735613494655  0.6080715521630395  0.9362879684418175  1.0000
  H   H37       1.0  0.8211691842949236  0.3156254471683226  0.5567687924610993  1.0000
  H   H38       1.0  0.17882871133417672  0.1843747195280372  0.0567687924610993  1.0000
  H   H39       1.0  0.1788282661809504  0.6843748862243899  0.4432316458470282  1.0000
  H   H40       1.0  0.8211683851819913  0.8156247590115626  0.9432307692307661  1.0000
  C   C1        1.0  0.9875000399535452  0.4749461316447636  0.4096703922857756  1.0000
  C   C2        1.0  0.0124998351764773  0.0250540350515962  0.9096703922857756  1.0000
  C   C3        1.0  0.012499390023258193  0.5250542017479489  0.5903291694060897  1.0000
  C   C4        1.0  0.9875019282609613  0.9749471531942362  0.09032916940608972  1.0000
  C   C5        1.0  0.8198649297080037  0.4154235642021717  0.35907253999561567  1.0000
  C   C6        1.0  0.18013459146231267  0.0845757476410682  0.8590725399956157  1.0000
  C   C7        1.0  0.18013414630909347  0.5845759143374281  0.6409270216962497  1.0000
  C   C8        1.0  0.8198668180154198  0.9154245857516443  0.1409274600043844  1.0000
  C   C9        1.0  0.0934415926945178  0.278427368785799  0.2941485864562807  1.0000
  C   C10       1.0  0.9065586363952177  0.22157365276367358  0.7941490247644083  1.0000
  C   C11       1.0  0.906560524702634  0.7215746743131461  0.7058514135437193  1.0000
  C   C12       1.0  0.0934404396218795  0.7784258257759262  0.20585185185185403  1.0000
  C   C13       1.0  0.4084752617952745  0.3480252350245507  0.23020688143765264  1.0000
  C   C14       1.0  0.5915265928356845  0.151974931671802  0.7302073197457801  1.0000
  C   C15       1.0  0.591524522141242  0.6519759532212746  0.7697926802542199  1.0000
  C   C16       1.0  0.4084760882235585  0.848023692014685  0.2697935568704821  1.0000
  C   C17       1.0  0.3978567031537708  0.2296246593869853  0.2186872671488089  1.0000
  C   C18       1.0  0.6021431719762518  0.2703755073093745  0.7186877054569365  1.0000
  C   C19       1.0  0.6021486653258208  0.7703756740057344  0.7813131711593257  1.0000
  C   C20       1.0  0.3978519450389797  0.7296239712302253  0.2813136094674533  1.0000
  C   C21       1.0  0.5628752238554  0.1914682906641829  0.176850756081528  1.0000
  C   C22       1.0  0.437126984735265  0.3085327308852897  0.6768511943896556  1.0000
  C   C23       1.0  0.4371249140408223  0.8085337524347621  0.8231488056103445  1.0000
  C   C24       1.0  0.5628760502836839  0.69146674765431  0.323149243918472  1.0000
  C   C25       1.0  0.7443560698055194  0.2733529607038321  0.1467240850317779  1.0000
  C   C26       1.0  0.255647764326369  0.2266472059925277  0.6467240850317779  1.0000
  C   C27       1.0  0.2556433601712839  0.7266473726888876  0.8532754766600946  1.0000
  C   C28       1.0  0.744355270692587  0.7733522725470721  0.3532759149682221  1.0000
  C   C29       1.0  0.7577207326191342  0.3904353528403206  0.1577703265395556  1.0000
  C   C30       1.0  0.2422811220118177  0.1095648138560321  0.6577707648476903  1.0000
  C   C31       1.0  0.24228067685859858  0.6095649805523919  0.8422292351523097  1.0000
  C   C32       1.0  0.7577199335062018  0.8904346646835676  0.342230111768572  1.0000
  C   C33       1.0  0.5904375734575139  0.4288114188133036  0.198900284900283  1.0000
  C   C34       1.0  0.4095623016725085  0.0711887478830491  0.6989011615165452  1.0000
  C   C35       1.0  0.4095641899799247  0.5711897694325216  0.8010992767915823  1.0000
  C   C36       1.0  0.5904367743445816  0.9288107306565506  0.3011001534078446  1.0000
  C   C37       1.0  0.3390015735971943  0.22916902267746758  0.4629353495507331  1.0000
  C   C38       1.0  0.6609979475731222  0.2708302891657794  0.9629353495507331  1.0000
  C   C39       1.0  0.6609994819208254  0.7708304558621322  0.5370642121411322  1.0000
  C   C40       1.0  0.33900112844397506  0.7291691893738204  0.0370642121411322  1.0000
  C   C41       1.0  0.3288573301608864  0.1115506376387856  0.462902476440938  1.0000
  C   C42       1.0  0.6711425449691433  0.3884495290575742  0.9629029147490655  1.0000
  C   C43       1.0  0.6711440793168535  0.888449695753927  0.537097523559062  1.0000
  C   C44       1.0  0.32885688500766  0.6115508043351383  0.0370970852509345  1.0000
  C   C45       1.0  0.5021746393210832  0.06240513214144269  0.49920973044049793  1.0000
  C   C46       1.0  0.49782325630801677  0.4375950345549171  0.9992092921323705  1.0000
  C   C47       1.0  0.4978247906557272  0.9375952012512698  0.5007902695595021  1.0000
  C   C48       1.0  0.502174194167857  0.5624052988378025  0.0007902695595021  1.0000
  C   C49       1.0  0.6802857843560446  0.1381690538881557  0.5339728248959048  1.0000
  C   C50       1.0  0.319714090773985  0.3618311128082041  0.0339728248959048  1.0000
  C   C51       1.0  0.31971131216012333  0.8618304246514441  0.4660271751040952  1.0000
  C   C52       1.0  0.6802853392028183  0.6381692205845084  0.9660267367959676  1.0000
  C   C53       1.0  0.6795183664598027  0.2548727460953515  0.5314236248082409  1.0000
  C   C54       1.0  0.32048115471052097  0.24512656574789557  0.0314236248082409  1.0000
  C   C55       1.0  0.3204787300563652  0.7451267324442483  0.46857637519175915  1.0000
  C   C56       1.0  0.6795179213065765  0.7548729127917042  0.9685759368836315  1.0000
  S   S1        1.0  0.15953563761104309  0.1497984756447366  0.2639745781284262  1.0000
  S   S2        1.0  0.8404638835592806  0.3502008361985105  0.7639750164365537  1.0000
  S   S3        1.0  0.8404657718666967  0.850201857747976  0.7360249835634464  1.0000
  S   S4        1.0  0.15953519245781678  0.6497986423410893  0.2360254218715738  1.0000
  S   S5        1.0  0.8428221347724829  0.2672091313768306  0.3470786763094438  1.0000
  S   S6        1.0  0.15717738639783357  0.2327901804664165  0.8470791146175785  1.0000
  S   S7        1.0  0.15717694124460732  0.7327903471627764  0.6529208853824215  1.0000
  S   S8        1.0  0.8428236691201929  0.7672092980731833  0.1529208853824215  1.0000
  N   N1        1.0  0.23426897121770907  0.3726595371974  0.2733206223975486  1.0000
  N   N2        1.0  0.7657309039123203  0.1273406294989599  0.7733210607056762  1.0000
  N   N3        1.0  0.7657327922197369  0.6273416510484324  0.7266793776024514  1.0000
  N   N4        1.0  0.23426781814506364  0.8726579941875271  0.2266798159105861  1.0000
  N   N5        1.0  0.5121309500720344  0.3006270492912861  0.4965220249835625  1.0000
  N   N6        1.0  0.48786857109828213  0.19937226255196086  0.9965220249835625  1.0000
  N   N7        1.0  0.487868125945063  0.6993724292483137  0.5034779750164375  1.0000
  N   N8        1.0  0.5121301509591021  0.8006263611345261  0.0034775367083029005  1.0000
  O   O1        1.0  0.22589676307170947  0.4571327024648468  0.4163572211264537  1.0000
  O   O2        1.0  0.77410311205832  0.042867464231513  0.9163572211264537  1.0000
  O   O3        1.0  0.7741023129453877  0.5428667760747601  0.5836427788735463  1.0000
  O   O4        1.0  0.22590063088004794  0.9571337240143122  0.083643217181681  1.0000
  O   O5        1.0  0.8777552985436967  0.5439242293762021  0.4399662502739403  1.0000
  O   O6        1.0  0.12224333232017415  0.9560754158597504  0.9399662502739403  1.0000
  O   O7        1.0  0.12224413143310638  0.4560761040165104  0.5600337497260597  1.0000
  O   O8        1.0  0.8777580771575586  0.0439249175329621  0.0600337497260597  1.0000
