data_image0
_chemical_formula_structural       Cd4H16C16O20
_chemical_formula_sum              "Cd4 H16 C16 O20"
_cell_length_a       6.845963754004543
_cell_length_b       8.529042181028048
_cell_length_c       10.037070243030595
_cell_angle_alpha    89.99972661337625
_cell_angle_beta     89.99992666884457
_cell_angle_gamma    90.00010862352906

_space_group_name_H-M_alt    "P 1"
_space_group_IT_number       1

loop_
  _space_group_symop_operation_xyz
  'x, y, z'

loop_
  _atom_site_type_symbol
  _atom_site_label
  _atom_site_symmetry_multiplicity
  _atom_site_fract_x
  _atom_site_fract_y
  _atom_site_fract_z
  _atom_site_occupancy
  Cd  Cd1       1.0  0.6525673774457701  0.35671216636862346  0.04588388745025179  1.0000
  Cd  Cd2       1.0  0.847433910718763  0.6432893939848013  0.5458837057480537  1.0000
  Cd  Cd3       1.0  0.1525694960557473  0.14329136473878626  0.9541206913334506  1.0000
  Cd  Cd4       1.0  0.34742867852811093  0.8567094866558874  0.4541156849486256  1.0000
  H   H1        1.0  0.9857316204644562  0.9055201223457341  0.7105128264254574  1.0000
  H   H2        1.0  0.5142693690732613  0.09448168426443708  0.2105171829944794  1.0000
  H   H3        1.0  0.48572752524553653  0.5944813126600222  0.289485443206587  1.0000
  H   H4        1.0  0.014279712252523799  0.40551929248173463  0.7894895131565747  1.0000
  H   H5        1.0  0.8963268628142129  0.8430705187788944  0.907479832250999  1.0000
  H   H6        1.0  0.6036766908828639  0.156938386967404  0.407480866515435  1.0000
  H   H7        1.0  0.3963218123773373  0.656929608373559  0.0925175217255614  1.0000
  H   H8        1.0  0.10367847882820767  0.343068587503957  0.5925207674435882  1.0000
  H   H9        1.0  0.50231386476122  0.8989737141297098  0.7717789435787239  1.0000
  H   H10       1.0  0.9976884743698162  0.10103478259561166  0.2717808449583501  1.0000
  H   H11       1.0  0.0023055140687731003  0.601030506196366  0.22822075842618966  1.0000
  H   H12       1.0  0.4976959916991959  0.39896809869092187  0.7282224261989896  1.0000
  H   H13       1.0  0.5190096253859479  0.8528965632644014  0.9414659955734949  1.0000
  H   H14       1.0  0.980986563077529  0.14710277155300128  0.44146772557000696  1.0000
  H   H15       1.0  0.0190075347006129  0.6471018200239838  0.0585346876865529  1.0000
  H   H16       1.0  0.480994278859839  0.35289304965343854  0.5585355606675861  1.0000
  C   C1        1.0  0.7564018794171685  0.6337528055024959  0.8533838557976238  1.0000
  C   C2        1.0  0.7435973902633677  0.3662540596668008  0.3533799315546844  1.0000
  C   C3        1.0  0.2563928455021696  0.8662494546824459  0.14661262808992598  1.0000
  C   C4        1.0  0.24359420114047478  0.13374609190882578  0.6466195835907413  1.0000
  C   C5        1.0  0.7859012423659165  0.8108583542281805  0.8323325205708371  1.0000
  C   C6        1.0  0.7140980654924717  0.18914276704991545  0.3323293396600349  1.0000
  C   C7        1.0  0.28589613206555947  0.6891392607683287  0.1676659293275975  1.0000
  C   C8        1.0  0.21410110139208163  0.31085499492869667  0.6676702020974616  1.0000
  C   C9        1.0  0.6005497791585697  0.9046377218226805  0.8582194505444676  1.0000
  C   C10       1.0  0.8994509424562196  0.09536677119417897  0.3582224597749928  1.0000
  C   C11       1.0  0.10054449324094607  0.5953607849442475  0.14178115916298847  1.0000
  C   C12       1.0  0.39945863003033816  0.4046324439291168  0.6417818963121178  1.0000
  C   C13       1.0  0.6397485009748535  0.07371902663121688  0.8937902584626584  1.0000
  C   C14       1.0  0.8602477739760557  0.9262829213511167  0.3937869515793224  1.0000
  C   C15       1.0  0.13974114353647588  0.426277450269076  0.10621433190294029  1.0000
  C   C16       1.0  0.3602532799652707  0.5737159787052801  0.6062114312469902  1.0000
  O   O1        1.0  0.6705248598104631  0.5981564098156154  0.96199135632326  1.0000
  O   O2        1.0  0.8294771342936614  0.4018486718737576  0.4619862142587081  1.0000
  O   O3        1.0  0.1705190288105243  0.9018422029350288  0.0380032124227796  1.0000
  O   O4        1.0  0.32947405769995436  0.09815395469222207  0.5380102344933134  1.0000
  O   O5        1.0  0.8237904520380254  0.5361606557776991  0.7698865500321759  1.0000
  O   O6        1.0  0.6762133512431204  0.4638431617625968  0.2698793027258688  1.0000
  O   O7        1.0  0.32377419470780916  0.9638358441291995  0.2301098730820215  1.0000
  O   O8        1.0  0.1762214647606868  0.036159232701635284  0.730122265807438  1.0000
  O   O9        1.0  0.8613531592786926  0.8459518131125776  0.7029629911317627  1.0000
  O   O10       1.0  0.6386507653853994  0.15405003598144867  0.2029650018287512  1.0000
  O   O11       1.0  0.36134627031048433  0.6540459161493853  0.2970333980920543  1.0000
  O   O12       1.0  0.13865949277487738  0.345949956665251  0.7970385932060253  1.0000
  O   O13       1.0  0.8108420664530912  0.125989938011152  0.9061661969469128  1.0000
  O   O14       1.0  0.6891541860489809  0.8740131128054712  0.4061642522338502  1.0000
  O   O15       1.0  0.3108404502706748  0.37400797046898043  0.0938332575438778  1.0000
  O   O16       1.0  0.1891686028347053  0.62598318324558  0.5938293033963831  1.0000
  O   O17       1.0  0.49262978365511856  0.16455437203880757  0.9170230161883525  1.0000
  O   O18       1.0  0.007364076078410199  0.8354490329877037  0.4170193989075202  1.0000
  O   O19       1.0  0.9926260865669292  0.3354449841763766  0.0829832484644015  1.0000
  O   O20       1.0  0.5073795164438266  0.6645528500722121  0.582981294842483  1.0000
