data_image0
_chemical_formula_structural       Sn8H128C64O16
_chemical_formula_sum              "Sn8 H128 C64 O16"
_cell_length_a       6.200514475121564
_cell_length_b       19.45493619675317
_cell_length_c       19.48680866906902
_cell_angle_alpha    90.00034060618785
_cell_angle_beta     89.99985864255603
_cell_angle_gamma    90.00037844596622

_space_group_name_H-M_alt    "P 1"
_space_group_IT_number       1

loop_
  _space_group_symop_operation_xyz
  'x, y, z'

loop_
  _atom_site_type_symbol
  _atom_site_label
  _atom_site_symmetry_multiplicity
  _atom_site_fract_x
  _atom_site_fract_y
  _atom_site_fract_z
  _atom_site_occupancy
  Sn  Sn1       1.0  0.004593618113105401  0.5397733212938219  0.1841696115299456  1.0000
  Sn  Sn2       1.0  0.0046242292156151  0.4602265402659569  0.815833133528187  1.0000
  Sn  Sn3       1.0  0.9954021859380263  0.9602238794481291  0.6841653988087941  1.0000
  Sn  Sn4       1.0  0.9954044553550716  0.039776172784051815  0.31583067390408803  1.0000
  Sn  Sn5       1.0  0.8718495280358951  0.31217389073690766  0.0345172001863645  1.0000
  Sn  Sn6       1.0  0.8718631009111136  0.6878271645493114  0.9654865061932796  1.0000
  Sn  Sn7       1.0  0.12813818475992633  0.18783246832376926  0.5345193352650242  1.0000
  Sn  Sn8       1.0  0.1281494835589285  0.8121720443627964  0.4654798814387817  1.0000
  H   H1        1.0  0.48131352313352954  0.2525634950958703  0.33639591089216475  1.0000
  H   H2        1.0  0.48131875828804743  0.7474319096696219  0.663600922515009  1.0000
  H   H3        1.0  0.5186857075791238  0.2474355157579281  0.836395718637327  1.0000
  H   H4        1.0  0.5186629546041671  0.7525633392779978  0.16360780524084356  1.0000
  H   H5        1.0  0.4681279157321754  0.1957388643673639  0.23285121689310267  1.0000
  H   H6        1.0  0.4681194584562435  0.804260190689675  0.7671476623527909  1.0000
  H   H7        1.0  0.5319040921497233  0.3042673350441659  0.7328495508565567  1.0000
  H   H8        1.0  0.5318714097608108  0.6957412338808168  0.2671565456492502  1.0000
  H   H9        1.0  0.219858066122633  0.1579979936002828  0.2545639404413933  1.0000
  H   H10       1.0  0.21985792968542486  0.8420041000193521  0.7454301919896764  1.0000
  H   H11       1.0  0.7801686555321936  0.34199990043055806  0.7545667195517254  1.0000
  H   H12       1.0  0.7801317734494688  0.6579989478000242  0.24544053162032498  1.0000
  H   H13       1.0  0.24358513537832485  0.25127295943944716  0.1484153565152369  1.0000
  H   H14       1.0  0.2435672467100858  0.7487300683976769  0.8515859725159488  1.0000
  H   H15       1.0  0.7564276465846972  0.24872538919100856  0.6484116846252377  1.0000
  H   H16       1.0  0.7564089792949247  0.751279206995349  0.3515893962482295  1.0000
  H   H17       1.0  0.0149195352989437  0.24752528359569936  0.20207468875250353  1.0000
  H   H18       1.0  0.014912730506637202  0.7524735090874372  0.797921390456679  1.0000
  H   H19       1.0  0.9850889150662568  0.2524731064302442  0.7020752104098378  1.0000
  H   H20       1.0  0.985072665183317  0.7475290427457181  0.2979265018046533  1.0000
  H   H21       1.0  0.5112986340822304  0.39940278949534047  0.2345566965004764  1.0000
  H   H22       1.0  0.5112931882981187  0.6006002067839518  0.7654442577099729  1.0000
  H   H23       1.0  0.4886946320923117  0.10060293003964915  0.7345617678549701  1.0000
  H   H24       1.0  0.48870094085045673  0.8994042677291175  0.2654376351579018  1.0000
  H   H25       1.0  0.4900331865709334  0.35260211148712256  0.1570598375902819  1.0000
  H   H26       1.0  0.4900282941300702  0.6474040530047416  0.8429411056185147  1.0000
  H   H27       1.0  0.5099616770330186  0.14740463363894918  0.6570614668129693  1.0000
  H   H28       1.0  0.509952948518098  0.8526076200888114  0.3429394866687474  1.0000
  H   H29       1.0  0.5871388380795112  0.31156115110611887  0.2317177105252313  1.0000
  H   H30       1.0  0.5871323336000317  0.6884446290377324  0.768280203859028  1.0000
  H   H31       1.0  0.4128754527480893  0.18844810987642546  0.7317235800017698  1.0000
  H   H32       1.0  0.4128585116736545  0.8115645281418935  0.2682804023119871  1.0000
  H   H33       1.0  0.8768255755262899  0.27648842441550403  0.3013193684136438  1.0000
  H   H34       1.0  0.8768184871555464  0.723504901005171  0.6986756167127552  1.0000
  H   H35       1.0  0.12319211851045958  0.2235073173291511  0.8013191630409793  1.0000
  H   H36       1.0  0.12316572833884007  0.7764900188850561  0.19867953795818488  1.0000
  H   H37       1.0  0.8925261199864849  0.36656954435906636  0.31702861399662646  1.0000
  H   H38       1.0  0.8925250140511666  0.6334262889629015  0.6829674055700252  1.0000
  H   H39       1.0  0.107473509842329  0.13342753850522374  0.8170286074156792  1.0000
  H   H40       1.0  0.1074579124967272  0.866568317826932  0.1829654669605034  1.0000
  H   H41       1.0  0.9433414129226066  0.3074000394481827  0.3841588910275319  1.0000
  H   H42       1.0  0.9433528995354834  0.692592508699441  0.6158386943177874  1.0000
  H   H43       1.0  0.0566600587741206  0.19259683919273837  0.8841573588690821  1.0000
  H   H44       1.0  0.05663624873722739  0.8073971622601446  0.1158397682600025  1.0000
  H   H45       1.0  0.4944316714474438  0.37254391653243596  0.34644838919131615  1.0000
  H   H46       1.0  0.4944403683536082  0.6274581184165484  0.6535484509691826  1.0000
  H   H47       1.0  0.5055705778958313  0.12746351882758938  0.8464527413876012  1.0000
  H   H48       1.0  0.5055496156874  0.8725374441038408  0.15354667036395847  1.0000
  H   H49       1.0  0.29649361082463344  0.3575333281664753  0.41010735940194815  1.0000
  H   H50       1.0  0.2964983757624892  0.6424684622051087  0.5898934838133485  1.0000
  H   H51       1.0  0.7035186158594586  0.14247486175600696  0.9101065622172655  1.0000
  H   H52       1.0  0.7035025967216697  0.8575222336955403  0.0898939781779404  1.0000
  H   H53       1.0  0.2533730318788657  0.4223476923276763  0.3464476146803435  1.0000
  H   H54       1.0  0.2533906259086934  0.5776491285393489  0.6535475614308908  1.0000
  H   H55       1.0  0.7466163150098168  0.0776520329221384  0.8464524895907316  1.0000
  H   H56       1.0  0.7466041964309083  0.9223454059240551  0.1535444809016511  1.0000
  H   H57       1.0  0.2426159329998399  0.4774730194426198  0.0849525471980499  1.0000
  H   H58       1.0  0.24263176840318573  0.5225294981603809  0.9150492945107019  1.0000
  H   H59       1.0  0.7573949316318149  0.0225281765183851  0.5849481181375892  1.0000
  H   H60       1.0  0.7573786301275051  0.977469219600252  0.41504116040893985  1.0000
  H   H61       1.0  0.31004615761195714  0.5670039283512551  0.0886475270961711  1.0000
  H   H62       1.0  0.3100677718617674  0.4329983224599445  0.911363586478245  1.0000
  H   H63       1.0  0.6899500027379091  0.9329965087901398  0.5886382425136958  1.0000
  H   H64       1.0  0.6899492669292115  0.0670011543049966  0.4113586986978602  1.0000
  H   H65       1.0  0.0686655507424234  0.5405438701040381  0.0471846499135111  1.0000
  H   H66       1.0  0.0686819871752746  0.4594624200779335  0.9528247994046453  1.0000
  H   H67       1.0  0.9313443662420084  0.959453684704357  0.5471783575736993  1.0000
  H   H68       1.0  0.9313309714014366  0.04053479890695401  0.45281922158184074  1.0000
  H   H69       1.0  0.03650312902828289  0.5942049366134512  0.3122622081028581  1.0000
  H   H70       1.0  0.0365561949005979  0.4057958267001424  0.6877477377942681  1.0000
  H   H71       1.0  0.9634690688557583  0.9057917327690175  0.8122502033164523  1.0000
  H   H72       1.0  0.9634960955473629  0.09420073562102259  0.1877407212547837  1.0000
  H   H73       1.0  0.18440809940296532  0.6470677667229195  0.2538738187078664  1.0000
  H   H74       1.0  0.1844379701685881  0.3529231590629606  0.7461310719773306  1.0000
  H   H75       1.0  0.8155717529267859  0.852927225084677  0.7538672917458058  1.0000
  H   H76       1.0  0.8155824740514389  0.14706737068895848  0.2461220168823459  1.0000
  H   H77       1.0  0.29665656785233097  0.5674808421167583  0.2836963911864743  1.0000
  H   H78       1.0  0.296709580684869  0.4325101534511759  0.7163157418571586  1.0000
  H   H79       1.0  0.7033194442875156  0.9325147440019139  0.7836876305173561  1.0000
  H   H80       1.0  0.7033453460821447  0.06747669801176667  0.21630777813175678  1.0000
  H   H81       1.0  0.6117173367441852  0.48853696807274344  0.1500766533726434  1.0000
  H   H82       1.0  0.6117433009763857  0.5114574066953423  0.849936155628903  1.0000
  H   H83       1.0  0.38827121951824495  0.011462955719480297  0.6500710956814615  1.0000
  H   H84       1.0  0.3882700523335743  0.988540013475976  0.3499318476252142  1.0000
  H   H85       1.0  0.5824487463183914  0.5751461917937205  0.17996780265781348  1.0000
  H   H86       1.0  0.5824651366901108  0.42484624273132  0.8200383200446097  1.0000
  H   H87       1.0  0.41755037006711143  0.9248550372462175  0.6799610082314513  1.0000
  H   H88       1.0  0.4175570098449271  0.07515090009913189  0.32004143702801  1.0000
  H   H89       1.0  0.6185568895856265  0.5065276282410949  0.2398804105209535  1.0000
  H   H90       1.0  0.6185880965162981  0.49346723344035587  0.7601308625114314  1.0000
  H   H91       1.0  0.38143615352794313  0.9934722247501425  0.7398735620896844  1.0000
  H   H92       1.0  0.38144496163393876  0.006533341508706799  0.2601283513417769  1.0000
  H   H93       1.0  0.6330629909024736  0.19868097104003368  0.051517810335695906  1.0000
  H   H94       1.0  0.633121521653834  0.8013287393519234  0.9484867989609923  1.0000
  H   H95       1.0  0.36689050349380636  0.30132932493442144  0.5515186483873292  1.0000
  H   H96       1.0  0.36690109002129395  0.6986747568128139  0.4484781258573208  1.0000
  H   H97       1.0  0.631710870871629  0.24392427444252715  0.1316231008410398  1.0000
  H   H98       1.0  0.6317561252331246  0.7560849273135872  0.8683809945878734  1.0000
  H   H99       1.0  0.3682312959903342  0.25609173004647084  0.6316268670660321  1.0000
  H   H100      1.0  0.3682471713784281  0.743913374405622  0.368370421036424  1.0000
  H   H101      1.0  0.8594417895897096  0.19319970159075683  0.1080956515571714  1.0000
  H   H102      1.0  0.8595083781186832  0.8068039727391961  0.8919080484138745  1.0000
  H   H103      1.0  0.1404944110857897  0.3068127499008355  0.608090683952291  1.0000
  H   H104      1.0  0.1405089483465858  0.6931922278233885  0.3919023811237778  1.0000
  H   H105      1.0  0.26039305683065095  0.24926854757847383  0.0191556197276128  1.0000
  H   H106      1.0  0.26039524386869317  0.7507374978292843  0.9808539286649137  1.0000
  H   H107      1.0  0.7396014237224195  0.2507359631875802  0.5191457650879768  1.0000
  H   H108      1.0  0.7396025091672412  0.7492681854840482  0.4808491490853442  1.0000
  H   H109      1.0  0.3011363799347393  0.335286004321567  0.0485649250351585  1.0000
  H   H110      1.0  0.3011387076970209  0.6647250198151724  0.9514343810388225  1.0000
  H   H111      1.0  0.6988607199594056  0.16471652242747578  0.5485490657691017  1.0000
  H   H112      1.0  0.6988693284794463  0.8352841892590772  0.4514304323369487  1.0000
  H   H113      1.0  0.24039912611183206  0.31935066779765  0.9600990421888156  1.0000
  H   H114      1.0  0.24041507200852413  0.6806467184950334  0.0399027983949196  1.0000
  H   H115      1.0  0.7596152957477001  0.1806554342042048  0.46008455806602194  1.0000
  H   H116      1.0  0.759603059125624  0.8193568593102609  0.5398995898928192  1.0000
  H   H117      1.0  0.6536782474045708  0.415415050692978  0.9722249168158824  1.0000
  H   H118      1.0  0.6536625273671675  0.5845914941441775  0.0277735451154939  1.0000
  H   H119      1.0  0.34636011610032114  0.08459694719632439  0.47222946105673447  1.0000
  H   H120      1.0  0.3463090832995164  0.9154092720372942  0.5277750000690702  1.0000
  H   H121      1.0  0.8196222629856891  0.45014005608496166  0.0393311742444666  1.0000
  H   H122      1.0  0.8196119389232379  0.5498637759727245  0.9606704524583094  1.0000
  H   H123      1.0  0.18037825272502767  0.049863314735283396  0.5393231495010653  1.0000
  H   H124      1.0  0.18039268098436165  0.9501363650140461  0.4606658308652456  1.0000
  H   H125      1.0  0.5699750449697092  0.41054309291536123  0.05994880506952429  1.0000
  H   H126      1.0  0.5699699428569575  0.5894627551353792  0.940047047774634  1.0000
  H   H127      1.0  0.43000891793378315  0.08946120300612388  0.5599585536670446  1.0000
  H   H128      1.0  0.43004639155586943  0.9105410870088944  0.44005364823857457  1.0000
  C   C1        1.0  0.0922121811619121  0.3841953143070923  0.20054235700838058  1.0000
  C   C2        1.0  0.0922233845193361  0.6157995744172807  0.799457867504067  1.0000
  C   C3        1.0  0.9078011393599753  0.1158071571418589  0.7005331546893884  1.0000
  C   C4        1.0  0.9077829453055911  0.8841963258181661  0.299456201556218  1.0000
  C   C5        1.0  0.23742498856370994  0.32826556534480034  0.23094164389950578  1.0000
  C   C6        1.0  0.23742357557387092  0.6717313187038769  0.7690560898035628  1.0000
  C   C7        1.0  0.7625780284739179  0.1717323719568356  0.730942182822524  1.0000
  C   C8        1.0  0.7625720917158105  0.8282706578221662  0.2690573617357828  1.0000
  C   C9        1.0  0.20753104960857627  0.3174295813063637  0.3107484875931661  1.0000
  C   C10       1.0  0.20752570179765686  0.6825669070904539  0.6892528228360887  1.0000
  C   C11       1.0  0.7924735480985278  0.18256994640909596  0.8107458763325041  1.0000
  C   C12       1.0  0.7924587080763886  0.8174309090246439  0.18925265734567628  1.0000
  C   C13       1.0  0.3129127988489985  0.2440460405473317  0.320827420962594  1.0000
  C   C14       1.0  0.31290549601020967  0.7559536288110634  0.6791713780721977  1.0000
  C   C15       1.0  0.6870948166763282  0.25595420203461566  0.8208251949709862  1.0000
  C   C16       1.0  0.6870742833016834  0.7440445004728102  0.1791773896001132  1.0000
  C   C17       1.0  0.3041821181097077  0.20720278261389066  0.2508350893488114  1.0000
  C   C18       1.0  0.3041666585806552  0.7927953792741106  0.7491621656752585  1.0000
  C   C19       1.0  0.6958414549519317  0.2927965791098614  0.7508351392002978  1.0000
  C   C20       1.0  0.6958084525287945  0.7072026028391177  0.24917001572386965  1.0000
  C   C21       1.0  0.1895973453743522  0.256631621119304  0.20176731006081638  1.0000
  C   C22       1.0  0.1895881892299727  0.7433680222818139  0.7982309120814718  1.0000
  C   C23       1.0  0.8104143368498455  0.2433662487609283  0.7017673010804018  1.0000
  C   C24       1.0  0.8103875235642377  0.7566365917553809  0.2982343208637914  1.0000
  C   C25       1.0  0.4698728610810292  0.34931048437320555  0.2129176321326938  1.0000
  C   C26       1.0  0.4698726101284479  0.6506937038554382  0.7870822743318371  1.0000
  C   C27       1.0  0.5301192383580117  0.1506948038958669  0.7129197586338663  1.0000
  C   C28       1.0  0.5301178475195201  0.8493132579768168  0.2870817184507786  1.0000
  C   C29       1.0  0.9659533791610073  0.31662486734658296  0.3290082184395402  1.0000
  C   C30       1.0  0.965958148943997  0.6833681053249379  0.6709888654196448  1.0000
  C   C31       1.0  0.03405245483254761  0.18337245424439164  0.8290082878391161  1.0000
  C   C32       1.0  0.0340314754482165  0.81662420674057  0.1709908802680076  1.0000
  C   C33       1.0  0.3199072825045164  0.3709560702269953  0.3559008987365644  1.0000
  C   C34       1.0  0.3199114635275393  0.6290440854294629  0.6440973907460616  1.0000
  C   C35       1.0  0.6800979974584751  0.12904846942334558  0.8559022494336473  1.0000
  C   C36       1.0  0.6800787152931846  0.8709507747305452  0.1440951998433349  1.0000
  C   C37       1.0  0.17819268178330108  0.5296404180479469  0.08975557134189667  1.0000
  C   C38       1.0  0.17820764687867552  0.4703638965840966  0.9102493160740578  1.0000
  C   C39       1.0  0.8218179705820318  0.9703595271871417  0.5897511879050439  1.0000
  C   C40       1.0  0.821806189429239  0.0296376140080952  0.41024376877917484  1.0000
  C   C41       1.0  0.14825881364578922  0.5940151257299107  0.268641447155872  1.0000
  C   C42       1.0  0.14829486771147768  0.40597902722025475  0.7313690696817899  1.0000
  C   C43       1.0  0.8517239599185799  0.9059811883589859  0.7686319489437776  1.0000
  C   C44       1.0  0.8517371702378969  0.0940132643536558  0.23135994420589867  1.0000
  C   C45       1.0  0.6620707079618813  0.5257884695160014  0.18888020325305627  1.0000
  C   C46       1.0  0.6620880254885932  0.47420570594702127  0.8111290395940356  1.0000
  C   C47       1.0  0.33792338639486275  0.9742124231441381  0.6888739994650521  1.0000
  C   C48       1.0  0.3379294665409986  0.0257943433446712  0.3111273783075958  1.0000
  C   C49       1.0  0.2094256791456175  0.20560723624956975  0.38030881129873956  1.0000
  C   C50       1.0  0.20940979137088792  0.7943974687268065  0.619684802559128  1.0000
  C   C51       1.0  0.7905839357033386  0.2943900797236977  0.8803140290433688  1.0000
  C   C52       1.0  0.7905679884996387  0.7055994750527858  0.11968912221215079  1.0000
  C   C53       1.0  0.7318281277909408  0.22691048575431694  0.0887100623327441  1.0000
  C   C54       1.0  0.7318738656241591  0.7730957497243904  0.9112945980123897  1.0000
  C   C55       1.0  0.2681262128333088  0.27310106541236934  0.5887100486651062  1.0000
  C   C56       1.0  0.2681414486939886  0.7269049492255633  0.411285648200284  1.0000
  C   C57       1.0  0.21017847775649298  0.3029284884033102  0.0129229710544578  1.0000
  C   C58       1.0  0.21018267250506278  0.6970762136561958  0.9870809065508155  1.0000
  C   C59       1.0  0.7898193568391463  0.19707641213472019  0.5129110054670035  1.0000
  C   C60       1.0  0.7898214032368995  0.8029290797381774  0.48707675030457415  1.0000
  C   C61       1.0  0.7085186784794361  0.40887914153557137  0.0252109891260659  1.0000
  C   C62       1.0  0.708512994005126  0.5911241022069048  0.9747895538310659  1.0000
  C   C63       1.0  0.2914821283772113  0.0911290880598656  0.5252119289670601  1.0000
  C   C64       1.0  0.2914848837125632  0.9088747781833957  0.4747889116496893  1.0000
  O   O1        1.0  0.1080452078648051  0.44365863928064886  0.230476219360952  1.0000
  O   O2        1.0  0.1080538593730083  0.5563346447399481  0.7695219606684844  1.0000
  O   O3        1.0  0.8919416907568232  0.05633157865679551  0.730477234420654  1.0000
  O   O4        1.0  0.8919563132278225  0.9436663129958872  0.2695203243428068  1.0000
  O   O5        1.0  0.9757309125799266  0.37370471086078527  0.1489261713338266  1.0000
  O   O6        1.0  0.9757499595057839  0.62629284924251  0.8510791282459067  1.0000
  O   O7        1.0  0.024243152308393696  0.12629416213255948  0.6489323367906294  1.0000
  O   O8        1.0  0.02424724258087  0.8737056217678686  0.3510760632593062  1.0000
  O   O9        1.0  0.2553384166577786  0.2313194670802545  0.44003271213730943  1.0000
  O   O10       1.0  0.2553410451654655  0.7686773460992311  0.559968622997637  1.0000
  O   O11       1.0  0.7446635162200079  0.26867852502547857  0.9400283615021152  1.0000
  O   O12       1.0  0.7446444166589005  0.7313204636497017  0.05997476598506069  1.0000
  O   O13       1.0  0.08648392221175528  0.1548732329483258  0.3724149241998376  1.0000
  O   O14       1.0  0.08650259371889042  0.8451252764295344  0.6275791393280201  1.0000
  O   O15       1.0  0.9135371446810937  0.34512289767217647  0.8724203130980043  1.0000
  O   O16       1.0  0.9135040534397733  0.6548764507276414  0.1275870069924991  1.0000
