data_image0
_chemical_formula_structural       Cd4H36C56S4N12Cl8O4
_chemical_formula_sum              "Cd4 H36 C56 S4 N12 Cl8 O4"
_cell_length_a       7.668582136
_cell_length_b       13.115581202604789
_cell_length_c       16.911
_cell_angle_alpha    111.9300818894267
_cell_angle_beta     90.0
_cell_angle_gamma    90.0

_space_group_name_H-M_alt    "P 1"
_space_group_IT_number       1

loop_
  _space_group_symop_operation_xyz
  'x, y, z'

loop_
  _atom_site_type_symbol
  _atom_site_label
  _atom_site_symmetry_multiplicity
  _atom_site_fract_x
  _atom_site_fract_y
  _atom_site_fract_z
  _atom_site_occupancy
  Cd  Cd1       1.0  0.6785035235619219  0.5631246907789134  0.4676267635166411  1.0000
  Cd  Cd2       1.0  0.1785036628314742  0.43687599618705525  0.032374618128017126  1.0000
  Cd  Cd3       1.0  0.3214975019210016  0.4368743523345415  0.5323723679861844  1.0000
  Cd  Cd4       1.0  0.8214921465633509  0.5631255127051631  0.9676252275976722  1.0000
  H   H1        1.0  0.7848386955061457  0.0393456097949354  0.3205149414158228  1.0000
  H   H2        1.0  0.2848440508637964  0.9606526113922627  0.17948395201272402  1.0000
  H   H3        1.0  0.21515450584462315  0.9606534333185195  0.6794859640802713  1.0000
  H   H4        1.0  0.7151634947292396  0.0393480755736988  0.820513881645418  1.0000
  H   H5        1.0  0.5192094091694557  0.20151001592240192  0.17586213537894224  1.0000
  H   H6        1.0  0.019209548439008  0.7984939587485798  0.32414078989394574  1.0000
  H   H7        1.0  0.4807942243575099  0.798493136822323  0.824139960488573  1.0000
  H   H8        1.0  0.9807927810659365  0.2015075501436385  0.6758602384939181  1.0000
  H   H9        1.0  0.4250577149976565  0.3759638634046638  0.23251959261247634  1.0000
  H   H10       1.0  0.9250588797501254  0.6240392893400681  0.26748132059287144  1.0000
  H   H11       1.0  0.574943310485267  0.6240392893400681  0.7674813205928717  1.0000
  H   H12       1.0  0.07494605779886852  0.3759622195521501  0.7325185251328179  1.0000
  H   H13       1.0  0.2931767515986579  0.6005469931387069  0.3581954561156095  1.0000
  H   H14       1.0  0.7931753083070847  0.3994553376797612  0.1418064016776199  1.0000
  H   H15       1.0  0.7068229698622377  0.3994545157535114  0.6418067549344215  1.0000
  H   H16       1.0  0.20682702119786  0.6005453492862003  0.8581949799670384  1.0000
  H   H17       1.0  0.3928222905585628  0.5540424056685254  0.2554034697760272  1.0000
  H   H18       1.0  0.8928234553110387  0.4459599251499426  0.2445995706793767  1.0000
  H   H19       1.0  0.6071761268803046  0.4459599251499426  0.7445977966861221  1.0000
  H   H20       1.0  0.10717887419390591  0.5540407618160188  0.7554006283031072  1.0000
  H   H21       1.0  0.39855607539912813  0.7483581010867512  0.26643146004833085  1.0000
  H   H22       1.0  0.8985559361295758  0.2516417639529607  0.23356968352204893  1.0000
  H   H23       1.0  0.6014462541058165  0.2516409420267038  0.7335682627855888  1.0000
  H   H24       1.0  0.1014463933753689  0.7483581010867512  0.7664326427104983  1.0000
  H   H25       1.0  0.5481352257110361  0.9300013375156624  0.3263433712735165  1.0000
  H   H26       1.0  0.048135364980588215  0.0699993494502991  0.1736580103711418  1.0000
  H   H27       1.0  0.4518657997718806  0.0699977055977925  0.6736569428914834  1.0000
  H   H28       1.0  0.9518669645243563  0.9300005155894056  0.826343724530318  1.0000
  H   H29       1.0  0.7646615627251594  0.9636279844329465  0.4460941104173202  1.0000
  H   H30       1.0  0.2646617019947115  0.0363718806067581  0.0539076244841397  1.0000
  H   H31       1.0  0.2353368547137151  0.0363735244592718  0.5539075093016236  1.0000
  H   H32       1.0  0.735340627510233  0.9636271625066969  0.9460938723430347  1.0000
  H   H33       1.0  0.8241419193165955  0.808683378523547  0.49612832714547045  1.0000
  H   H34       1.0  0.3241394505420985  0.19131730844241454  0.003874237161362309  1.0000
  H   H35       1.0  0.17585389007822985  0.191318952294921  0.5038747133099335  1.0000
  H   H36       1.0  0.6758589668967687  0.8086817346710404  0.9961266683347249  1.0000
  C   C1        1.0  0.5631275669236688  0.3009762435168071  0.30872473376312126  1.0000
  C   C2        1.0  0.06313031423727011  0.699021977670391  0.19127297700325135  1.0000
  C   C3        1.0  0.4368708505151987  0.6990236215228975  0.6912734531518226  1.0000
  C   C4        1.0  0.9368746233117236  0.3009762435168071  0.8087229597698596  1.0000
  C   C5        1.0  0.6234203292362039  0.3045302526405465  0.3904483896705884  1.0000
  C   C6        1.0  0.1234256845938546  0.6954712562516718  0.10955086472401375  1.0000
  C   C7        1.0  0.3765754801586213  0.6954712562516718  0.609551456055101  1.0000
  C   C8        1.0  0.8765805569771603  0.3045269649355333  0.8904456633801844  1.0000
  C   C9        1.0  0.7032864621325106  0.2058111560113289  0.39031180994243914  1.0000
  C   C10       1.0  0.2032892094461118  0.7941919967333959  0.10968910326290884  1.0000
  C   C11       1.0  0.29671195530636413  0.794191174807139  0.609691230512972  1.0000
  C   C12       1.0  0.79671703212491  0.2058103340850721  0.8903086152127174  1.0000
  C   C13       1.0  0.7181705695171277  0.1111014156507508  0.3176218146968637  1.0000
  C   C14       1.0  0.2181785329188273  0.8889000932414675  0.18237803102882577  1.0000
  C   C15       1.0  0.2818213278116204  0.8889000932414675  0.6823780310288187  1.0000
  C   C16       1.0  0.7818251006081456  0.1110997717982443  0.8176219298793798  1.0000
  C   C17       1.0  0.6477677244507023  0.1093301645726612  0.2407135189127132  1.0000
  C   C18       1.0  0.1477743838303738  0.8906721662458068  0.2592836082318328  1.0000
  C   C19       1.0  0.3522254769000739  0.8906713443195572  0.7592839614886344  1.0000
  C   C20       1.0  0.8522318577406409  0.1093301645726612  0.7407147015748805  1.0000
  C   C21       1.0  0.5712633603328712  0.20268619239235622  0.2362099156550883  1.0000
  C   C22       1.0  0.0712661076464727  0.7973136726473555  0.2637882712598553  1.0000
  C   C23       1.0  0.4287376651500453  0.7973144945736124  0.7637885093341411  1.0000
  C   C24       1.0  0.9287375258804929  0.2026853704660994  0.7362084949186284  1.0000
  C   C25       1.0  0.4905026683279417  0.3951895404197714  0.29460663079769495  1.0000
  C   C26       1.0  0.9905025290583895  0.6048127903986966  0.20539463566445454  1.0000
  C   C27       1.0  0.5094983571549747  0.6048111465461901  0.705393568184796  1.0000
  C   C28       1.0  0.009499800446555203  0.3951854307885014  0.7946036664330052  1.0000
  C   C29       1.0  0.4196108150024287  0.5808766540200025  0.3242824995241165  1.0000
  C   C30       1.0  0.9196145877989468  0.41912485487221574  0.17571852886374023  1.0000
  C   C31       1.0  0.5803876024364456  0.4191256767984656  0.6757187669380258  1.0000
  C   C32       1.0  0.0803877417059979  0.5808766540200025  0.8242819081930293  1.0000
  C   C33       1.0  0.5236717725363889  0.6866552752476879  0.3535575070047159  1.0000
  C   C34       1.0  0.0236745198499904  0.3133454117182737  0.1464444659710296  1.0000
  C   C35       1.0  0.4763253408804573  0.3133486994232868  0.6464448269370848  1.0000
  C   C36       1.0  0.9763278096549544  0.6866552752476879  0.8535575070047159  1.0000
  C   C37       1.0  0.49095385994832713  0.7659465010032278  0.31864386397754174  1.0000
  C   C38       1.0  0.9909524166567536  0.23405336403647684  0.1813578709239252  1.0000
  C   C39       1.0  0.5090471655345895  0.2340550078889905  0.6813559817481476  1.0000
  C   C40       1.0  0.0090486088261699  0.7659456790769781  0.8186436259032561  1.0000
  C   C41       1.0  0.5757596282724367  0.8668445241326879  0.3519010825107999  1.0000
  C   C42       1.0  0.07576107156400982  0.1331561628332807  0.14810029913386558  1.0000
  C   C43       1.0  0.4242361811223887  0.1331561628332807  0.6480991164716912  1.0000
  C   C44       1.0  0.924243865984984  0.8668428802801742  0.8519006063622286  1.0000
  C   C45       1.0  0.6961104289331461  0.8856000593303222  0.4178457923611917  1.0000
  C   C46       1.0  0.1961092641806701  0.1144014495618961  0.08215523602667221  1.0000
  C   C47       1.0  0.3038892925277495  0.1144014495618961  0.5821540533644978  1.0000
  C   C48       1.0  0.8038930653242746  0.8855984154778085  0.9178447248815331  1.0000
  C   C49       1.0  0.727410869580858  0.8010485055470441  0.4468238387239865  1.0000
  C   C50       1.0  0.2274110088504102  0.19895382527142402  0.05317742773816291  1.0000
  C   C51       1.0  0.27258493981396736  0.1989562910501874  0.5531793246231942  1.0000
  C   C52       1.0  0.7725900166325061  0.801045217842031  0.946822295095757  1.0000
  C   C53       1.0  0.9689535651079026  0.5815695378524097  0.6051206510581224  1.0000
  C   C54       1.0  0.46895109633341303  0.41842786140853866  0.8948803696204808  1.0000
  C   C55       1.0  0.031042244286915408  0.4184311491135588  0.39488309591087756  1.0000
  C   C56       1.0  0.5310499291495108  0.5815703597786595  0.1051202978013279  1.0000
  S   S1        1.0  0.8375590019239498  0.6812141234440007  0.6086634965070488  1.0000
  S   S2        1.0  0.3375461009732632  0.3187750565544007  0.8913345520976109  1.0000
  S   S3        1.0  0.1624407195369457  0.3187799881119275  0.3913359805433245  1.0000
  S   S4        1.0  0.6624405802673934  0.6812157672965142  0.10866338132453277  1.0000
  N   N1        1.0  0.5013364833052876  0.4958196155903138  0.3466124449074925  1.0000
  N   N2        1.0  0.0013392306188891004  0.504183537154411  0.15338846829784816  1.0000
  N   N3        1.0  0.4986619341335796  0.5041818933019044  0.6533874008181897  1.0000
  N   N4        1.0  0.9986578827979571  0.4958146840327871  0.8466104251306917  1.0000
  N   N5        1.0  0.6421434774601735  0.7045855964859697  0.41588432444510204  1.0000
  N   N6        1.0  0.1421436167297259  0.2954150904799917  0.08411646586847611  1.0000
  N   N7        1.0  0.3578562440007218  0.2954167343324983  0.5841169420170473  1.0000
  N   N8        1.0  0.8578561047311695  0.7045831307072135  0.9158830188911581  1.0000
  N   N9        1.0  0.064301326015034  0.5108263451419361  0.6058980024518092  1.0000
  N   N10       1.0  0.5642998827234607  0.489171876045269  0.8941038476321667  1.0000
  N   N11       1.0  0.9357010034899105  0.4891694102665056  0.3941019507471354  1.0000
  N   N12       1.0  0.4356946226493435  0.5108247012894225  0.10589870896541244  1.0000
  Cl  Cl1       1.0  0.7836259550236093  0.20495224307555301  0.4857060948700108  1.0000
  Cl  Cl2       1.0  0.2836352224473302  0.7950476219641588  0.014294457369281623  1.0000
  Cl  Cl3       1.0  0.2163672463271666  0.7950484438904155  0.5142946954435673  1.0000
  Cl  Cl4       1.0  0.7163762352117831  0.20495224307555301  0.9857055035389237  1.0000
  Cl  Cl5       1.0  0.6614130109122982  0.9893707147186674  0.15057265370084846  1.0000
  Cl  Cl6       1.0  0.16141836626994183  0.010631616099800598  0.3494274300991265  1.0000
  Cl  Cl7       1.0  0.3385788864164567  0.0106324380260574  0.8494288508355867  1.0000
  Cl  Cl8       1.0  0.8385826592129746  0.9893674270136543  0.6505693360793572  1.0000
  O   O1        1.0  0.6056230366494475  0.3893144115537979  0.46179908667082975  1.0000
  O   O2        1.0  0.1056231759189927  0.6106854534859139  0.038200874237368544  1.0000
  O   O3        1.0  0.3943753807894269  0.6106870973384204  0.5382007590548596  1.0000
  O   O4        1.0  0.8943765455419026  0.38931358962754103  0.9617970746032896  1.0000
