data_image0
_chemical_formula_structural       Fe2H24C28N4O12
_chemical_formula_sum              "Fe2 H24 C28 N4 O12"
_cell_length_a       4.877971244657246
_cell_length_b       10.986751515595971
_cell_length_c       12.621025377811142
_cell_angle_alpha    89.49461324829738
_cell_angle_beta     90.01788205279131
_cell_angle_gamma    102.86627444809184

_space_group_name_H-M_alt    "P 1"
_space_group_IT_number       1

loop_
  _space_group_symop_operation_xyz
  'x, y, z'

loop_
  _atom_site_type_symbol
  _atom_site_label
  _atom_site_symmetry_multiplicity
  _atom_site_fract_x
  _atom_site_fract_y
  _atom_site_fract_z
  _atom_site_occupancy
  Fe  Fe1       1.0  0.5000012563980363  6.449381472999956e-07  1.1759214399999676e-07  1.0000
  Fe  Fe2       1.0  0.5000015742488911  1.7681022442006244e-06  0.4999995079719709  1.0000
  H   H1        1.0  0.8824038418085253  0.09580608255865997  0.3233855696969457  1.0000
  H   H2        1.0  0.7857224710406571  0.9043852737777485  0.1768029136330397  1.0000
  H   H3        1.0  0.11759961913250566  0.9041960340496547  0.6766164692088024  1.0000
  H   H4        1.0  0.2142672780873696  0.09561402337812547  0.8231998949424834  1.0000
  H   H5        1.0  0.8989067422124534  0.48694778957520407  0.27981581104309317  1.0000
  H   H6        1.0  0.4124486796336697  0.5128028941332375  0.21957083125436577  1.0000
  H   H7        1.0  0.10109535723722018  0.5130516114455047  0.7201822443100879  1.0000
  H   H8        1.0  0.5875508693640299  0.4871955050977093  0.7804303859773041  1.0000
  H   H9        1.0  0.5669172987806661  0.46729344881691737  0.4328318568118873  1.0000
  H   H10       1.0  0.1001972545643071  0.532507148770648  0.06648555173015319  1.0000
  H   H11       1.0  0.4330832343470946  0.5327069193719396  0.5671646210702548  1.0000
  H   H12       1.0  0.8998125699818544  0.4674913030358638  0.9335132891367407  1.0000
  H   H13       1.0  0.4204499793303071  0.2635674648783847  0.5285441249147168  1.0000
  H   H14       1.0  0.156521651560425  0.7363669653664289  0.9712416748666042  1.0000
  H   H15       1.0  0.5795494139955865  0.7364347190437144  0.4714547444369685  1.0000
  H   H16       1.0  0.8434845482768835  0.26363243629742783  0.028756380732964694  1.0000
  H   H17       1.0  0.41394466972278815  0.24185385095229608  0.13578269463168618  1.0000
  H   H18       1.0  0.17202027678185078  0.7583411026887817  0.36418124379032685  1.0000
  H   H19       1.0  0.586058979662553  0.7581445489217982  0.8642185228463715  1.0000
  H   H20       1.0  0.8279852753186177  0.24166109918726866  0.6358168336040249  1.0000
  H   H21       1.0  0.300493575620159  0.1636457829521021  0.2567351278538794  1.0000
  H   H22       1.0  0.1365130005921173  0.836588193127177  0.24327106351882571  1.0000
  H   H23       1.0  0.6995059733775477  0.8363526162788446  0.7432660893777905  1.0000
  H   H24       1.0  0.8634823005392605  0.16341400714100726  0.7567270132595423  1.0000
  C   C1        1.0  0.822003986187262  0.1801015352793272  0.3469175716811462  1.0000
  C   C2        1.0  0.6412504070735778  0.819983760241982  0.15317957098195478  1.0000
  C   C3        1.0  0.1779999340463049  0.8199014978510061  0.6530852668575162  1.0000
  C   C4        1.0  0.35874710811656035  0.1800146726458607  0.8468200614726767  1.0000
  C   C5        1.0  0.9190443402156419  0.2919401528362826  0.2913475674756043  1.0000
  C   C6        1.0  0.6267327423899403  0.7080442436104589  0.20862130555641295  1.0000
  C   C7        1.0  0.0809611873054551  0.7080619980720684  0.7086528868995001  1.0000
  C   C8        1.0  0.3732642807351639  0.29195320479843195  0.791380696572986  1.0000
  C   C9        1.0  0.8283561929938797  0.3984771914688991  0.32168329798854234  1.0000
  C   C10       1.0  0.42999115714106045  0.6014076147994913  0.1779802154916154  1.0000
  C   C11       1.0  0.17164227355381464  0.6015231424199214  0.6783147644242431  1.0000
  C   C12       1.0  0.5700125086305262  0.3985908190530694  0.822019417332612  1.0000
  C   C13       1.0  0.6448843510793267  0.3869182128251794  0.4072496623390121  1.0000
  C   C14       1.0  0.25812364881019073  0.6130177970357024  0.09236876634859928  1.0000
  C   C15       1.0  0.35511662495472507  0.6130830379072376  0.5927491998298747  1.0000
  C   C16       1.0  0.7418804844470587  0.3869815703281175  0.9076308737816131  1.0000
  C   C17       1.0  0.5588320942946865  0.2733170712892488  0.46028337899044647  1.0000
  C   C18       1.0  0.2851708237994045  0.7266658213109947  0.03954352856720789  1.0000
  C   C19       1.0  0.44116524883738617  0.726685112311273  0.5397154902380449  1.0000
  C   C20       1.0  0.7148210001018069  0.2733335271341558  0.9604569031507493  1.0000
  C   C21       1.0  0.2278532180093009  0.20187428948146643  0.18367011258069246  1.0000
  C   C22       1.0  0.02573212495367034  0.7982436485850571  0.3163457730148166  1.0000
  C   C23       1.0  0.7721483811822197  0.7981241100710575  0.8163311047741784  1.0000
  C   C24       1.0  0.9742708930810763  0.20175758547969738  0.6836538816041866  1.0000
  C   C25       1.0  0.0456468530801786  0.0947063270075787  0.12222599032796205  1.0000
  C   C26       1.0  0.9509567423501866  0.9053221014805573  0.3778218421966883  1.0000
  C   C27       1.0  0.9543531634031839  0.9052930057346275  0.8777752342097002  1.0000
  C   C28       1.0  0.04904282303376559  0.09467633172885569  0.6221777903811443  1.0000
  N   N1        1.0  0.6456604082314925  0.1693508769658152  0.4308898890991272  1.0000
  N   N2        1.0  0.47574229711616306  0.8306760988702704  0.06914467469326267  1.0000
  N   N3        1.0  0.3543389687081487  0.8306512729778177  0.5691105649063954  1.0000
  N   N4        1.0  0.5242515769788696  0.1693232498964505  0.9308557571478884  1.0000
  O   O1        1.0  0.16526533738907287  0.010739971764564902  0.08983399933689638  1.0000
  O   O2        1.0  0.15474030862645094  0.9894543213547421  0.4100714848738106  1.0000
  O   O3        1.0  0.8347342198017532  0.9892584444556222  0.9101664255678513  1.0000
  O   O4        1.0  0.8452597078569112  0.0105450113874639  0.5899297396638515  1.0000
  O   O5        1.0  0.7841961895072983  0.09222988545814557  0.11272003567974308  1.0000
  O   O6        1.0  0.6919990118797373  0.9076854315305029  0.38743201565886654  1.0000
  O   O7        1.0  0.21580382697606373  0.9077694472840532  0.887281188857919  1.0000
  O   O8        1.0  0.30800307118369125  0.09231393551173991  0.6125676243481519  1.0000
  O   O9        1.0  0.09791749648785951  0.3036444133255287  0.20679222650666412  1.0000
  O   O10       1.0  0.7940152656661752  0.6963794622324144  0.2931749176331734  1.0000
  O   O11       1.0  0.9020845783824426  0.6963549367274807  0.7932082058272766  1.0000
  O   O12       1.0  0.20598269243023987  0.3036198531989882  0.7068270991082102  1.0000
