data_image0
_chemical_formula_structural       Cd4H44C32I8N4
_chemical_formula_sum              "Cd4 H44 C32 I8 N4"
_cell_length_a       7.641299724653886
_cell_length_b       8.049038120013174
_cell_length_c       19.24318839806066
_cell_angle_alpha    90.00012452617489
_cell_angle_beta     89.99974334607147
_cell_angle_gamma    89.66758263497272

_space_group_name_H-M_alt    "P 1"
_space_group_IT_number       1

loop_
  _space_group_symop_operation_xyz
  'x, y, z'

loop_
  _atom_site_type_symbol
  _atom_site_label
  _atom_site_symmetry_multiplicity
  _atom_site_fract_x
  _atom_site_fract_y
  _atom_site_fract_z
  _atom_site_occupancy
  Cd  Cd1       1.0  0.7579832222661269  0.9467107503909132  0.5328968669841812  1.0000
  Cd  Cd2       1.0  0.7420163849033373  0.053282496159646094  0.0329013916912047  1.0000
  Cd  Cd3       1.0  0.24200882683431502  0.05330065893474509  0.467105351423207  1.0000
  Cd  Cd4       1.0  0.25798481535627354  0.946684135124748  0.9671008266887213  1.0000
  H   H1        1.0  0.022003805321553195  0.0078399778339175  0.6604253631807353  1.0000
  H   H2        1.0  0.4779985299302539  0.9921691801208464  0.16042923535749046  1.0000
  H   H3        1.0  0.9779974046780995  0.9921713792369712  0.33957685521843917  1.0000
  H   H4        1.0  0.5219843555654081  0.007829857629985797  0.8395729830527612  1.0000
  H   H5        1.0  0.9434140346642934  0.054892501169483396  0.7454790719433859  1.0000
  H   H6        1.0  0.5565871096751279  0.9451217769453419  0.2454820979363744  1.0000
  H   H7        1.0  0.056584558206147106  0.9451201132143009  0.25452314645867347  1.0000
  H   H8        1.0  0.4433970869554357  0.05488843478715209  0.7545201204775224  1.0000
  H   H9        1.0  0.8207406994944009  0.11497429056417019  0.6706173929780306  1.0000
  H   H10       1.0  0.6792625955246122  0.8850358388650077  0.17062170691612266  1.0000
  H   H11       1.0  0.17925789284370103  0.8850358390493863  0.32938326642974397  1.0000
  H   H12       1.0  0.32071767093915327  0.11495575952231715  0.829382070486467  1.0000
  H   H13       1.0  0.8323113630733161  0.823563536484151  0.8055610218276854  1.0000
  H   H14       1.0  0.6676969557072782  0.17644481725078978  0.3055637068138708  1.0000
  H   H15       1.0  0.16769638988174046  0.17644529849742693  0.19444171622895817  1.0000
  H   H16       1.0  0.33229509179322037  0.8235591377656204  0.6944343542750885  1.0000
  H   H17       1.0  0.5381354755708118  0.466157691711487  0.8245205669122696  1.0000
  H   H18       1.0  0.9618739368248939  0.5338433051364716  0.3245256321648212  1.0000
  H   H19       1.0  0.46187227659597596  0.5338474161097222  0.17547801382755066  1.0000
  H   H20       1.0  0.03812857784262039  0.46614940871214816  0.6754719092455372  1.0000
  H   H21       1.0  0.6810188056393118  0.6023268662616202  0.8698045735341251  1.0000
  H   H22       1.0  0.8189914043123141  0.3976681616720724  0.36980613927593703  1.0000
  H   H23       1.0  0.31898763591028967  0.39766955235534585  0.1301981645183403  1.0000
  H   H24       1.0  0.18101241826389014  0.6023208175526447  0.63018776448083  1.0000
  H   H25       1.0  0.7631301208152481  0.4185234326673352  0.830297454455426  1.0000
  H   H26       1.0  0.7368831520940162  0.5814750889770647  0.3303040022699406  1.0000
  H   H27       1.0  0.23687501259020396  0.5814754781733242  0.1697026852772723  1.0000
  H   H28       1.0  0.26312067073520495  0.4185151326392286  0.669693019473776  1.0000
  H   H29       1.0  0.5783440133668307  0.4326196439082607  0.6908254163838876  1.0000
  H   H30       1.0  0.9216577454673927  0.5673906047514804  0.1908264250967022  1.0000
  H   H31       1.0  0.4216663561704763  0.5673854489973847  0.3091783609976133  1.0000
  H   H32       1.0  0.07834869532611322  0.4326020866893073  0.8091664393305178  1.0000
  H   H33       1.0  0.48591780407883084  0.6731589991635899  0.5486677676439411  1.0000
  H   H34       1.0  0.0140897159997451  0.3268520030028623  0.048669817439233  1.0000
  H   H35       1.0  0.514086023847085  0.3268548277504734  0.45133704907597405  1.0000
  H   H36       1.0  0.9859141073588874  0.6731407033851011  0.9513292829631578  1.0000
  H   H37       1.0  0.5353173115205223  0.4631764419173051  0.5708198872088701  1.0000
  H   H38       1.0  0.9646844899136441  0.5368343928162033  0.0708213123514909  1.0000
  H   H39       1.0  0.46467866340024955  0.5368337026348085  0.4291838901876729  1.0000
  H   H40       1.0  0.03531148043691701  0.46315463121123907  0.9291772683919319  1.0000
  H   H41       1.0  0.6912050920012972  0.5844383602794777  0.5250747820752649  1.0000
  H   H42       1.0  0.8088024586952116  0.4155697068016905  0.0250758617773528  1.0000
  H   H43       1.0  0.3087921902724275  0.41556556489000224  0.474927955988626  1.0000
  H   H44       1.0  0.19120398209244632  0.5844229846419678  0.9749180419786683  1.0000
  C   C1        1.0  0.8098613628478616  0.8543111002444376  0.6951152206902904  1.0000
  C   C2        1.0  0.6901429648086436  0.14569791483609149  0.19511835872946645  1.0000
  C   C3        1.0  0.1901411547694565  0.1456952798296526  0.304886997705573  1.0000
  C   C4        1.0  0.3098477729126685  0.8543010781120086  0.8048791826941295  1.0000
  C   C5        1.0  0.9040088626581949  0.016703842996918197  0.6931145875419773  1.0000
  C   C6        1.0  0.5959928706579233  0.9833076607160148  0.1931186153111426  1.0000
  C   C7        1.0  0.09599234734731249  0.9833075140710998  0.3068865915283964  1.0000
  C   C8        1.0  0.4039900151112192  0.016692619416339493  0.8068830834352382  1.0000
  C   C9        1.0  0.7854284478354574  0.7682664253586821  0.7573065625013128  1.0000
  C   C10       1.0  0.7145777973391532  0.23174416116665233  0.2573092113072235  1.0000
  C   C11       1.0  0.21458061300489115  0.23173867501049722  0.2426966952169565  1.0000
  C   C12       1.0  0.28541555778193134  0.7682548168515165  0.7426883301140207  1.0000
  C   C13       1.0  0.7007952929696231  0.6146636884479758  0.7579779784079291  1.0000
  C   C14       1.0  0.7992122525403147  0.38534316717432654  0.2579795688849558  1.0000
  C   C15       1.0  0.2992137681500608  0.3853426542998476  0.2420237203176682  1.0000
  C   C16       1.0  0.2007889539772094  0.6146520389008567  0.7420164135344363  1.0000
  C   C17       1.0  0.6690870894186389  0.5217155939883753  0.8241042226041627  1.0000
  C   C18       1.0  0.8309249453394402  0.47828662800736754  0.3241084347695987  1.0000
  C   C19       1.0  0.3309219706217378  0.4782857792261836  0.175896956454892  1.0000
  C   C20       1.0  0.16908018727188787  0.5217085556757937  0.6758885869750839  1.0000
  C   C21       1.0  0.64465706007541  0.5521203186024835  0.6939532686125743  1.0000
  C   C22       1.0  0.8553472801273757  0.44788620528216666  0.19395533226955305  1.0000
  C   C23       1.0  0.3553533092059666  0.4478835319130211  0.30604791044638086  1.0000
  C   C24       1.0  0.1446513081816221  0.5521052885726404  0.8060401304861811  1.0000
  C   C25       1.0  0.665200632254937  0.6447581547415308  0.633368215785211  1.0000
  C   C26       1.0  0.8348017739723516  0.355254260879313  0.13337023638288054  1.0000
  C   C27       1.0  0.33480712096774573  0.35525192262444705  0.3666350419363694  1.0000
  C   C28       1.0  0.1651928882369873  0.6447372553703941  0.866625226376371  1.0000
  C   C29       1.0  0.5905913239505054  0.5878499899783732  0.5659225741651994  1.0000
  C   C30       1.0  0.9094118407797395  0.41215832543474545  0.06592347107115869  1.0000
  C   C31       1.0  0.40940988469636613  0.41215515517772855  0.4340796442313035  1.0000
  C   C32       1.0  0.0905880567731856  0.587835645719572  0.9340714720200721  1.0000
  I   I1        1.0  0.5771020927157693  0.8941245766601181  0.4043569767400469  1.0000
  I   I2        1.0  0.9228998760302504  0.10587068718604088  0.9043607869723544  1.0000
  I   I3        1.0  0.4228991162162857  0.10588181087175737  0.5956426433349831  1.0000
  I   I4        1.0  0.0771013290818345  0.8941183070002195  0.09564454940361597  1.0000
  I   I5        1.0  0.9278630907743092  0.2548466925066179  0.5132229622454786  1.0000
  I   I6        1.0  0.5721315033865579  0.7451477174515798  0.0132221505664702  1.0000
  I   I7        1.0  0.072127650196613  0.7451672090355428  0.48677405952012964  1.0000
  I   I8        1.0  0.4278710055963373  0.2548189063563483  0.9867759104970659  1.0000
  N   N1        1.0  0.7475686446332831  0.7934042788548794  0.6343763551173962  1.0000
  N   N2        1.0  0.7524337494325195  0.20660441519336806  0.134378394930593  1.0000
  N   N3        1.0  0.25243779962188745  0.20660456359166798  0.36562638294042665  1.0000
  N   N4        1.0  0.24755698721534  0.7933896082185895  0.8656175874976453  1.0000
