data_image0
_chemical_formula_structural       Cd4H24C20Br4O28
_chemical_formula_sum              "Cd4 H24 C20 Br4 O28"
_cell_length_a       6.341235612256795
_cell_length_b       9.076619218791297
_cell_length_c       16.26746526997527
_cell_angle_alpha    100.65060594014429
_cell_angle_beta     89.99927954363386
_cell_angle_gamma    90.00191885923533

_space_group_name_H-M_alt    "P 1"
_space_group_IT_number       1

loop_
  _space_group_symop_operation_xyz
  'x, y, z'

loop_
  _atom_site_type_symbol
  _atom_site_label
  _atom_site_symmetry_multiplicity
  _atom_site_fract_x
  _atom_site_fract_y
  _atom_site_fract_z
  _atom_site_occupancy
  Cd  Cd1       1.0  0.30526282022951534  0.46192230132456297  0.3225453347240333  1.0000
  Cd  Cd2       1.0  0.805273101189016  0.0380697034251938  0.1774496926877518  1.0000
  Cd  Cd3       1.0  0.6947299662218852  0.5380698421121723  0.6774560522325219  1.0000
  Cd  Cd4       1.0  0.19476541883170032  0.9619435101112899  0.8225450924697955  1.0000
  H   H1        1.0  0.40946207709864507  0.7476957798400292  0.4123687209699299  1.0000
  H   H2        1.0  0.9094748900823646  0.752295912061584  0.08762450553707175  1.0000
  H   H3        1.0  0.5905496320872743  0.252279500867168  0.587629216430493  1.0000
  H   H4        1.0  0.0904847808979881  0.24771718848226953  0.9123659658700449  1.0000
  H   H5        1.0  0.40711675907299844  0.6476696630622175  0.4813237145742094  1.0000
  H   H6        1.0  0.9071413100329194  0.8523344753848789  0.018673801621666503  1.0000
  H   H7        1.0  0.5928760271863284  0.35231913381961993  0.5186779686314722  1.0000
  H   H8        1.0  0.0928262470680536  0.1476988504682382  0.9813204392282772  1.0000
  H   H9        1.0  0.6971648346545862  0.4867833854281896  0.2337556828378098  1.0000
  H   H10       1.0  0.1971923980690988  0.0132103112094271  0.2662433985646615  1.0000
  H   H11       1.0  0.30284372090008566  0.5131965088240024  0.7662476120267743  1.0000
  H   H12       1.0  0.8028224660830148  0.9867817996079967  0.7337567555639666  1.0000
  H   H13       1.0  0.663606235601577  0.6587575697178137  0.2819834638779214  1.0000
  H   H14       1.0  0.1636000672205853  0.8412324293056558  0.21802085512570105  1.0000
  H   H15       1.0  0.33639285776971656  0.3412177597640635  0.7180163226137282  1.0000
  H   H16       1.0  0.8363958730397483  0.15875547379738464  0.7819893500219806  1.0000
  H   H17       1.0  0.8498344357814389  0.4764468484928203  0.3447034610648175  1.0000
  H   H18       1.0  0.34981503216071996  0.023531034453924307  0.15528963113226982  1.0000
  H   H19       1.0  0.15018042806084247  0.5235397063685455  0.6552980085894762  1.0000
  H   H20       1.0  0.6502045624054844  0.9764521251371931  0.8447102857378681  1.0000
  H   H21       1.0  0.9188510830057625  0.3144273354758766  0.3560301286256832  1.0000
  H   H22       1.0  0.41888819122272025  0.18554380619847427  0.1439577173037137  1.0000
  H   H23       1.0  0.08115431889635971  0.6855590896440733  0.6439664104354395  1.0000
  H   H24       1.0  0.5811282495172351  0.8144415952707009  0.8560424129787451  1.0000
  C   C1        1.0  0.6970580782546916  0.9889237232629218  0.3366236400106787  1.0000
  C   C2        1.0  0.1970689373139578  0.5110837880762987  0.16338497598165705  1.0000
  C   C3        1.0  0.30292682346698285  0.011071718108326  0.6633756017561723  1.0000
  C   C4        1.0  0.8029175432735798  0.48894112192079586  0.8366293664891843  1.0000
  C   C5        1.0  0.6049149482832021  0.9962030616154822  0.4227831577974826  1.0000
  C   C6        1.0  0.10488994560784448  0.5037991276133128  0.07722678891127543  1.0000
  C   C7        1.0  0.3950983380476032  0.0037715849500373016  0.5772331628819459  1.0000
  C   C8        1.0  0.8950918043676666  0.49623333683108234  0.9227772064652202  1.0000
  C   C9        1.0  0.6741034608386443  0.9064129317010701  0.4786204181214516  1.0000
  C   C10       1.0  0.1741034835020159  0.5936184809339479  0.02139139224826181  1.0000
  C   C11       1.0  0.32587671187235395  0.09361599148135721  0.5213764775216987  1.0000
  C   C12       1.0  0.8258956134667841  0.4064144377240951  0.9786298603202469  1.0000
  C   C13       1.0  0.4327903095793033  0.0924781523607052  0.44586859436374493  1.0000
  C   C14       1.0  0.9327653126417843  0.4075375034654841  0.05411900060111212  1.0000
  C   C15       1.0  0.5672450544394466  0.9075033020277419  0.5541090277137429  1.0000
  C   C16       1.0  0.0672227460846102  0.5925104429661517  0.9458784761261045  1.0000
  C   C17       1.0  0.38294819895545373  0.2087489992731619  0.3942110656341456  1.0000
  C   C18       1.0  0.8829044572311203  0.2912677152321024  0.10578897235429001  1.0000
  C   C19       1.0  0.6170698196782637  0.7912530375991695  0.6057838853940397  1.0000
  C   C20       1.0  0.1170867540233331  0.7087546607966502  0.8942140627015507  1.0000
  Br  Br1       1.0  0.9229280644262727  0.7902556071088258  0.4561193691307538  1.0000
  Br  Br2       1.0  0.42291533118218894  0.7097395533788956  0.04388569005327271  1.0000
  Br  Br3       1.0  0.0770804908417446  0.20971877986703905  0.543887090258025  1.0000
  Br  Br4       1.0  0.5770711507624143  0.29030978984359734  0.9561223710383618  1.0000
  O   O1        1.0  0.6777182596383253  0.8682499437527937  0.28383789419259403  1.0000
  O   O2        1.0  0.1777396355363621  0.6317508409725577  0.21615927181381525  1.0000
  O   O3        1.0  0.32226664037384717  0.1317193430824801  0.7161447179438556  1.0000
  O   O4        1.0  0.8222326519749641  0.36826960164928835  0.7838552603158888  1.0000
  O   O5        1.0  0.7748005498475621  0.10959592808711702  0.3193817733634959  1.0000
  O   O6        1.0  0.2747614524696615  0.3904311382609579  0.18061146267106662  1.0000
  O   O7        1.0  0.22522850823006726  0.8904181305959044  0.6806026408998921  1.0000
  O   O8        1.0  0.7252029504962889  0.6095959326237194  0.8194000116869733  1.0000
  O   O9        1.0  0.33292820326157363  0.665227812071926  0.429545768268092  1.0000
  O   O10       1.0  0.8329502661273552  0.8347718222318933  0.07045168853779422  1.0000
  O   O11       1.0  0.6670708911955783  0.33476647581218805  0.5704521340342128  1.0000
  O   O12       1.0  0.167017290753563  0.1652571172720556  0.9295458235309086  1.0000
  O   O13       1.0  0.2856301338877785  0.17632491215640306  0.3256892249303364  1.0000
  O   O14       1.0  0.7856074538275665  0.3236862980788899  0.17430235809015934  1.0000
  O   O15       1.0  0.7143705372952238  0.8236658993483132  0.6743040429467941  1.0000
  O   O16       1.0  0.2143995256536897  0.6763102153736186  0.8256951412104956  1.0000
  O   O17       1.0  0.6514431303917689  0.552110219700353  0.2871141938088969  1.0000
  O   O18       1.0  0.1514335291393465  0.9478788090500245  0.21288896462876752  1.0000
  O   O19       1.0  0.3485701562507373  0.4478719488237105  0.7128905470757447  1.0000
  O   O20       1.0  0.848581334295602  0.05210100402180732  0.7871112485252713  1.0000
  O   O21       1.0  0.4491152737761225  0.34082080742620496  0.4247108498831481  1.0000
  O   O22       1.0  0.9490790965337013  0.15917029934485072  0.0752877172671731  1.0000
  O   O23       1.0  0.5508964351452691  0.659151955574835  0.5752763964698745  1.0000
  O   O24       1.0  0.050938921748631606  0.8408270753264874  0.9247000273215067  1.0000
  O   O25       1.0  0.9645250922280296  0.4196103834888732  0.36638402848811324  1.0000
  O   O26       1.0  0.46452919191433045  0.08034008897001853  0.13360862187506237  1.0000
  O   O27       1.0  0.03547873210853679  0.5803640197491762  0.6336230472682659  1.0000
  O   O28       1.0  0.5354856717329426  0.9196440942243956  0.8663877037273837  1.0000
