data_image0
_chemical_formula_structural       Cd2H40C40N8O8
_chemical_formula_sum              "Cd2 H40 C40 N8 O8"
_cell_length_a       8.384805594140781
_cell_length_b       8.871108556595575
_cell_length_c       14.807914683963146
_cell_angle_alpha    82.81093503404733
_cell_angle_beta     77.38768774171177
_cell_angle_gamma    68.85225949818785

_space_group_name_H-M_alt    "P 1"
_space_group_IT_number       1

loop_
  _space_group_symop_operation_xyz
  'x, y, z'

loop_
  _atom_site_type_symbol
  _atom_site_label
  _atom_site_symmetry_multiplicity
  _atom_site_fract_x
  _atom_site_fract_y
  _atom_site_fract_z
  _atom_site_occupancy
  Cd  Cd1       1.0  0.00166655949360003  0.9443196476550711  0.24466575804857632  1.0000
  Cd  Cd2       1.0  0.9983333760483649  0.055682628110488984  0.7553340978301719  1.0000
  H   H1        1.0  0.5346393212461675  0.9690970705043541  0.19583191221654062  1.0000
  H   H2        1.0  0.4653610609675027  0.030903993046088405  0.8041686535179338  1.0000
  H   H3        1.0  0.05806909469513497  0.3539827113833383  0.28774934065555874  1.0000
  H   H4        1.0  0.9419304849606718  0.6460171568076661  0.7122507433548578  1.0000
  H   H5        1.0  0.10817164578938325  0.5143342618803358  0.1407478898644428  1.0000
  H   H6        1.0  0.8918279338664306  0.4856656063106683  0.8592521941459738  1.0000
  H   H7        1.0  0.3683666287491859  0.4015161366772163  0.02014168422799399  1.0000
  H   H8        1.0  0.6316329284066313  0.5984837356310493  0.9798570516782591  1.0000
  H   H9        1.0  0.9931338066195111  0.829525738536553  0.950871580938717  1.0000
  H   H10       1.0  0.006864981728440985  0.170472932236386  0.0491286953997161  1.0000
  H   H11       1.0  0.6039843821402328  0.2719353149156376  0.9003622418476597  1.0000
  H   H12       1.0  0.3960119302485835  0.7280633854513994  0.09963699943536851  1.0000
  H   H13       1.0  0.09959382874733783  0.7916754321163424  0.4568921294056523  1.0000
  H   H14       1.0  0.9004035625499396  0.20833048891572759  0.54310710153446  1.0000
  H   H15       1.0  0.3982658916513912  0.09494291701923173  0.43958687701486815  1.0000
  H   H16       1.0  0.6017320258531454  0.9050581740666814  0.560413327716283  1.0000
  H   H17       1.0  0.5569307852678804  0.7522699607102368  0.308246446726109  1.0000
  H   H18       1.0  0.4430753634574741  0.24772863363219247  0.6917528904660629  1.0000
  H   H19       1.0  0.8097875470148632  0.4891742500744698  0.1790899705019839  1.0000
  H   H20       1.0  0.19021325937051603  0.5108256053781162  0.8209099569840534  1.0000
  H   H21       1.0  0.6649467073122394  0.6777966710400491  0.14599979511650923  1.0000
  H   H22       1.0  0.33505656378227394  0.3222031568770731  0.8540004933728583  1.0000
  H   H23       1.0  0.4112979158186077  0.600011759599063  0.22741649305314846  1.0000
  H   H24       1.0  0.5887045069324869  0.3999904845137721  0.7725850719331009  1.0000
  H   H25       1.0  0.5511347983871032  0.4502158503305438  0.14914480233451147  1.0000
  H   H26       1.0  0.4488655838265672  0.5497852132198986  0.8508557633999629  1.0000
  H   H27       1.0  0.4383848371169774  0.33953332976074085  0.3038538952214793  1.0000
  H   H28       1.0  0.5616134475237115  0.6604701668410939  0.6961467554300854  1.0000
  H   H29       1.0  0.41665532927462584  0.5518974307158473  0.39966095208162505  1.0000
  H   H30       1.0  0.5833475063981766  0.4481036073577655  0.600339300604098  1.0000
  H   H31       1.0  0.5508300807847561  0.36498144082978007  0.4421620908499762  1.0000
  H   H32       1.0  0.4491690746993483  0.6350196354590807  0.5578386314088775  1.0000
  H   H33       1.0  0.6826824421176096  0.5804689159923982  0.43690630111854745  1.0000
  H   H34       1.0  0.3173216998203187  0.41952849161175004  0.563094058978109  1.0000
  H   H35       1.0  0.8164730168160687  0.4268013142370535  0.3619713546000014  1.0000
  H   H36       1.0  0.18352741118315663  0.573196137758245  0.6380274529135406  1.0000
  H   H37       1.0  0.7729905549180669  0.895402737147826  0.10247264145311868  1.0000
  H   H38       1.0  0.22700779800817364  0.10459714378160362  0.89752759908167  1.0000
  H   H39       1.0  0.27017139983923477  0.8969223875032385  0.5452460911758195  1.0000
  H   H40       1.0  0.7298265176653016  0.10307870358267479  0.4547541135553246  1.0000
  C   C1        1.0  0.47077265582724676  0.17607411945211737  0.0988195478460696  1.0000
  C   C2        1.0  0.5292273592502708  0.8239245385824032  0.9011805719679842  1.0000
  C   C3        1.0  0.4410655227873548  0.0879402422334437  0.18247572905441703  1.0000
  C   C4        1.0  0.5589340681184535  0.9120596238989266  0.8175250290080811  1.0000
  C   C5        1.0  0.2925268208100177  0.1496630979354165  0.2501396448954766  1.0000
  C   C6        1.0  0.707472323424092  0.8503379804120783  0.7498604033112954  1.0000
  C   C7        1.0  0.17248280720748  0.3039333029740732  0.23469795660492568  1.0000
  C   C8        1.0  0.8275175412561991  0.6960677667522646  0.7653005869733037  1.0000
  C   C9        1.0  0.20085594634699075  0.3935192846965734  0.15196608255740782  1.0000
  C   C10       1.0  0.7991448487883871  0.6064805728146467  0.8480331708765477  1.0000
  C   C11       1.0  0.34763329916229674  0.3300735724349124  0.0843123976519777  1.0000
  C   C12       1.0  0.652368733952649  0.6699262702792552  0.9156873733096873  1.0000
  C   C13       1.0  0.8748154756441338  0.9342988000593377  0.9611690846300364  1.0000
  C   C14       1.0  0.1251837368755204  0.0656986626157448  0.0388305534599596  1.0000
  C   C15       1.0  0.6719087282489439  0.1634292580283727  0.9380474916730392  1.0000
  C   C16       1.0  0.3280875841398725  0.8365694423386643  0.06195174960998879  1.0000
  C   C17       1.0  0.6241834469572466  0.10907354636810848  0.028237500137954882  1.0000
  C   C18       1.0  0.37581410341113747  0.8909251392018761  0.9717622586727758  1.0000
  C   C19       1.0  0.16670790445655823  0.8763617003412351  0.4288217389035083  1.0000
  C   C20       1.0  0.8332908726413918  0.12363697249033836  0.5711778633828432  1.0000
  C   C21       1.0  0.32027083886982405  0.0364227501077323  0.4182422231817143  1.0000
  C   C22       1.0  0.6797278811925692  0.9635795363376192  0.5817584632734949  1.0000
  C   C23       1.0  0.2633361047318985  0.0502714015579642  0.33593263362652703  1.0000
  C   C24       1.0  0.7366630507522057  0.9497296747308965  0.6640680886323268  1.0000
  C   C25       1.0  0.6816234506874681  0.6506285634374507  0.2916837064190787  1.0000
  C   C26       1.0  0.31838069125046076  0.3493688441666976  0.7083166536775778  1.0000
  C   C27       1.0  0.6820712478067747  0.5817551737400564  0.20140150999282014  1.0000
  C   C28       1.0  0.3179295810786015  0.4182446775952684  0.7985997655973804  1.0000
  C   C29       1.0  0.5413267370353906  0.5057661118311998  0.21326521714365745  1.0000
  C   C30       1.0  0.45867408059998366  0.4942337415627592  0.7867353843944614  1.0000
  C   C31       1.0  0.5513285287881828  0.3795883699309074  0.2943005248685396  1.0000
  C   C32       1.0  0.4486706154459198  0.6204127084165805  0.7056995233382326  1.0000
  C   C33       1.0  0.5441084685311779  0.45496999631992463  0.3837629440088861  1.0000
  C   C34       1.0  0.45589154654634  0.5450286617145963  0.6162371758051678  1.0000
  C   C35       1.0  0.6893063256971175  0.5253107634306887  0.37324667934774425  1.0000
  C   C36       1.0  0.3106949273599682  0.47468787980677957  0.6267539579940192  1.0000
  C   C37       1.0  0.8205985165521807  0.7281850211856806  0.2795853158694542  1.0000
  C   C38       1.0  0.17940686336531522  0.2718123716214222  0.720415561754912  1.0000
  C   C39       1.0  0.7100018650554603  0.22589736505819502  0.2761748260573214  1.0000
  C   C40       1.0  0.28999986842332237  0.7741000597882673  0.7238285432964204  1.0000
  N   N1        1.0  0.7556401376481646  0.9632938668230792  0.040403042157592474  1.0000
  N   N2        1.0  0.24435987742935336  0.0367047912114415  0.9595970776564685  1.0000
  N   N3        1.0  0.8272648185920345  0.05387694481213149  0.8973984471456904  1.0000
  N   N4        1.0  0.17273150504677648  0.9461217534962786  0.1026014681894125  1.0000
  N   N5        1.0  0.167436457381825  0.948312702131851  0.3439436331755701  1.0000
  N   N6        1.0  0.832564671139707  0.051689567071179  0.6560540440225607  1.0000
  N   N7        1.0  0.25849349526035326  0.9267371659994339  0.47532506912477857  1.0000
  N   N8        1.0  0.7415056602237513  0.0732639102894268  0.524675653134075  1.0000
  O   O1        1.0  0.901511319270227  0.7209732635340342  0.34304417953325134  1.0000
  O   O2        1.0  0.09849281141769947  0.2790241461287409  0.6569555065113235  1.0000
  O   O3        1.0  0.8472199699106183  0.8074763690679134  0.20115072250591476  1.0000
  O   O4        1.0  0.15278208570432378  0.19252346952899302  0.7988503965599065  1.0000
  O   O5        1.0  0.8075069556953308  0.2038334161555468  0.19693247854146284  1.0000
  O   O6        1.0  0.19249262396048286  0.7961664520354574  0.8030676054689537  1.0000
  O   O7        1.0  0.7401674473112294  0.11837481457328643  0.3431438866342802  1.0000
  O   O8        1.0  0.25983047019330746  0.8816262765126197  0.6568563180968638  1.0000
