data_image0
_chemical_formula_structural       Cd2H44C50N8O14
_chemical_formula_sum              "Cd2 H44 C50 N8 O14"
_cell_length_a       10.324326387470077
_cell_length_b       10.96424145167306
_cell_length_c       14.032160000370098
_cell_angle_alpha    89.23319297745907
_cell_angle_beta     72.4790779236666
_cell_angle_gamma    75.55638461789496

_space_group_name_H-M_alt    "P 1"
_space_group_IT_number       1

loop_
  _space_group_symop_operation_xyz
  'x, y, z'

loop_
  _atom_site_type_symbol
  _atom_site_label
  _atom_site_symmetry_multiplicity
  _atom_site_fract_x
  _atom_site_fract_y
  _atom_site_fract_z
  _atom_site_occupancy
  Cd  Cd1       1.0  0.8945959434356254  0.3605204563417104  0.7386902832853508  1.0000
  Cd  Cd2       1.0  0.10540319770135648  0.6394783935162281  0.26130919427998833  1.0000
  H   H1        1.0  0.26785858337412805  0.6834755411823963  0.5441049758207229  1.0000
  H   H2        1.0  0.7321407443915364  0.3165261548223058  0.4558965608352992  1.0000
  H   H3        1.0  0.027337953937966106  0.5408095774141729  0.610493279401183  1.0000
  H   H4        1.0  0.9726619864210664  0.4591901782894895  0.38950102350833754  1.0000
  H   H5        1.0  0.7043445838690945  0.648456290610504  0.5219745752057962  1.0000
  H   H6        1.0  0.2956552517292081  0.35154727089731364  0.4780239752245237  1.0000
  H   H7        1.0  0.583306110175606  0.6317957971888006  0.2570214444197916  1.0000
  H   H8        1.0  0.4166907297826654  0.3682039992790607  0.7429785206513986  1.0000
  H   H9        1.0  0.4176098956644693  0.9369964824891567  0.6734550210151512  1.0000
  H   H10       1.0  0.58238840111882  0.06300522535475751  0.3265481649542394  1.0000
  H   H11       1.0  0.4789090281349998  0.7011760057594574  0.778761031644706  1.0000
  H   H12       1.0  0.5210936992843003  0.2988209522247515  0.22123769177915167  1.0000
  H   H13       1.0  0.6132836850204343  0.6024089780209964  0.6817862119119765  1.0000
  H   H14       1.0  0.3867182502206248  0.3975908012232665  0.3182112203649369  1.0000
  H   H15       1.0  0.8522543725712594  0.8904744638648269  0.41362733226552717  1.0000
  H   H16       1.0  0.14774619516636991  0.10953005070774681  0.5863724715031112  1.0000
  H   H17       1.0  0.9306994481605173  0.8671458974219775  0.6105885960632734  1.0000
  H   H18       1.0  0.06929887098367972  0.13285579468225717  0.3894124472414049  1.0000
  H   H19       1.0  0.05330578352577932  0.3176594021401939  0.9181816465807985  1.0000
  H   H20       1.0  0.9466949415578583  0.6823375375499624  0.08181466169723008  1.0000
  H   H21       1.0  0.9927397252251994  0.26125596981023597  0.2481739718106653  1.0000
  H   H22       1.0  0.00726219510858779  0.7387438199271442  0.7518248889093969  1.0000
  H   H23       1.0  0.8152652240538742  0.3091242655993796  0.2501985211178522  1.0000
  H   H24       1.0  0.1847369802156962  0.690874569727157  0.7497988653936645  1.0000
  H   H25       1.0  0.6220248406702211  0.47252245156967376  0.9624260942906845  1.0000
  H   H26       1.0  0.37797524904931384  0.5274801765135351  0.03757383881737303  1.0000
  H   H27       1.0  0.7738368571606385  0.13030674024470565  0.346805094756867  1.0000
  H   H28       1.0  0.22616602666297334  0.8696968172248275  0.6531927930627717  1.0000
  H   H29       1.0  0.11330230722229828  0.8996964517143482  0.11932368650212773  1.0000
  H   H30       1.0  0.8866981115646554  0.1003014581263315  0.8806762386491516  1.0000
  H   H31       1.0  0.9419075582308379  0.4642437303522228  0.1676297210013972  1.0000
  H   H32       1.0  0.05809179189573397  0.5357579499127995  0.8323696729899198  1.0000
  H   H33       1.0  0.07457505420487105  0.34473098205874214  0.08426155144614711  1.0000
  H   H34       1.0  0.925425850053813  0.655268809024733  0.9157375301441348  1.0000
  H   H35       1.0  0.526679635850627  0.1148508283914822  0.6291337648685483  1.0000
  H   H36       1.0  0.4733186460253905  0.8851508899455498  0.37087084954397653  1.0000
  H   H37       1.0  0.7849388424476446  0.08153547285181868  0.5976453831742747  1.0000
  H   H38       1.0  0.2150584233532698  0.9184662468313078  0.40235945210848467  1.0000
  H   H39       1.0  0.042495197747967915  0.1224682379218009  0.0866121381431668  1.0000
  H   H40       1.0  0.9575077386609224  0.8775315504694845  0.9133865017066612  1.0000
  H   H41       1.0  0.8574590836630096  0.15399530759973604  0.11320473740990886  1.0000
  H   H42       1.0  0.14254312060655383  0.8460035277268008  0.8867926491016078  1.0000
  H   H43       1.0  0.672061794440694  0.480447515493104  0.1468613787875698  1.0000
  H   H44       1.0  0.32794236703288954  0.5195551019591704  0.8531369566180089  1.0000
  C   C1        1.0  0.4798356962615244  0.6736208470312945  0.5467559349919997  1.0000
  C   C2        1.0  0.5201636538650475  0.32638083323372774  0.4532434589993173  1.0000
  C   C3        1.0  0.4163899465245963  0.652214754377077  0.39614076330538234  1.0000
  C   C4        1.0  0.5836066169515349  0.3477859912550656  0.6038599617527822  1.0000
  C   C5        1.0  0.37770245990388673  0.6714694677115388  0.500357035686072  1.0000
  C   C6        1.0  0.6222971517975536  0.3285312738823123  0.49964302676140454  1.0000
  C   C7        1.0  0.6579060392874042  0.6369538035070477  0.38471833423479035  1.0000
  C   C8        1.0  0.34209282536743757  0.3630459955151792  0.6152819033175164  1.0000
  C   C9        1.0  0.8447727404441493  0.6592972783750924  0.6684569785485691  1.0000
  C   C10       1.0  0.1552261767959706  0.3406987515688797  0.3315440110339267  1.0000
  C   C11       1.0  0.6210635793530416  0.6514075243225791  0.4891669170477187  1.0000
  C   C12       1.0  0.3789357707735306  0.3485941559424434  0.5108324769435983  1.0000
  C   C13       1.0  0.7547554089824898  0.7839753452411743  0.6560717882793697  1.0000
  C   C14       1.0  0.24524575685106242  0.21602350717112986  0.34392796176708623  1.0000
  C   C15       1.0  0.5558286167220388  0.6385855545887865  0.3381914688527914  1.0000
  C   C16       1.0  0.4441682083289607  0.3614142523721852  0.6618099246615401  1.0000
  C   C17       1.0  0.308584447286087  0.648337111236515  0.34541445630588186  1.0000
  C   C18       1.0  0.6914105471506602  0.35166553407029266  0.654588009596445  1.0000
  C   C19       1.0  0.6088330351913882  0.8020882474610362  0.6738663062296126  1.0000
  C   C20       1.0  0.3911668678994644  0.19791153447541623  0.32613156778776203  1.0000
  C   C21       1.0  0.5296883780731322  0.9220100017239687  0.6625788649867559  1.0000
  C   C22       1.0  0.4703117642316813  0.07798885728099245  0.33742182015149064  1.0000
  C   C23       1.0  0.5375551772994883  0.6951118716832382  0.6986112537852167  1.0000
  C   C24       1.0  0.46244625756256863  0.3048860368113467  0.3013884504958355  1.0000
  C   C25       1.0  0.8948649577895581  0.9277023918414145  0.3422925318649063  1.0000
  C   C26       1.0  0.1051361405514442  0.07230024014226191  0.6577078945944949  1.0000
  C   C27       1.0  0.8058523321079036  0.6274093083732881  0.32177933604302217  1.0000
  C   C28       1.0  0.1941462560647977  0.37259143981322057  0.6782216614962592  1.0000
  C   C29       1.0  0.8172631946739699  0.8842103767596469  0.6269180344523093  1.0000
  C   C30       1.0  0.18273665624143123  0.11578944190272013  0.3730848391160535  1.0000
  C   C31       1.0  0.942011548441414  0.35741374229706213  0.955202903212026  1.0000
  C   C32       1.0  0.05798962484577432  0.6425851048686867  0.0447961326128521  1.0000
  C   C33       1.0  0.9238215891430386  0.27441886159994056  0.2006301538132931  1.0000
  C   C34       1.0  0.07617984571901806  0.7255790468946446  0.7993695504677591  1.0000
  C   C35       1.0  0.7186483938518793  0.43994093425705944  0.9814487130332097  1.0000
  C   C36       1.0  0.28135144920005933  0.5600626220042031  0.018549123175539316  1.0000
  C   C37       1.0  0.8550403710567027  0.046709055167610807  0.31075625400531953  1.0000
  C   C38       1.0  0.14496100376643994  0.9532926276517769  0.6892434124671141  1.0000
  C   C39       1.0  0.031927316258318704  0.9276107829470915  0.19079673004946332  1.0000
  C   C40       1.0  0.9680733115182251  0.0723899573006719  0.8092031115277933  1.0000
  C   C41       1.0  0.9623882623722936  0.3730378131639256  0.12734673320422735  1.0000
  C   C42       1.0  0.037612634432754484  0.626961983166112  0.8726530626076255  1.0000
  C   C43       1.0  0.5914854191194509  0.0221597129472642  0.63614663566635  1.0000
  C   C44       1.0  0.4085128702102024  0.9778420001432125  0.36385726452460443  1.0000
  C   C45       1.0  0.7359086943215587  0.0036403360940581997  0.6184404686734267  1.0000
  C   C46       1.0  0.26408857893299154  0.996361378342506  0.3815636523877616  1.0000
  C   C47       1.0  0.9418349438915571  0.1481366953893541  0.14725885761359342  1.0000
  C   C48       1.0  0.058167514499245926  0.8518612065125739  0.852739911575661  1.0000
  C   C49       1.0  0.7419530106726596  0.44410807082370246  0.07283862359232535  1.0000
  C   C50       1.0  0.25804938767922175  0.5558936054030356  0.9271601077883105  1.0000
  N   N1        1.0  0.8441275891048649  0.38599648252727564  0.9089341858627265  1.0000
  N   N2        1.0  0.1558725830144994  0.6140023554914509  0.091063642389237  1.0000
  N   N3        1.0  0.004930966196546563  0.8547566064816652  0.26675581634283674  1.0000
  N   N4        1.0  0.9950696541263613  0.1452441390126538  0.7332447394559835  1.0000
  N   N5        1.0  0.8845285188819504  0.3914722379922467  0.05449014629146385  1.0000
  N   N6        1.0  0.11547393950884552  0.6085256639096813  0.9455086228977905  1.0000
  N   N7        1.0  0.943236717369125  0.045072069095404316  0.21416391344467903  1.0000
  N   N8        1.0  0.05676621903976554  0.954927719295881  0.785834726405156  1.0000
  O   O1        1.0  0.4324114317612668  0.6994635755351197  0.6490340975769229  1.0000
  O   O2        1.0  0.5675879034580334  0.30053811522302704  0.3509667248575355  1.0000
  O   O3        1.0  0.8031164915169952  0.5934685236546217  0.7383989922164815  1.0000
  O   O4        1.0  0.19688315786245175  0.40652845935409954  0.26160325070432583  1.0000
  O   O5        1.0  0.3482611570761733  0.6291029559596523  0.25025115397514963  1.0000
  O   O6        1.0  0.6517366840499291  0.37089684965523173  0.749750018668955  1.0000
  O   O7        1.0  0.9703590773984202  0.6284949263682266  0.6004206953404462  1.0000
  O   O8        1.0  0.029637037874159885  0.3715039117883165  0.39957730217085446  1.0000
  O   O9        1.0  0.9035421586667665  0.5954214664952816  0.36517641551927943  1.0000
  O   O10       1.0  0.09645672834898276  0.40457831678726563  0.634821679368315  1.0000
  O   O11       1.0  0.8299215769540781  0.6529089078248093  0.2317907917952268  1.0000
  O   O12       1.0  0.17007884928651162  0.3470889967693083  0.7682084191344815  1.0000
  O   O13       1.0  0.18134471930342508  0.6631537294940557  0.4001270639349173  1.0000
  O   O14       1.0  0.8186503877575151  0.3368413724096939  0.5998761918062242  1.0000
