data_image0
_chemical_formula_structural       Zn8H28C44N4O28
_chemical_formula_sum              "Zn8 H28 C44 N4 O28"
_cell_length_a       10.363095553051231
_cell_length_b       13.183428143965864
_cell_length_c       19.759975313759668
_cell_angle_alpha    90.0060428686586
_cell_angle_beta     89.7204156989795
_cell_angle_gamma    90.001805978342

_space_group_name_H-M_alt    "P 1"
_space_group_IT_number       1

loop_
  _space_group_symop_operation_xyz
  'x, y, z'

loop_
  _atom_site_type_symbol
  _atom_site_label
  _atom_site_symmetry_multiplicity
  _atom_site_fract_x
  _atom_site_fract_y
  _atom_site_fract_z
  _atom_site_occupancy
  Zn  Zn1       1.0  0.1653002556101413  0.40819606000523834  0.7278361079929352  1.0000
  Zn  Zn2       1.0  0.8347417067924923  0.9082730331530157  0.2721399102577138  1.0000
  Zn  Zn3       1.0  0.47408996642451473  0.4963305349251427  0.7305795157417945  1.0000
  Zn  Zn4       1.0  0.5259003190179072  0.9963408317225272  0.2694123732516118  1.0000
  Zn  Zn5       1.0  0.6647117715037679  0.2920851412606708  0.772605321688651  1.0000
  Zn  Zn6       1.0  0.33530983388300223  0.7920081304425325  0.22743184847742975  1.0000
  Zn  Zn7       1.0  0.9737651960948452  0.20419201663543157  0.7683660516738299  1.0000
  Zn  Zn8       1.0  0.02622219636501201  0.7041510634106698  0.23165786097015223  1.0000
  H   H1        1.0  0.25906623638444864  0.14346421663446304  0.7962916736672553  1.0000
  H   H2        1.0  0.7409834874958392  0.6434802422703143  0.203725884128417  1.0000
  H   H3        1.0  0.1294275274981374  0.9347643222612233  0.6708619767851898  1.0000
  H   H4        1.0  0.87034765957641  0.43461512743029107  0.32904374657168484  1.0000
  H   H5        1.0  0.13703586314861838  0.07736050822949643  0.6585074025249894  1.0000
  H   H6        1.0  0.8628771880475625  0.5772261138730242  0.34150508708390953  1.0000
  H   H7        1.0  0.7603949549971247  0.5559955362581376  0.7029900277143  1.0000
  H   H8        1.0  0.23966023961790475  0.05598532380312799  0.2969980749522279  1.0000
  H   H9        1.0  0.6259625234162838  0.7758473900959472  0.8123987938142959  1.0000
  H   H10       1.0  0.37405595855645396  0.2756807387415776  0.18742670234765765  1.0000
  H   H11       1.0  0.6286993314512728  0.6359872804764135  0.8353574772546322  1.0000
  H   H12       1.0  0.3712769888418349  0.13577296024514848  0.1646246828549423  1.0000
  H   H13       1.0  0.4718834775626775  0.6227290181885222  0.5338166001558304  1.0000
  H   H14       1.0  0.5281374945605605  0.12276339911561249  0.46619496323926757  1.0000
  H   H15       1.0  0.43391888557140124  0.6850671644982071  0.4151911578777713  1.0000
  H   H16       1.0  0.5660977093741336  0.1850832697899918  0.5848278423487583  1.0000
  H   H17       1.0  0.04846754968699679  0.5661863211706759  0.4223566426184176  1.0000
  H   H18       1.0  0.951499098211066  0.06612157441040979  0.5776570437341488  1.0000
  H   H19       1.0  0.08744141853053118  0.5018000919190156  0.5400930624897737  1.0000
  H   H20       1.0  0.9125092504493038  0.0017598033345080995  0.4599150829279919  1.0000
  H   H21       1.0  0.5864248721396236  0.19422977191528187  0.9593129356934184  1.0000
  H   H22       1.0  0.41354089591907683  0.6942497339706505  0.04071231746556239  1.0000
  H   H23       1.0  0.9722651065296828  0.0759540337535469  0.9648488924070899  1.0000
  H   H24       1.0  0.027740568400680798  0.5758996124762132  0.03515735574956839  1.0000
  H   H25       1.0  0.9347324126674436  0.0156517518442598  0.08411880810616877  1.0000
  H   H26       1.0  0.06531042989865199  0.5155231171220648  0.9158947942541072  1.0000
  H   H27       1.0  0.548089195147405  0.1321274352433761  0.07785263892323258  1.0000
  H   H28       1.0  0.45192520526912  0.6320831808211123  0.9221869179491475  1.0000
  C   C1        1.0  0.38001228195440717  0.2747742959415476  0.7642757730247991  1.0000
  C   C2        1.0  0.6200458037309531  0.7748173220864982  0.23568677069876992  1.0000
  C   C3        1.0  0.2523600989122485  0.21982491956580216  0.7741035840888413  1.0000
  C   C4        1.0  0.7476755043032739  0.7198741896757567  0.22587129543828866  1.0000
  C   C5        1.0  0.1166145633920408  0.0120089133830916  0.6925642568346928  1.0000
  C   C6        1.0  0.8832730347371154  0.511885598289048  0.30740973567747426  1.0000
  C   C7        1.0  0.8803281584804665  0.42548583070504975  0.7363214023940328  1.0000
  C   C8        1.0  0.1196919128760143  0.9254887075577827  0.26371151839567364  1.0000
  C   C9        1.0  0.7528702191492513  0.48007237720491247  0.7258612854808532  1.0000
  C   C10       1.0  0.24716754120975537  0.980041450872129  0.2741521916009048  1.0000
  C   C11       1.0  0.6098633273900234  0.6957529893989686  0.7969119408968836  1.0000
  C   C12       1.0  0.3901137433074808  0.1956263616720548  0.20301573299363437  1.0000
  C   C13       1.0  0.3019376259008197  0.5199040850220841  0.6140577341285506  1.0000
  C   C14       1.0  0.6980640437063457  0.019940757162778804  0.3859324205152105  1.0000
  C   C15       1.0  0.2820077291166285  0.5580689182094859  0.5434369609597949  1.0000
  C   C16       1.0  0.7179924543362046  0.058097500013325  0.4565649962477564  1.0000
  C   C17       1.0  0.37991618191493604  0.6100402461583768  0.508655820093459  1.0000
  C   C18       1.0  0.6200850060317437  0.11007182230157746  0.4913543574124829  1.0000
  C   C19       1.0  0.3588420490803371  0.6447003025448195  0.4430606472629605  1.0000
  C   C20       1.0  0.6411662287052805  0.14471695727961986  0.5569570300328407  1.0000
  C   C21       1.0  0.23934577418274464  0.6285480126247974  0.41170454232342  1.0000
  C   C22       1.0  0.7606609828305152  0.128560502619699  0.5883018750274686  1.0000
  C   C23       1.0  0.14133548262343956  0.5772571129854285  0.4468658498977972  1.0000
  C   C24       1.0  0.8586683366170647  0.0772650346219237  0.5531369512930835  1.0000
  C   C25       1.0  0.1625577704783296  0.5418005740827991  0.5120808158548087  1.0000
  C   C26       1.0  0.8374350320329994  0.04180526897064141  0.4879199986176771  1.0000
  C   C27       1.0  0.7833743348486591  0.16689020108455568  0.6586281359667436  1.0000
  C   C28       1.0  0.21664543311693046  0.6668622646029617  0.341387553646065  1.0000
  C   C29       1.0  0.28279449095788317  0.534091781416393  0.8410286824782174  1.0000
  C   C30       1.0  0.7172394703456035  0.0341455258132939  0.1589776307738902  1.0000
  C   C31       1.0  0.6619027784938609  0.1552081842688011  0.9873137012620246  1.0000
  C   C32       1.0  0.3380673041860405  0.6551983047459584  0.012704746117343296  1.0000
  C   C33       1.0  0.7816485838181605  0.13921667430896179  0.9555733999980518  1.0000
  C   C34       1.0  0.2183295782285199  0.6392004112338011  0.04444239452270438  1.0000
  C   C35       1.0  0.8800739661519401  0.08846527121873039  0.9902978300274794  1.0000
  C   C36       1.0  0.11992542226649049  0.5884198007424927  0.009711330244655897  1.0000
  C   C37       1.0  0.8592322212506999  0.05496386836709628  0.05628203890233858  1.0000
  C   C38       1.0  0.14079482367694846  0.5548787022802414  0.9437252411695737  1.0000
  C   C39       1.0  0.8015341713718412  0.17722119167101613  0.8847849715118484  1.0000
  C   C40       1.0  0.19844159556241434  0.6771935776635017  0.1152329994041779  1.0000
  C   C41       1.0  0.6410418878213803  0.12103394128452999  0.05297401240446219  1.0000
  C   C42       1.0  0.358966364685827  0.6209783504807332  0.9470541386671555  1.0000
  C   C43       1.0  0.2603847513795968  0.5711026255188613  0.9118637271210445  1.0000
  C   C44       1.0  0.7396486679364997  0.0711821903876455  0.0881507652131717  1.0000
  N   N1        1.0  0.14677816976834626  0.2618265052783357  0.7573005366233543  1.0000
  N   N2        1.0  0.8532637130116427  0.7618651755050009  0.24270209836157616  1.0000
  N   N3        1.0  0.6468055735205096  0.4383464866767284  0.742683932966109  1.0000
  N   N4        1.0  0.35321115415131027  0.9382776772770567  0.25734635261176203  1.0000
  O   O1        1.0  0.3728103447087676  0.3590320346681892  0.7325407103272281  1.0000
  O   O2        1.0  0.627254211633314  0.8591249923527897  0.2673761542363451  1.0000
  O   O3        1.0  0.48017542123504586  0.23380475106122833  0.7875724951221199  1.0000
  O   O4        1.0  0.5198719669275177  0.7337755778904833  0.21245447237769347  1.0000
  O   O5        1.0  0.872621575153893  0.3414410706284273  0.768329219067155  1.0000
  O   O6        1.0  0.12737478905040686  0.8414080031781096  0.23173017892036532  1.0000
  O   O7        1.0  0.9808884447617244  0.46659825817248185  0.7131183600094103  1.0000
  O   O8        1.0  0.019154559401307798  0.9666560920775067  0.2868987202830269  1.0000
  O   O9        1.0  0.40782317484330827  0.5437581206327593  0.6431873471407028  1.0000
  O   O10       1.0  0.5921658401953777  0.043782965936323096  0.3568141151626988  1.0000
  O   O11       1.0  0.21063556109622536  0.4674117008436554  0.6388108678755698  1.0000
  O   O12       1.0  0.7893788007385965  0.9674841003966178  0.3611637822020767  1.0000
  O   O13       1.0  0.688520278526461  0.20833960422168465  0.6885771633258599  1.0000
  O   O14       1.0  0.311512597935284  0.7083214953544112  0.31145156197710117  1.0000
  O   O15       1.0  0.8968737937096163  0.1543163820299043  0.6826750937856045  1.0000
  O   O16       1.0  0.1031560991497429  0.654309083679486  0.3173407138097558  1.0000
  O   O17       1.0  0.3959392473774272  0.547436803750699  0.8161928847231364  1.0000
  O   O18       1.0  0.6041028747934618  0.04748627978754879  0.1838254971207789  1.0000
  O   O19       1.0  0.18788228268950036  0.4928121836351591  0.811434439808238  1.0000
  O   O20       1.0  0.8121435979097809  0.9928450742644583  0.18855312544850017  1.0000
  O   O21       1.0  0.7101836601102672  0.2295026906103672  0.8603891659780128  1.0000
  O   O22       1.0  0.28978829526270994  0.7294850316377078  0.13963755718999948  1.0000
  O   O23       1.0  0.9076339198552716  0.1535078616977898  0.8551866195763792  1.0000
  O   O24       1.0  0.09234769576019629  0.6534488416518869  0.1448286606808225  1.0000
  O   O25       1.0  0.08200966857069147  0.024050924047479286  0.751091030590217  1.0000
  O   O26       1.0  0.917892763115141  0.5239640225508494  0.24889999559592008  1.0000
  O   O27       1.0  0.5732865491783201  0.6746988910930298  0.7400227878316412  1.0000
  O   O28       1.0  0.4266355549345988  0.17470882816552802  0.25992217326327693  1.0000
