data_image0
_chemical_formula_structural       Cd4H68C48Br4N8O8
_chemical_formula_sum              "Cd4 H68 C48 Br4 N8 O8"
_cell_length_a       7.239013788000345
_cell_length_b       13.652653726000057
_cell_length_c       16.518545975000855
_cell_angle_alpha    90.00001042716605
_cell_angle_beta     90.00003538539252
_cell_angle_gamma    90.00000020828698

_space_group_name_H-M_alt    "P 1"
_space_group_IT_number       1

loop_
  _space_group_symop_operation_xyz
  'x, y, z'

loop_
  _atom_site_type_symbol
  _atom_site_label
  _atom_site_symmetry_multiplicity
  _atom_site_fract_x
  _atom_site_fract_y
  _atom_site_fract_z
  _atom_site_occupancy
  Cd  Cd1       1.0  0.18091180858993278  0.7846255469573437  0.598669604402289  1.0000
  Cd  Cd2       1.0  0.31909187868221517  0.215374989386774  0.09866855014487186  1.0000
  Cd  Cd3       1.0  0.8190970181454063  0.2846246184296533  0.9013282529765119  1.0000
  Cd  Cd4       1.0  0.680909335450167  0.7153745201607934  0.40132965847523366  1.0000
  H   H1        1.0  0.3966029897206126  0.3711345372706348  0.8818434365593785  1.0000
  H   H2        1.0  0.1034010968641113  0.6288645961731234  0.38184057035019225  1.0000
  H   H3        1.0  0.6033989306448503  0.8711354708087597  0.6181586715619785  1.0000
  H   H4        1.0  0.8966014980265838  0.12886580314084742  0.11815762518777717  1.0000
  H   H5        1.0  0.30859782905619676  0.6998662196988478  0.7681403425424944  1.0000
  H   H6        1.0  0.19140057157872548  0.3001328888436134  0.2681398719450455  1.0000
  H   H7        1.0  0.6913985644158129  0.19986745120699817  0.731859923537783  1.0000
  H   H8        1.0  0.8086006431872119  0.8001338476438987  0.23186016563307274  1.0000
  H   H9        1.0  0.5066012753655825  0.7098715937963933  0.7049810580181483  1.0000
  H   H10       1.0  0.9933978943336824  0.29012750179276026  0.20498006221277615  1.0000
  H   H11       1.0  0.4933964995855575  0.20987210633047948  0.7950204203356389  1.0000
  H   H12       1.0  0.006603320358053099  0.7901292054739245  0.2950205792324993  1.0000
  H   H13       1.0  0.4698586394637729  0.5211383129372535  0.6182246134751562  1.0000
  H   H14       1.0  0.03013954976945849  0.47886149523124294  0.11822412628722384  1.0000
  H   H15       1.0  0.530141896885901  0.0211381120775584  0.8817756255776315  1.0000
  H   H16       1.0  0.9698575221196746  0.9788617546891062  0.38177714907864396  1.0000
  H   H17       1.0  0.11444275797721559  0.5703997878259771  0.52655427307333  1.0000
  H   H18       1.0  0.3855566833924229  0.4296014651829908  0.026554479950576092  1.0000
  H   H19       1.0  0.8855577787399298  0.07039887520900123  0.9734459734289227  1.0000
  H   H20       1.0  0.6144417695333005  0.929600279175581  0.4734473933462338  1.0000
  H   H21       1.0  0.28965167834899563  0.4945984030201273  0.4858800088689533  1.0000
  H   H22       1.0  0.2103456479252159  0.5054014856667804  0.9858798181029724  1.0000
  H   H23       1.0  0.7103467750598824  0.994597849044773  0.014119452736359497  1.0000
  H   H24       1.0  0.7896535069042727  0.0053997398284054005  0.5141216293300414  1.0000
  H   H25       1.0  0.8972899053728155  0.4512039418511408  0.7806905394467943  1.0000
  H   H26       1.0  0.6027107524916318  0.5487973676939006  0.2806906878438936  1.0000
  H   H27       1.0  0.1027106341862876  0.9512019668287695  0.719311580782573  1.0000
  H   H28       1.0  0.3972904604002706  0.048797863478213806  0.2193105224865518  1.0000
  H   H29       1.0  0.23620955341074526  0.5156434327241045  0.8228987704065033  1.0000
  H   H30       1.0  0.26379030584388363  0.4843564202689379  0.32289713648774643  1.0000
  H   H31       1.0  0.7637882200915129  0.015643919908932002  0.6771026785753232  1.0000
  H   H32       1.0  0.7362109102954547  0.9843580994080484  0.17710171818912088  1.0000
  H   H33       1.0  0.7596454231367246  0.6042357223244039  0.7201730993601173  1.0000
  H   H34       1.0  0.7403523865825788  0.39576484150867947  0.22017326184531064  1.0000
  H   H35       1.0  0.24035373243046368  0.1042347661699239  0.7798289683992292  1.0000
  H   H36       1.0  0.25964606608989277  0.8957658098489532  0.27982739557443637  1.0000
  H   H37       1.0  0.10084016126497629  0.44872675249922633  0.6476617737377237  1.0000
  H   H38       1.0  0.39915806947961113  0.5512745270329661  0.14766260807413534  1.0000
  H   H39       1.0  0.899158996869879  0.9487262729272389  0.8523373192161541  1.0000
  H   H40       1.0  0.600844524833981  0.0512728549338632  0.3523379972507853  1.0000
  H   H41       1.0  0.164451056317553  0.5981182249105929  0.6755456037911569  1.0000
  H   H42       1.0  0.3355472137465937  0.4018823282698918  0.17554579295006784  1.0000
  H   H43       1.0  0.8355480992014391  0.09811727957565351  0.8244528307621193  1.0000
  H   H44       1.0  0.6644512389710823  0.901882574637014  0.3244542600145761  1.0000
  H   H45       1.0  0.22507253532422308  0.28166179345071646  0.6228266622363916  1.0000
  H   H46       1.0  0.27492704180053806  0.718339480642065  0.12282385595339916  1.0000
  H   H47       1.0  0.7749293843712408  0.7816620515576246  0.8771718000735331  1.0000
  H   H48       1.0  0.7250741723556756  0.2183392791178278  0.3771767746356644  1.0000
  H   H49       1.0  0.4069868218783269  0.36781427585335535  0.627974240850733  1.0000
  H   H50       1.0  0.0930113811006805  0.6321877318249631  0.12797016157409755  1.0000
  H   H51       1.0  0.5930123356529435  0.8678138000548684  0.8720248398672364  1.0000
  H   H52       1.0  0.9069912138165037  0.1321875294934429  0.37203045598694456  1.0000
  H   H53       1.0  0.3335831088493392  0.32317385967558476  0.5320686918915598  1.0000
  H   H54       1.0  0.1664246287169249  0.6768259296242078  0.03206706074190178  1.0000
  H   H55       1.0  0.6664188111562053  0.8231726725516  0.9679303820760337  1.0000
  H   H56       1.0  0.8335779665341004  0.1768257481670332  0.4679347743298265  1.0000
  H   H57       1.0  0.8657923484853142  0.45281312599414747  0.5360509643612088  1.0000
  H   H58       1.0  0.6342065830010737  0.5471866650570546  0.0360523317945152  1.0000
  H   H59       1.0  0.13420680968045667  0.9528134019791851  0.9639487345908432  1.0000
  H   H60       1.0  0.36579048566704114  0.04718648190456781  0.4639476675314283  1.0000
  H   H61       1.0  0.9056569198383854  0.33162350392107237  0.5722872008070538  1.0000
  H   H62       1.0  0.5943434441488405  0.6683755626075795  0.07228736502423057  1.0000
  H   H63       1.0  0.0943450002310513  0.8316237719001832  0.9277130851987604  1.0000
  H   H64       1.0  0.40565638823016303  0.1683753715894554  0.4277120472485903  1.0000
  H   H65       1.0  0.0031913814168901995  0.37014054683784536  0.4788569454845797  1.0000
  H   H66       1.0  0.496811460568466  0.6298586078526541  0.9788568510231879  1.0000
  H   H67       1.0  0.9968084524676469  0.8701414598208788  0.021143102680184697  1.0000
  H   H68       1.0  0.50318769518816  0.12985832796523772  0.5211427990903628  1.0000
  C   C1        1.0  0.4722596790397802  0.42457542587483477  0.8457331296874524  1.0000
  C   C2        1.0  0.027742975222516  0.5754251645775027  0.3457326564533644  1.0000
  C   C3        1.0  0.5277394789161959  0.9245756347298412  0.6542677757546964  1.0000
  C   C4        1.0  0.9722610006744502  0.07542564712790778  0.15426734714389304  1.0000
  C   C5        1.0  0.39803263357786983  0.6595290022462024  0.7258497043930416  1.0000
  C   C6        1.0  0.10196570742145639  0.3404708294927232  0.22584921570492605  1.0000
  C   C7        1.0  0.6019637595932321  0.15952877794233442  0.7741505555871695  1.0000
  C   C8        1.0  0.898035507645389  0.8404717977120909  0.2741508279732584  1.0000
  C   C9        1.0  0.4861869351633246  0.572361337835048  0.7664065481417734  1.0000
  C   C10       1.0  0.013812844430340497  0.42763850278603127  0.2664060487913743  1.0000
  C   C11       1.0  0.5138108387615999  0.0723611044941279  0.7335943040369484  1.0000
  C   C12       1.0  0.9861869898831158  0.9276401947365472  0.23359400806851474  1.0000
  C   C13       1.0  0.3715040636067854  0.5741118940900661  0.5923288624685267  1.0000
  C   C14       1.0  0.12849408911075946  0.425888640865594  0.09232960463342006  1.0000
  C   C15       1.0  0.628496473137204  0.07411169907444297  0.9076701738348161  1.0000
  C   C16       1.0  0.8715043637868475  0.9258881733632549  0.4076716627218174  1.0000
  C   C17       1.0  0.22514845704034056  0.5184611692618118  0.5428807816445624  1.0000
  C   C18       1.0  0.27484824454418083  0.4815393548643457  0.042880361051487584  1.0000
  C   C19       1.0  0.7748506978852916  0.018460985332900703  0.957118851623029  1.0000
  C   C20       1.0  0.7251488273649185  0.9815381654760318  0.45712091471922606  1.0000
  C   C21       1.0  0.7518598803850763  0.4701716836665994  0.789196112456224  1.0000
  C   C22       1.0  0.7481407894729911  0.5298288952828045  0.28919569194120937  1.0000
  C   C23       1.0  0.24813789650781357  0.9701704394953836  0.7108054052610339  1.0000
  C   C24       1.0  0.25186180468020314  0.029829388948698507  0.21080430476061446  1.0000
  C   C25       1.0  0.3840528893568943  0.505854858557946  0.8126406228552339  1.0000
  C   C26       1.0  0.11594557402866458  0.494143527271831  0.31263895042721385  1.0000
  C   C27       1.0  0.6159448840727747  0.0058560801878684  0.6873614300265414  1.0000
  C   C28       1.0  0.8840542607808927  0.9941444764592404  0.18736111648977524  1.0000
  C   C29       1.0  0.6743990287488444  0.5532961787654215  0.7548565240878842  1.0000
  C   C30       1.0  0.825598829878423  0.4467036602051023  0.2548561119539271  1.0000
  C   C31       1.0  0.3255987450351441  0.05329668008168649  0.7451461413482644  1.0000
  C   C32       1.0  0.1744023859817361  0.9467031558832063  0.24514515854941263  1.0000
  C   C33       1.0  0.14305719403765949  0.4282977503449673  0.5855304013544468  1.0000
  C   C34       1.0  0.3569437119004633  0.5717020506634753  0.08553122736143587  1.0000
  C   C35       1.0  0.8569419639452249  0.9282972843059201  0.914469293890235  1.0000
  C   C36       1.0  0.6430575011623034  0.07170112470406309  0.4144699864326354  1.0000
  C   C37       1.0  0.4826241321733207  0.6392940874781418  0.5348674084288232  1.0000
  C   C38       1.0  0.0173767023212577  0.3607064348928973  0.0348656891601422  1.0000
  C   C39       1.0  0.5173777864609761  0.13929536976826276  0.9651322431120871  1.0000
  C   C40       1.0  0.9826245128952563  0.8607052477121188  0.4651325414375051  1.0000
  C   C41       1.0  0.28533901080091073  0.3456903678894462  0.5924977346085496  1.0000
  C   C42       1.0  0.21466328636402207  0.6543108995612743  0.09249611310247727  1.0000
  C   C43       1.0  0.7146601465653218  0.8456899000743333  0.9075013427637654  1.0000
  C   C44       1.0  0.785339308718619  0.1543107047849688  0.4075051131842783  1.0000
  C   C45       1.0  0.9692152793600568  0.3940457971086887  0.5407892844146145  1.0000
  C   C46       1.0  0.5307850402112065  0.6059539949801619  0.040790027380744186  1.0000
  C   C47       1.0  0.030785259770958397  0.8940460718742002  0.9592104056506014  1.0000
  C   C48       1.0  0.46921341029893426  0.1059530785135721  0.4592099808323551  1.0000
  Br  Br1       1.0  0.906716551575215  0.7786750677203431  0.7048660951025308  1.0000
  Br  Br2       1.0  0.5932784737539122  0.2213210980107476  0.2048692183280493  1.0000
  Br  Br3       1.0  0.093267409842106  0.2786755795745747  0.795120259150124  1.0000
  Br  Br4       1.0  0.4067144520039604  0.7213169427530772  0.2951332288509717  1.0000
  N   N1        1.0  0.652865764056095  0.40681404261252396  0.8339990691349468  1.0000
  N   N2        1.0  0.8471349689794393  0.5931858136904892  0.3339974742170709  1.0000
  N   N3        1.0  0.34713477517188085  0.9068142537199934  0.6660030443817602  1.0000
  N   N4        1.0  0.15286624424273745  0.0931862973705506  0.16600253206565435  1.0000
  N   N5        1.0  0.2811603103405531  0.6326470411409133  0.6555862383213336  1.0000
  N   N6        1.0  0.21883793157770268  0.36735277520996584  0.15558578531047118  1.0000
  N   N7        1.0  0.7188402268400863  0.1326468324304173  0.8444128068339221  1.0000
  N   N8        1.0  0.7811605208819683  0.8673530261535307  0.3444136570523141  1.0000
  O   O1        1.0  0.6085998271648236  0.5971220621457223  0.4945333637585774  1.0000
  O   O2        1.0  0.8914025136502558  0.40287709685687634  0.9945326010806279  1.0000
  O   O3        1.0  0.39140414889357084  0.09712324354519812  0.005466037739665797  1.0000
  O   O4        1.0  0.1085994069498497  0.9028758074703661  0.5054664849399939  1.0000
  O   O5        1.0  0.4411267608698494  0.729620848189505  0.5259586352165966  1.0000
  O   O6        1.0  0.058878205272200994  0.270379672230348  0.025955702752952392  1.0000
  O   O7        1.0  0.5588765398414706  0.22962213250357164  0.9740404246039128  1.0000
  O   O8        1.0  0.9411285348837736  0.7703762895527506  0.474040698045222  1.0000
