data_image0
_chemical_formula_structural       Nd2H16C18O18
_chemical_formula_sum              "Nd2 H16 C18 O18"
_cell_length_a       7.817652882466363
_cell_length_b       8.523124371726054
_cell_length_c       9.697079307557706
_cell_angle_alpha    68.36847581311383
_cell_angle_beta     76.55776157094357
_cell_angle_gamma    76.22307013849247

_space_group_name_H-M_alt    "P 1"
_space_group_IT_number       1

loop_
  _space_group_symop_operation_xyz
  'x, y, z'

loop_
  _atom_site_type_symbol
  _atom_site_label
  _atom_site_symmetry_multiplicity
  _atom_site_fract_x
  _atom_site_fract_y
  _atom_site_fract_z
  _atom_site_occupancy
  Nd  Nd1       1.0  0.25205915875132223  0.2750907778398073  0.4524087378073745  1.0000
  Nd  Nd2       1.0  0.7479435649498283  0.7249054799736854  0.5475931277686286  1.0000
  H   H1        1.0  0.012977111799955279  0.31330409095289724  0.23092874973034577  1.0000
  H   H2        1.0  0.9870340377302328  0.6866883848303901  0.769068454231906  1.0000
  H   H3        1.0  0.8871171902681283  0.3869856956329869  0.35883215409430846  1.0000
  H   H4        1.0  0.112887919028303  0.6130106559293933  0.641161966982864  1.0000
  H   H5        1.0  0.8425443700075165  0.5975932529726434  0.0221960672760345  1.0000
  H   H6        1.0  0.1574677410833232  0.4024094164190615  0.9778018104825463  1.0000
  H   H7        1.0  0.6874528068284389  0.742223040756514  0.1911073350912459  1.0000
  H   H8        1.0  0.3125471251189538  0.25777974863151343  0.8088827068599116  1.0000
  H   H9        1.0  0.9902093546539277  0.976160281494792  0.7592789024557048  1.0000
  H   H10       1.0  0.009795778022699202  0.023851398476402597  0.2407134157981758  1.0000
  H   H11       1.0  0.636580458602815  0.29197982501744235  0.002032889777680677  1.0000
  H   H12       1.0  0.36340754410174003  0.7080177133653011  0.9979705796388387  1.0000
  H   H13       1.0  0.32689286722833083  0.9149749765021582  0.48267372827895355  1.0000
  H   H14       1.0  0.6730969656286733  0.08502764680264359  0.5173308343943788  1.0000
  H   H15       1.0  0.13042284872535245  0.8868248581996241  0.5701623184321248  1.0000
  H   H16       1.0  0.8695838535035135  0.11317139008146879  0.429839759060691  1.0000
  C   C1        1.0  0.5299273778974154  0.03155515651091181  0.2520673399691091  1.0000
  C   C2        1.0  0.4700610765002011  0.968439821000139  0.7479368534674364  1.0000
  C   C3        1.0  0.6502705275593499  0.018531471679672503  0.11088376348345008  1.0000
  C   C4        1.0  0.3497284371203263  0.9814687948328639  0.8891041889699451  1.0000
  C   C5        1.0  0.7226474015165466  0.856076828370128  0.09919574959536695  1.0000
  C   C6        1.0  0.2773514474066515  0.14391700867426493  0.900796342288153  1.0000
  C   C7        1.0  0.8412771040336081  0.8417538911907912  0.9714458734793536  1.0000
  C   C8        1.0  0.15870697265134479  0.15824483270402817  0.028565250646892106  1.0000
  C   C9        1.0  0.8933563245191322  0.9866057769341768  0.8573237385024368  1.0000
  C   C10       1.0  0.1066383440432475  0.013407069617706198  0.1426786241453257  1.0000
  C   C11       1.0  0.8192683828277438  0.14877487118791075  0.8684251296524649  1.0000
  C   C12       1.0  0.1807287991337532  0.8512315482455931  0.13158082798359064  1.0000
  C   C13       1.0  0.6950000818046077  0.16560257880391294  0.9940497914183696  1.0000
  C   C14       1.0  0.30498324775209085  0.8344000125124823  0.005958189518700885  1.0000
  C   C15       1.0  0.8739518639368241  0.30370226314287413  0.7428009929209266  1.0000
  C   C16       1.0  0.12604823690838873  0.6963105228234098  0.2572054237410129  1.0000
  C   C17       1.0  0.4250400690440941  0.5277620534977955  0.5587172857532962  1.0000
  C   C18       1.0  0.5749769233273554  0.47223309348770204  0.4412696044477825  1.0000
  O   O1        1.0  0.4251926403540195  0.17064553423878687  0.24958287604730603  1.0000
  O   O2        1.0  0.5747910883876345  0.8293533202262324  0.750417962283244  1.0000
  O   O3        1.0  0.20984983850367905  0.9737539429555683  0.5208316544755361  1.0000
  O   O4        1.0  0.7901538638793255  0.026229496267596596  0.4791751320010888  1.0000
  O   O5        1.0  0.5393851409605901  0.8981685186052673  0.37099564251320777  1.0000
  O   O6        1.0  0.46061383005937984  0.10182646830477893  0.6290063731559953  1.0000
  O   O7        1.0  0.9828359436094658  0.29072306510903445  0.3407480283385026  1.0000
  O   O8        1.0  0.017171627211197884  0.7092680744857063  0.6592544686147974  1.0000
  O   O9        1.0  0.9150811827147934  0.6831693586059443  0.9552212594926459  1.0000
  O   O10       1.0  0.08492282643624087  0.3168410528115544  0.044770664412602905  1.0000
  O   O11       1.0  0.9990111770249969  0.27986577959504183  0.6379674256748231  1.0000
  O   O12       1.0  0.001002452335789892  0.7201468744927624  0.362047583153192  1.0000
  O   O13       1.0  0.7915922404921716  0.4503268975175985  0.7458423316471894  1.0000
  O   O14       1.0  0.2083952067695591  0.5496756320383225  0.25416997552496673  1.0000
  O   O15       1.0  0.2760420228180679  0.4786796381282486  0.5787054964424171  1.0000
  O   O16       1.0  0.7239765447720428  0.521314216539267  0.4212825121273269  1.0000
  O   O17       1.0  0.45761395589862996  0.6156785634573794  0.6255811889811581  1.0000
  O   O18       1.0  0.5423946106437824  0.3843203655583308  0.3744103628336645  1.0000
