data_image0
_chemical_formula_structural       Sm2H32C32N20Cl2O12
_chemical_formula_sum              "Sm2 H32 C32 N20 Cl2 O12"
_cell_length_a       8.724569263588924
_cell_length_b       11.096787900654299
_cell_length_c       13.002787487407344
_cell_angle_alpha    115.22113352517968
_cell_angle_beta     105.61187530867608
_cell_angle_gamma    90.01749390557151

_space_group_name_H-M_alt    "P 1"
_space_group_IT_number       1

loop_
  _space_group_symop_operation_xyz
  'x, y, z'

loop_
  _atom_site_type_symbol
  _atom_site_label
  _atom_site_symmetry_multiplicity
  _atom_site_fract_x
  _atom_site_fract_y
  _atom_site_fract_z
  _atom_site_occupancy
  Sm  Sm1       1.0  0.7499182967950802  0.5541362918798994  7.367959120978151e-06  1.0000
  Sm  Sm2       1.0  0.2500822544826917  0.4458636096211278  0.9999922842418698  1.0000
  H   H1        1.0  0.02806390568320438  0.466392562544101  0.6936196882215171  1.0000
  H   H2        1.0  0.47195443742408116  0.7728813051804193  0.3063129320115222  1.0000
  H   H3        1.0  0.9719352907553044  0.5336063301748055  0.30638011486467315  1.0000
  H   H4        1.0  0.528045084525303  0.227119602961622  0.6936869023504001  1.0000
  H   H5        1.0  0.9718538562664776  0.29485082711340727  0.6534215048515009  1.0000
  H   H6        1.0  0.5283525137111625  0.6417008076054459  0.3466945047799043  1.0000
  H   H7        1.0  0.028146529983899854  0.7051480638578268  0.3465785148015926  1.0000
  H   H8        1.0  0.4716458138824322  0.3583000966478238  0.6533058791950452  1.0000
  H   H9        1.0  0.382779899774782  0.3703003001418352  0.26216717679527324  1.0000
  H   H10       1.0  0.11743463570440577  0.10833551548630274  0.7379333476060382  1.0000
  H   H11       1.0  0.617219617630667  0.629700602363762  0.7378334237465793  1.0000
  H   H12       1.0  0.8825660715129117  0.8916653852716221  0.2620674695027104  1.0000
  H   H13       1.0  0.09977406751293927  0.9995348795072941  0.07277791638137641  1.0000
  H   H14       1.0  0.40030432471606037  0.9266693579640304  0.9272217983993088  1.0000
  H   H15       1.0  0.9002264883087606  0.0004650276301774009  0.9272209696396914  1.0000
  H   H16       1.0  0.5996950367498428  0.0733305452846622  0.0727776372347861  1.0000
  H   H17       1.0  0.4958013558831382  0.06319594808643808  0.3811394894870119  1.0000
  H   H18       1.0  0.004244742503693982  0.6823341886680793  0.6188111445734634  1.0000
  H   H19       1.0  0.5041991953946336  0.9368039534145892  0.6188601627139789  1.0000
  H   H20       1.0  0.9957559738014793  0.3176667233627342  0.381188140175432  1.0000
  H   H21       1.0  0.018162823445528845  0.7212301390970096  0.002804124120160494  1.0000
  H   H22       1.0  0.48179887964819557  0.7184209043692603  0.9971412237285904  1.0000
  H   H23       1.0  0.981836377536908  0.2787687592583411  0.9971949127860996  1.0000
  H   H24       1.0  0.5182004772737869  0.28157899324299507  0.002858978085427658  1.0000
  H   H25       1.0  0.8548354944716507  0.7635797398975226  0.9371133723527834  1.0000
  H   H26       1.0  0.6451167812469265  0.8264145539770807  0.06279505733406397  1.0000
  H   H27       1.0  0.14516505680612107  0.23642016160350468  0.06288627984821456  1.0000
  H   H28       1.0  0.3548837654869245  0.1735853418875024  0.937205361046857  1.0000
  H   H29       1.0  0.2575281328612177  0.9123655223821173  0.2104897675385615  1.0000
  H   H30       1.0  0.24248911635086043  0.7019135925058888  0.7894123268123892  1.0000
  H   H31       1.0  0.7424736127723436  0.08763438300768908  0.7895093350494093  1.0000
  H   H32       1.0  0.7575114394708392  0.29808631463158264  0.21058655920868571  1.0000
  C   C1        1.0  0.2897680782121483  0.0147026305473972  0.22610355225698703  1.0000
  C   C2        1.0  0.21029184562040365  0.7886839915820258  0.7738497447201809  1.0000
  C   C3        1.0  0.7102348617772023  0.9852972787311884  0.7738950007179567  1.0000
  C   C4        1.0  0.7897076717850524  0.2113169109235713  0.2261508558216718  1.0000
  C   C5        1.0  0.8760926628017175  0.434706044176977  0.7880928732741025  1.0000
  C   C6        1.0  0.624119678963197  0.6469386843728913  0.21198074012654897  1.0000
  C   C7        1.0  0.12390756296517937  0.5652918419009153  0.21190674765115597  1.0000
  C   C8        1.0  0.3758796825027062  0.3530612188758013  0.7880186955075459  1.0000
  C   C9        1.0  0.928749822769035  0.39300557084708737  0.6763114023548197  1.0000
  C   C10       1.0  0.5713852360347785  0.7169671748599881  0.3237036298735487  1.0000
  C   C11       1.0  0.07125056802526328  0.6069933257605982  0.3236878511183434  1.0000
  C   C12       1.0  0.42861309610273673  0.2830337350297185  0.6762959879214706  1.0000
  C   C13       1.0  0.5951723636160651  0.31700534247712386  0.43074688553259927  1.0000
  C   C14       1.0  0.904860790167227  0.8866709360236626  0.5692838080911927  1.0000
  C   C15       1.0  0.4048256475545102  0.6829935576258989  0.5692519348067647  1.0000
  C   C16       1.0  0.09513872723822199  0.11332996648192759  0.4307167924506601  1.0000
  C   C17       1.0  0.45604824974284947  0.22877350592503376  0.3352284464749289  1.0000
  C   C18       1.0  0.043978429134355616  0.8938341053445381  0.6648164087861658  1.0000
  C   C19       1.0  0.5439511117230609  0.7712263973236658  0.6647709891591659  1.0000
  C   C20       1.0  0.9560222780829619  0.10616679541338667  0.33518440832258983  1.0000
  C   C21       1.0  0.35940373130402037  0.2696818922781289  0.25407660440212243  1.0000
  C   C22       1.0  0.1406961502510171  0.015771994140223494  0.7459840935599119  1.0000
  C   C23       1.0  0.6405944448939495  0.7303180183546799  0.7459218484851392  1.0000
  C   C24       1.0  0.8593044010267546  0.9842279073608039  0.25401555864108616  1.0000
  C   C25       1.0  0.20105051618702421  0.06321322407733018  0.1487829579821707  1.0000
  C   C26       1.0  0.2990266786315416  0.9144198375379627  0.8512182134929844  1.0000
  C   C27       1.0  0.7989524147144776  0.9367866739283598  0.8512171273526263  1.0000
  C   C28       1.0  0.7009738771901581  0.08558006959951567  0.14878067252809052  1.0000
  C   C29       1.0  0.4200451848369227  0.097973991692875  0.32025056632433296  1.0000
  C   C30       1.0  0.08001275697943556  0.7779442857982842  0.6797193731959155  1.0000
  C   C31       1.0  0.5799563957692442  0.9020249031671382  0.6797489037157334  1.0000
  C   C32       1.0  0.9199877988422642  0.2220556213391944  0.3202795128251524  1.0000
  N   N1        1.0  0.6848334053410028  0.28233320343466767  0.5128864856918582  1.0000
  N   N2        1.0  0.8152821472215663  0.7698602231694097  0.4871855167160889  1.0000
  N   N3        1.0  0.3151671413928412  0.7176666924299225  0.4871139326890628  1.0000
  N   N4        1.0  0.1847184086001334  0.230139683968062  0.5128133693049791  1.0000
  N   N5        1.0  0.8009979582232347  0.38517634837521797  0.5751748054813461  1.0000
  N   N6        1.0  0.6990703059746367  0.8103275101014729  0.4248257456445827  1.0000
  N   N7        1.0  0.19900259305453716  0.6148235531258164  0.4248248467196518  1.0000
  N   N8        1.0  0.3009292114308195  0.18967339240412426  0.5751748548972628  1.0000
  N   N9        1.0  0.7868654353631257  0.4807935800955433  0.5372465270974442  1.0000
  N   N10       1.0  0.7130841009174063  0.9438107856904311  0.4626755402553116  1.0000
  N   N11       1.0  0.21313645712213256  0.5192073132782723  0.4627552727581302  1.0000
  N   N12       1.0  0.28691525600457624  0.056189111921824506  0.5373246615587135  1.0000
  N   N13       1.0  0.6563845836762852  0.43854020414334377  0.4452135546650026  1.0000
  N   N14       1.0  0.8435473149825583  0.9936440559662354  0.5547262823982633  1.0000
  N   N15       1.0  0.34361612354103943  0.5614606966145885  0.554787262443746  1.0000
  N   N16       1.0  0.1564533967786872  0.0063568504281405975  0.4452737685305622  1.0000
  N   N17       1.0  0.23502115009024752  0.18815753822735096  0.16251007682412677  1.0000
  N   N18       1.0  0.26508773121002344  0.02567783500648349  0.8375294872264619  1.0000
  N   N19       1.0  0.7649782113756629  0.8118423650213485  0.837489358809968  1.0000
  N   N20       1.0  0.7349104359000905  0.9743220643534368  0.16247049802066  1.0000
  Cl  Cl1       1.0  0.7500284081017767  0.3056832227728066  6.829282305175432e-05  1.0000
  Cl  Cl2       1.0  0.24997214317600214  0.6943166787282208  0.9999313593779462  1.0000
  O   O1        1.0  0.9748401064295463  0.43399128484954724  0.8798028749168906  1.0000
  O   O2        1.0  0.525397139603477  0.5545060798152192  0.12027859443991668  1.0000
  O   O3        1.0  0.025158929525488778  0.5660066029760101  0.12019652944146489  1.0000
  O   O4        1.0  0.47460237325805105  0.4454948170539338  0.8797227722818591  1.0000
  O   O5        1.0  0.7381885614541162  0.47000810306731466  0.7877601745680849  1.0000
  O   O6        1.0  0.7620735713029916  0.682491172453119  0.21233593329933587  1.0000
  O   O7        1.0  0.2618118247962613  0.5299907879039196  0.21223984508500854  1.0000
  O   O8        1.0  0.23792460035105728  0.3175087325432386  0.7876632857678559  1.0000
  O   O9        1.0  0.9047721942429803  0.730873647452178  0.0009530966660732837  1.0000
  O   O10       1.0  0.5951947934584609  0.7299225149682582  0.998970746967089  1.0000
  O   O11       1.0  0.09522835249087082  0.2691262484124053  0.9990473217148478  1.0000
  O   O12       1.0  0.4048057532753901  0.2700773808963247  0.0010296714138319572  1.0000
