data_image0
_chemical_formula_structural       Cd3H50C46N4O18
_chemical_formula_sum              "Cd3 H50 C46 N4 O18"
_cell_length_a       9.683494570424271
_cell_length_b       12.017245237653084
_cell_length_c       12.360484235338234
_cell_angle_alpha    110.29002577078322
_cell_angle_beta     105.13990347088017
_cell_angle_gamma    100.49313004915786

_space_group_name_H-M_alt    "P 1"
_space_group_IT_number       1

loop_
  _space_group_symop_operation_xyz
  'x, y, z'

loop_
  _atom_site_type_symbol
  _atom_site_label
  _atom_site_symmetry_multiplicity
  _atom_site_fract_x
  _atom_site_fract_y
  _atom_site_fract_z
  _atom_site_occupancy
  Cd  Cd1       1.0  4.113763090180162e-06  0.5000020697859568  9.442633838512925e-07  1.0000
  Cd  Cd2       1.0  0.9062248442493441  0.3168815521079366  0.6719168660187406  1.0000
  Cd  Cd3       1.0  0.09377868877495377  0.6831185519617617  0.32808241329517057  1.0000
  H   H1        1.0  0.4095467448802309  0.3734615398713783  0.7498356783659402  1.0000
  H   H2        1.0  0.5904586023912586  0.6265376304263554  0.2501652634694905  1.0000
  H   H3        1.0  0.408210613244627  0.7333650366607856  0.9848598569744665  1.0000
  H   H4        1.0  0.5917882496268164  0.26663414057749424  0.015134141705537658  1.0000
  H   H5        1.0  0.8137983899634519  0.6836053512397908  0.9195238960194274  1.0000
  H   H6        1.0  0.1862058849680039  0.31639662990269096  0.08048020713487597  1.0000
  H   H7        1.0  0.8362357012150882  0.07548475687398339  0.15370098688275394  1.0000
  H   H8        1.0  0.16375892927273816  0.9245172591798787  0.846298794041928  1.0000
  H   H9        1.0  0.9207733627731115  0.2288249570891097  0.07038405654520127  1.0000
  H   H10       1.0  0.07922593129997313  0.7711751766526476  0.9296168218909102  1.0000
  H   H11       1.0  0.7173117993607007  0.9431907582260519  0.7030824035650624  1.0000
  H   H12       1.0  0.28268957146173085  0.056812155122862903  0.2969182029303212  1.0000
  H   H13       1.0  0.6330064325746677  0.7889711490210943  0.7835480983396083  1.0000
  H   H14       1.0  0.3669945837254788  0.2110308306915414  0.21645131473628249  1.0000
  H   H15       1.0  0.9525940361965296  0.7188616746228857  0.7230969117353466  1.0000
  H   H16       1.0  0.04739998165342735  0.2811328885387922  0.2769002394433997  1.0000
  H   H17       1.0  0.06052700167628427  0.681933942413387  0.6263250112968776  1.0000
  H   H18       1.0  0.9394716052606  0.31806433058930134  0.37367510496785167  1.0000
  H   H19       1.0  0.05990566206930469  0.6141812876123749  0.7341705979666953  1.0000
  H   H20       1.0  0.9400915443002233  0.3858160632554827  0.26582974007634147  1.0000
  H   H21       1.0  0.516796884743016  0.47213414622817834  0.39445305356574056  1.0000
  H   H22       1.0  0.48320489319164034  0.52786410207041  0.6055452541069855  1.0000
  H   H23       1.0  0.5963312955210185  0.3766866359453969  0.4607677486412384  1.0000
  H   H24       1.0  0.40366479251068904  0.6233078976799149  0.5392249474743025  1.0000
  H   H25       1.0  0.6421221485504559  0.3978232249256875  0.33695526610110693  1.0000
  H   H26       1.0  0.35787782609121166  0.6021759604116068  0.6630421913839085  1.0000
  H   H27       1.0  0.623116723325147  0.6688894630801698  0.4634835562516457  1.0000
  H   H28       1.0  0.37688156633861064  0.3311050802096886  0.5365144328063138  1.0000
  H   H29       1.0  0.8181647143284679  0.7163317219453588  0.48643287830336845  1.0000
  H   H30       1.0  0.18183321642641903  0.2836646935850096  0.5135672881237738  1.0000
  H   H31       1.0  0.7581644774651366  0.7401843248602659  0.615626977365757  1.0000
  H   H32       1.0  0.24183130642865078  0.25981209733926386  0.3843719577879838  1.0000
  H   H33       1.0  0.5173402721880367  0.016318046854543397  0.36425403626699193  1.0000
  H   H34       1.0  0.48265476759303966  0.98368491916932  0.6357509997462001  1.0000
  H   H35       1.0  0.6100388412945961  0.17999074327172337  0.4313671042120006  1.0000
  H   H36       1.0  0.38995762534880635  0.8200103455436646  0.5686359639018049  1.0000
  H   H37       1.0  0.6198716013987778  0.09862570717663735  0.5260422184526377  1.0000
  H   H38       1.0  0.3801273228112406  0.9013762955388882  0.4739600250188614  1.0000
  H   H39       1.0  0.880925898375672  0.884000267429904  0.23058665705379147  1.0000
  H   H40       1.0  0.119071259790509  0.11599987624776278  0.7694138024427132  1.0000
  H   H41       1.0  0.959193124355494  0.913706541386361  0.38934483164609907  1.0000
  H   H42       1.0  0.040804022856491394  0.08629359902457169  0.6106548155166038  1.0000
  H   H43       1.0  0.9806467216212696  0.03940495825401769  0.34402831478177387  1.0000
  H   H44       1.0  0.019349025023359237  0.9605942600220769  0.6559715541592367  1.0000
  H   H45       1.0  0.6598842184547634  0.7826749297197394  0.21295054573227634  1.0000
  H   H46       1.0  0.3401129397114104  0.21732521395793467  0.7870499137642354  1.0000
  H   H47       1.0  0.5428953906898073  0.8790760932047162  0.20416971693722985  1.0000
  H   H48       1.0  0.4571010540452036  0.12092498907718857  0.7958317265089719  1.0000
  H   H49       1.0  0.5780275622683888  0.8309960184901042  0.3277761701872491  1.0000
  H   H50       1.0  0.42196961780617664  0.16900413172105289  0.6722259139768596  1.0000
  C   C1        1.0  0.696644466623148  0.43619345223959977  0.7614107864605444  1.0000
  C   C2        1.0  0.3033630121686598  0.5638085139990066  0.23859394510316878  1.0000
  C   C3        1.0  0.6199854989255228  0.518656636915878  0.8283834749833473  1.0000
  C   C4        1.0  0.3800205464363557  0.48134439738766577  0.17161904135726755  1.0000
  C   C5        1.0  0.4693266147956123  0.47036861220705356  0.8107572007714624  1.0000
  C   C6        1.0  0.5306765965689805  0.5296305680265971  0.18924332212436207  1.0000
  C   C7        1.0  0.394135234041478  0.5459120524630235  0.8694294935451479  1.0000
  C   C8        1.0  0.6058672200751828  0.45408805330789176  0.13056876396516504  1.0000
  C   C9        1.0  0.23253166850766144  0.49290543564210043  0.8510802651928415  1.0000
  C   C10       1.0  0.7674743220832526  0.5070955823277358  0.14891818947876354  1.0000
  C   C11       1.0  0.46760505795026563  0.6730668079673308  0.9414322545513657  1.0000
  C   C12       1.0  0.5323959846448432  0.3269323724020054  0.05856541240344623  1.0000
  C   C13       1.0  0.615987745605068  0.7210104321878814  0.9544237787428215  1.0000
  C   C14       1.0  0.384011885468496  0.27898782277988227  0.04557329765650309  1.0000
  C   C15       1.0  0.6953783705372558  0.6450108106940887  0.9024460086299939  1.0000
  C   C16       1.0  0.30462482548655606  0.354991172149603  0.09755707272071128  1.0000
  C   C17       1.0  0.7316422597053884  0.9239529090430664  0.9738382407421182  1.0000
  C   C18       1.0  0.2683566206878538  0.0760490806054861  0.026160753394165702  1.0000
  C   C19       1.0  0.812531519577867  0.04769740530027629  0.05531919977628518  1.0000
  C   C20       1.0  0.1874677372460453  0.9523055245180387  0.944682612447103  1.0000
  C   C21       1.0  0.8592548953219679  0.13192036736825227  0.009116400392031236  1.0000
  C   C22       1.0  0.1407464755004708  0.8680825459806625  0.9908842061033525  1.0000
  C   C23       1.0  0.825571619176472  0.0949834028319287  0.8819743865807367  1.0000
  C   C24       1.0  0.1744304760313182  0.9050185751794967  0.11802604829875205  1.0000
  C   C25       1.0  0.743875342977482  0.9712310191849196  0.8018063804041373  1.0000
  C   C26       1.0  0.25612567332266417  0.02877096052772289  0.19819303267175306  1.0000
  C   C27       1.0  0.6968191453631575  0.8850371625311053  0.8465008478546493  1.0000
  C   C28       1.0  0.30318153832308065  0.11496389007874087  0.15349899646935228  1.0000
  C   C29       1.0  0.8757085752534834  0.1879625610212656  0.8347173719769856  1.0000
  C   C30       1.0  0.12429282843152817  0.8120403621278809  0.1652856715198041  1.0000
  C   C31       1.0  0.8637315259159734  0.5339489056829763  0.5742702502115193  1.0000
  C   C32       1.0  0.1362681533609447  0.46604655647496424  0.4257267047343305  1.0000
  C   C33       1.0  0.9914541647152217  0.6445776688068034  0.6710807586897046  1.0000
  C   C34       1.0  0.008543400563183897  0.35541780982053683  0.3289174019841425  1.0000
  C   C35       1.0  0.6166628436166945  0.4432204477540155  0.4201738673680566  1.0000
  C   C36       1.0  0.3833364548429685  0.5567768801109592  0.5798236402793719  1.0000
  C   C37       1.0  0.7355441756179318  0.6766869955422478  0.5199073634679009  1.0000
  C   C38       1.0  0.2644537332285707  0.32330941345463055  0.4800911782916443  1.0000
  C   C39       1.0  0.7628183487376888  0.07456099454879707  0.4212276894543193  1.0000
  C   C40       1.0  0.2371781332464875  0.9254372916565498  0.5787728202046052  1.0000
  C   C41       1.0  0.6169766098355679  0.09089166667226319  0.4342153470601247  1.0000
  C   C42       1.0  0.38302162723824995  0.9091084753041938  0.5657861342399855  1.0000
  C   C43       1.0  0.9045430872885732  0.9500118992931447  0.3250357340411296  1.0000
  C   C44       1.0  0.0954526593560558  0.04998731898295008  0.6749641348998806  1.0000
  C   C45       1.0  0.6277403378353982  0.8597535355496362  0.26771821741448315  1.0000
  C   C46       1.0  0.37225683128497167  0.14024661139477954  0.7322830544158306  1.0000
  N   N1        1.0  0.7407487709688781  0.552982759108957  0.5112342035077618  1.0000
  N   N2        1.0  0.2592491378776173  0.4470136498879213  0.4887643382517838  1.0000
  N   N3        1.0  0.7630064005256189  0.9670028672433518  0.3384115038558164  1.0000
  N   N4        1.0  0.23699041407246574  0.03299634606478458  0.6615885745550045  1.0000
  O   O1        1.0  0.8424694251433988  0.4698632710453765  0.8078335418939986  1.0000
  O   O2        1.0  0.15753800983163993  0.5301386821262636  0.19216794033450663  1.0000
  O   O3        1.0  0.6217239646494477  0.3422359406706334  0.6628750899163406  1.0000
  O   O4        1.0  0.3782838840054267  0.6577641565942043  0.33712827661199185  1.0000
  O   O5        1.0  0.15819923711691078  0.3925429407022847  0.7549135488398164  1.0000
  O   O6        1.0  0.841803534272877  0.6074608947814608  0.24508683587725946  1.0000
  O   O7        1.0  0.18499433522820388  0.5548945964491094  0.9318649304556672  1.0000
  O   O8        1.0  0.8150069698690743  0.44510829729934887  0.06813080203689735  1.0000
  O   O9        1.0  0.686795477322235  0.8476627073617349  0.027443309341208384  1.0000
  O   O10       1.0  0.31320305950291066  0.15233835191728665  0.9725553037093846  1.0000
  O   O11       1.0  0.9754779359406099  0.2900029962797248  0.9111128338481294  1.0000
  O   O12       1.0  0.02452701955942862  0.7099980364582945  0.08888784835507824  1.0000
  O   O13       1.0  0.8169434366885896  0.1582697308827647  0.7190851367505502  1.0000
  O   O14       1.0  0.18305651822571178  0.8417350629413606  0.2809182499780221  1.0000
  O   O15       1.0  0.8693835102859567  0.42398591328046104  0.5490759953292184  1.0000
  O   O16       1.0  0.13061828298948086  0.5760095324080795  0.4509197538886269  1.0000
  O   O17       1.0  0.8847994101841294  0.16183191722899437  0.4875439120368838  1.0000
  O   O18       1.0  0.11519561207514777  0.8381682363845897  0.5124561285200215  1.0000
