data_image0
_chemical_formula_structural       Hg6H24C44S12N20
_chemical_formula_sum              "Hg6 H24 C44 S12 N20"
_cell_length_a       10.667947648806006
_cell_length_b       11.779316568935277
_cell_length_c       13.604
_cell_angle_alpha    105.33724366850606
_cell_angle_beta     110.16603808567343
_cell_angle_gamma    95.62943693947591

_space_group_name_H-M_alt    "P 1"
_space_group_IT_number       1

loop_
  _space_group_symop_operation_xyz
  'x, y, z'

loop_
  _atom_site_type_symbol
  _atom_site_label
  _atom_site_symmetry_multiplicity
  _atom_site_fract_x
  _atom_site_fract_y
  _atom_site_fract_z
  _atom_site_occupancy
  Hg  Hg1       1.0  0.7288270158790623  0.12331571707683509  0.08363307811339372  1.0000
  Hg  Hg2       1.0  0.27117256496820363  0.8766832167338947  0.9163663438681408  1.0000
  Hg  Hg3       1.0  0.6994246420550709  0.5929845118552421  0.028933795551111436  1.0000
  Hg  Hg4       1.0  0.3005751523054555  0.40701532214906416  0.9710658903163744  1.0000
  Hg  Hg5       1.0  0.500798810213027  0.2557864027835706  0.5172983908448144  1.0000
  Hg  Hg6       1.0  0.49920219626510937  0.7442143314143123  0.48270182887002727  1.0000
  H   H1        1.0  0.03715101181538931  0.0914119566823501  0.12250996571064118  1.0000
  H   H2        1.0  0.9628487825451445  0.9085878773219561  0.8774897201568377  1.0000
  H   H3        1.0  0.28339974043734634  0.1401826440402871  0.25775896322244307  1.0000
  H   H4        1.0  0.7166000539231805  0.8598171899640192  0.7422414577229544  1.0000
  H   H5        1.0  0.2858683565180797  0.371328048170362  0.5914991958055892  1.0000
  H   H6        1.0  0.7141304392381116  0.6286717858339443  0.40850022010046405  1.0000
  H   H7        1.0  0.10619902715193061  0.4383528607866012  0.6561417063413728  1.0000
  H   H8        1.0  0.8938019793262059  0.5616478734112746  0.34385924845139465  1.0000
  H   H9        1.0  0.8619468641037358  0.3847571358813441  0.5239732526654491  1.0000
  H   H10       1.0  0.1380541423744006  0.6152435983165319  0.4760269670493925  1.0000
  H   H11       1.0  0.7981113429597073  0.2684215197638196  0.3280679491228327  1.0000
  H   H12       1.0  0.20188845140082626  0.7315783142404868  0.6719324718225648  1.0000
  H   H13       1.0  0.9958307455176865  0.48432034536051555  0.11088336490125528  1.0000
  H   H14       1.0  0.004169048842840078  0.5156794886437908  0.8891163209662236  1.0000
  H   H15       1.0  0.2353876692072916  0.5355044516856822  0.2585412823943399  1.0000
  H   H16       1.0  0.7646121251532421  0.46449538231862425  0.7414591385510575  1.0000
  H   H17       1.0  0.2877499509020112  0.9216127781189982  0.48343708024926696  1.0000
  H   H18       1.0  0.7122508420628577  0.0783870558853081  0.5165628755796376  1.0000
  H   H19       1.0  0.1360488903932264  0.0681635574851498  0.4887009503128751  1.0000
  H   H20       1.0  0.8639519025716426  0.9318362765191565  0.5112990055160223  1.0000
  H   H21       1.0  0.8977065226603003  0.0162268893335735  0.3470296584017163  1.0000
  H   H22       1.0  0.10229170151809797  0.9837747450578789  0.6529707503927253  1.0000
  H   H23       1.0  0.8109095873706451  0.8195605334125275  0.19859666448937918  1.0000
  H   H24       1.0  0.1890904205031561  0.1804402007853554  0.8014032852640438  1.0000
  C   C1        1.0  0.7730609547469598  0.2988849704426926  0.9501846279121434  1.0000
  C   C2        1.0  0.22693883961357392  0.7011148635616138  0.04981652811117233  1.0000
  C   C3        1.0  0.6583616631849765  0.4267088569294089  0.1657090030550989  1.0000
  C   C4        1.0  0.341637559597757  0.5732927774620435  0.8342916757007685  1.0000
  C   C5        1.0  0.5772774406891514  0.9001917718734801  0.11734783198350834  1.0000
  C   C6        1.0  0.4227239238535105  0.0998062617436801  0.8826518660349262  1.0000
  C   C7        1.0  0.7904394960639323  0.8217047945016489  0.9695146380909133  1.0000
  C   C8        1.0  0.2095608698743945  0.1782932391155114  0.030484054888184182  1.0000
  C   C9        1.0  0.5120738018045898  0.0635131574908456  0.6402602992775072  1.0000
  C   C10       1.0  0.4879259925559367  0.9364866765134536  0.3597393865899716  1.0000
  C   C11       1.0  0.511187812776086  0.42882431182422204  0.37398976379134297  1.0000
  C   C12       1.0  0.4888129801887827  0.5711755221800843  0.6260101920375544  1.0000
  C   C13       1.0  0.0041877913492812  0.2508011307803883  0.3472401254251664  1.0000
  C   C14       1.0  0.9958130016155806  0.7491987032239179  0.6527605654816566  1.0000
  C   C15       1.0  0.06671719156579309  0.14647949807825  0.20837921103596807  1.0000
  C   C16       1.0  0.9332826027947334  0.8535203359260564  0.791620474831518  1.0000
  C   C17       1.0  0.20448860584438217  0.1742162624267465  0.28387963329454635  1.0000
  C   C18       1.0  0.7955104034250766  0.8257844717711365  0.7161200464974583  1.0000
  C   C19       1.0  0.14420140699820647  0.2800718249760124  0.423201094095752  1.0000
  C   C20       1.0  0.8557993859666624  0.719928009028294  0.5767995968110639  1.0000
  C   C21       1.0  0.17916380037584637  0.3483542080127009  0.5350125721429746  1.0000
  C   C22       1.0  0.8208345683538029  0.6516438256044594  0.4649877861470273  1.0000
  C   C23       1.0  0.0786549579897553  0.3848975660786209  0.5702209948576423  1.0000
  C   C24       1.0  0.921345476910588  0.615104968506401  0.4297794826676692  1.0000
  C   C25       1.0  0.9406638649163808  0.3551551704511269  0.4955645366505478  1.0000
  C   C26       1.0  0.059337141561755374  0.644845563746749  0.5044356830642938  1.0000
  C   C27       1.0  0.903658532037241  0.2894671452896986  0.38604942456503705  1.0000
  C   C28       1.0  0.09634147583656018  0.7105335889081772  0.6139497901104672  1.0000
  C   C29       1.0  0.9996060759772831  0.7577091332560713  0.25623197732183184  1.0000
  C   C30       1.0  0.0003937183832433943  0.2422907007482351  0.743767708545647  1.0000
  C   C31       1.0  0.034505632775641  0.5713258545066537  0.17613572128360028  1.0000
  C   C32       1.0  0.9654951601892277  0.4286739794976526  0.8238642345453042  1.0000
  C   C33       1.0  0.1685860134282393  0.6001059432053921  0.25844194635959633  1.0000
  C   C34       1.0  0.8314137809322872  0.3998938907989071  0.741558474585801  1.0000
  C   C35       1.0  0.13595498721943497  0.7867295736386097  0.33863771683498806  1.0000
  C   C36       1.0  0.8640448071410988  0.2132702603656966  0.6613619690324909  1.0000
  C   C37       1.0  0.1837448415639145  0.9002565858106806  0.4220848077825819  1.0000
  C   C38       1.0  0.8162549527966192  0.0997432481936187  0.5779156131628155  1.0000
  C   C39       1.0  0.09882369243020858  0.9810597612439409  0.424012860234562  1.0000
  C   C40       1.0  0.9011751033259897  0.0189400727603655  0.5759865556714985  1.0000
  C   C41       1.0  0.9639033714703517  0.9517386562082705  0.3434556321757966  1.0000
  C   C42       1.0  0.0360966364034496  0.0482620779896124  0.6565443175776267  1.0000
  C   C43       1.0  0.9147776814165383  0.8422589143370729  0.2605853572942181  1.0000
  C   C44       1.0  0.0852223264572629  0.1577418198608029  0.7394153275371237  1.0000
  S   S1        1.0  0.8012562503605948  0.1617737868709597  0.939386768501258  1.0000
  S   S2        1.0  0.19874475611754147  0.8382269473269233  0.06061418629150228  1.0000
  S   S3        1.0  0.5980104922392826  0.5496365905766041  0.1570934807589025  1.0000
  S   S4        1.0  0.4019875184258481  0.4503641436212718  0.8429051939937577  1.0000
  S   S5        1.0  0.5827462949706472  0.0463239612285307  0.16663167693740635  1.0000
  S   S6        1.0  0.417253857454412  0.9536731721950602  0.83336675215574  1.0000
  S   S7        1.0  0.7363969789790659  0.6786919418701771  0.8920193052767258  1.0000
  S   S8        1.0  0.2636036004725284  0.3213069919405598  0.10797965158830886  1.0000
  S   S9        1.0  0.449677745336686  0.187174548899435  0.6579991841006174  1.0000
  S   S10       1.0  0.5503212639327727  0.8128261852984408  0.342000495691387  1.0000
  S   S11       1.0  0.5665060090171609  0.3027936109334419  0.37255549151200273  1.0000
  S   S12       1.0  0.4334947839477081  0.6972062230708573  0.6274437292389832  1.0000
  N   N1        1.0  0.7574197928174868  0.3974039553780386  0.9543117444206002  1.0000
  N   N2        1.0  0.2425790029387045  0.6025958786262677  0.04568840656337154  1.0000
  N   N3        1.0  0.7029202235032486  0.3408871023307967  0.17500874835953076  1.0000
  N   N4        1.0  0.2970789992794849  0.6591145320606486  0.8249919303963364  1.0000
  N   N5        1.0  0.5677338696982304  0.7953030172208173  0.08434557365652744  1.0000
  N   N6        1.0  0.4322674948444316  0.204695016396343  0.9156548594398257  1.0000
  N   N7        1.0  0.8313946103118964  0.9250713218236228  0.01974044538008705  1.0000
  N   N8        1.0  0.168604757022095  0.0749267117935375  0.9802579776375849  1.0000
  N   N9        1.0  0.5558530558329977  0.9748754314025092  0.6308544750562743  1.0000
  N   N10       1.0  0.44414673852753583  0.0251244026017972  0.36914521081120444  1.0000
  N   N11       1.0  0.47012577416324325  0.5173970579796645  0.36879544225867267  1.0000
  N   N12       1.0  0.5298748052883511  0.4826018758310724  0.6312042496842806  1.0000
  N   N13       1.0  0.9693611623980517  0.1842894285003425  0.23921606898312583  1.0000
  N   N14       1.0  0.030638631962474988  0.8157104055039639  0.7607843519622717  1.0000
  N   N15       1.0  0.24212810693735778  0.24020765282202208  0.3882107881873296  1.0000
  N   N16       1.0  0.7578719009364434  0.7597930813758537  0.6117898966440122  1.0000
  N   N17       1.0  0.9521723598535132  0.6482644989341964  0.17524290902049686  1.0000
  N   N18       1.0  0.047828646624623196  0.3517362352636866  0.8247580457722704  1.0000
  N   N19       1.0  0.2181463337849863  0.7050649129566935  0.3376010617241575  1.0000
  N   N20       1.0  0.7818532470622727  0.2949340208540363  0.6623983602573771  1.0000
