data_image0
_chemical_formula_structural       Cu2H32C36Br2N4O4
_chemical_formula_sum              "Cu2 H32 C36 Br2 N4 O4"
_cell_length_a       8.141505230655206
_cell_length_b       9.443703748507486
_cell_length_c       10.747520759791977
_cell_angle_alpha    89.98522662777812
_cell_angle_beta     92.02166892482013
_cell_angle_gamma    104.09667222081825

_space_group_name_H-M_alt    "P 1"
_space_group_IT_number       1

loop_
  _space_group_symop_operation_xyz
  'x, y, z'

loop_
  _atom_site_type_symbol
  _atom_site_label
  _atom_site_symmetry_multiplicity
  _atom_site_fract_x
  _atom_site_fract_y
  _atom_site_fract_z
  _atom_site_occupancy
  Cu  Cu1       1.0  0.5092576371443515  0.4274315638293516  0.6410082381261972  1.0000
  Cu  Cu2       1.0  0.4907447803077361  0.5725683715949048  0.3589917842787287  1.0000
  H   H1        1.0  0.16320372970162822  0.16678185544712684  0.6151698816525837  1.0000
  H   H2        1.0  0.836794986012194  0.8332138089047023  0.3848225655243951  1.0000
  H   H3        1.0  0.16769030476051228  0.3349632661177466  0.9222953673044927  1.0000
  H   H4        1.0  0.8323111975599461  0.6650377545543334  0.07770557160966972  1.0000
  H   H5        1.0  0.1988809977353156  0.33902258391359663  0.759240826941479  1.0000
  H   H6        1.0  0.8011211343515399  0.660980642081768  0.2407582860693296  1.0000
  H   H7        1.0  0.8715981148689738  0.3413489829706507  0.6095063917953141  1.0000
  H   H8        1.0  0.1284021618926943  0.658652063888063  0.3904926550906467  1.0000
  H   H9        1.0  0.9277444386705369  0.19259983259129854  0.687214382098432  1.0000
  H   H10       1.0  0.07225860854795498  0.8074023081562418  0.3127838144031401  1.0000
  H   H11       1.0  0.8469032449466951  0.2832219865904834  0.8902638010358787  1.0000
  H   H12       1.0  0.15309640427660304  0.716776876745165  0.10973521100887501  1.0000
  H   H13       1.0  0.7580914591382212  0.41161681390637744  0.8102619333420121  1.0000
  H   H14       1.0  0.24190973052705547  0.5883831259042867  0.1897380577792731  1.0000
  H   H15       1.0  0.8179493849653667  0.7104030127657313  0.7352375616646682  1.0000
  H   H16       1.0  0.18205243335230387  0.2895991214681004  0.2647615339255438  1.0000
  H   H17       1.0  0.045234227486417915  0.5377380424812088  0.7360840735014946  1.0000
  H   H18       1.0  0.9547660470472294  0.46226298257727205  0.2639168341290272  1.0000
  H   H19       1.0  0.025454210150165597  0.5448037996242975  0.898791496977367  1.0000
  H   H20       1.0  0.9745442101723042  0.45519505719764203  0.10120841415601228  1.0000
  H   H21       1.0  0.9855319361830439  0.908209305245322  0.6024614805488895  1.0000
  H   H22       1.0  0.01447168733596981  0.09178630886056284  0.3975338828795146  1.0000
  H   H23       1.0  0.43299237380016115  0.7387711286583143  0.633731690724801  1.0000
  H   H24       1.0  0.5670081827566662  0.2612265731287309  0.3662729174166728  1.0000
  H   H25       1.0  0.11932752381103036  0.7006389683176197  0.6078426212191772  1.0000
  H   H26       1.0  0.8806754961175047  0.2993588009973963  0.392155536883628  1.0000
  H   H27       1.0  0.9519445526421038  0.9352279991454114  0.8607645808749141  1.0000
  H   H28       1.0  0.0480557185494987  0.06477299321274191  0.1392391178724495  1.0000
  H   H29       1.0  0.8029826402172874  0.013946706531051201  0.03540244895675931  1.0000
  H   H30       1.0  0.1970151798567557  0.9860543382003543  0.9645974657341867  1.0000
  H   H31       1.0  0.5144706122029278  0.8706106504199057  0.0918374729428066  1.0000
  H   H32       1.0  0.48552966344473  0.12939038553869148  0.9081625043154274  1.0000
  C   C1        1.0  0.2191162903802493  0.07369761341090003  0.6260865427719011  1.0000
  C   C2        1.0  0.7808848742230982  0.9262979767674583  0.3739115492060492  1.0000
  C   C3        1.0  0.34404527608056407  0.519226679784346  0.8561408243858679  1.0000
  C   C4        1.0  0.6559537717802825  0.4807743605606519  0.1438591215887186  1.0000
  C   C5        1.0  0.3942233977859075  0.0947135855082308  0.6429262156358035  1.0000
  C   C6        1.0  0.6057777634754018  0.9052819719697853  0.3570746674589884  1.0000
  C   C7        1.0  0.6665288712980127  0.17650921402709238  0.6677292164836786  1.0000
  C   C8        1.0  0.3334698616796318  0.8234907236562635  0.3322716424425849  1.0000
  C   C9        1.0  0.18407168655531345  0.40568815839323263  0.8397024824264108  1.0000
  C   C10       1.0  0.8159285902063544  0.5943128884654741  0.16029656445955  1.0000
  C   C11       1.0  0.5933038111466544  0.6664912368262179  0.8446907980381653  1.0000
  C   C12       1.0  0.4067014062802342  0.3335141857196291  0.1553065516365919  1.0000
  C   C13       1.0  0.46648158692803326  0.9742111674786647  0.6487586587779646  1.0000
  C   C14       1.0  0.5335140618236096  0.025786584554325004  0.3512430331120839  1.0000
  C   C15       1.0  0.8417050360445941  0.2655720913947094  0.6881490801949682  1.0000
  C   C16       1.0  0.1582952407170809  0.7344289554639973  0.3118499666909855  1.0000
  C   C17       1.0  0.5114948551115006  0.7137143279250824  0.9436171157413327  1.0000
  C   C18       1.0  0.48850450651853805  0.2862878041814554  0.0563828476538575  1.0000
  C   C19       1.0  0.8619310060939467  0.35595222254399067  0.8091936489577592  1.0000
  C   C20       1.0  0.13806895801254632  0.6440477434532994  0.1908044501353103  1.0000
  C   C21       1.0  0.7551948429077057  0.744304639822815  0.8138315655541389  1.0000
  C   C22       1.0  0.2447956059894381  0.2556963876265713  0.18617188292403603  1.0000
  C   C23       1.0  0.02957876339987563  0.47092784608673816  0.8205604538449265  1.0000
  C   C24       1.0  0.9704208847094051  0.5290710063487937  0.1794394885721005  1.0000
  C   C25       1.0  0.12267790232399993  0.9296983309656994  0.6169084388002802  1.0000
  C   C26       1.0  0.8773202064573129  0.07029945589493282  0.3830895941679344  1.0000
  C   C27       1.0  0.3740195838815198  0.8304748013751181  0.6362702659751847  1.0000
  C   C28       1.0  0.6259855995713297  0.1695261843375278  0.363732627534489  1.0000
  C   C29       1.0  0.19855291244194725  0.8109480016785258  0.6212589643367181  1.0000
  C   C30       1.0  0.8014482510473969  0.18904757759971602  0.3787400580135198  1.0000
  C   C31       1.0  0.8275472923322414  0.8695325180231425  0.884608119117324  1.0000
  C   C32       1.0  0.17244898395777142  0.1304674175329126  0.11539360761392461  1.0000
  C   C33       1.0  0.7426304618815819  0.9150193359825708  0.9830549535685335  1.0000
  C   C34       1.0  0.2573732095332488  0.08498495558770712  0.0169460688910874  1.0000
  C   C35       1.0  0.5810311887024753  0.8367421193574034  0.015604742045184108  1.0000
  C   C36       1.0  0.4189647738183524  0.1632567244371188  0.9843969672654609  1.0000
  Br  Br1       1.0  0.2555638069747845  0.43678409506014065  0.4941337402025141  1.0000
  Br  Br2       1.0  0.7444376953456738  0.5632169256119397  0.5058671987116483  1.0000
  N   N1        1.0  0.5262060478425353  0.22177829780951444  0.6545594573395093  1.0000
  N   N2        1.0  0.47379637072356223  0.778221648514851  0.3454396346931361  1.0000
  N   N3        1.0  0.48151506624451196  0.5423353885840287  0.7907299103257018  1.0000
  N   N4        1.0  0.5184815249287097  0.4576656496336683  0.20927090345387  1.0000
  O   O1        1.0  0.6400758331834027  0.02703398653775221  0.6650208010375991  1.0000
  O   O2        1.0  0.35992749383024153  0.9729648091381267  0.3349829567194931  1.0000
  O   O3        1.0  0.3535375850034868  0.6191057640420184  0.9512011152552091  1.0000
  O   O4        1.0  0.6464599224153814  0.38089419982797074  0.0487978516428456  1.0000
