data_image0
_chemical_formula_structural       Zn8H72C72O26
_chemical_formula_sum              "Zn8 H72 C72 O26"
_cell_length_a       18.21061934674994
_cell_length_b       18.407271508650876
_cell_length_c       18.207154310051145
_cell_angle_alpha    59.843324505650266
_cell_angle_beta     60.475240644339905
_cell_angle_gamma    90.10645021133155

_space_group_name_H-M_alt    "P 1"
_space_group_IT_number       1

loop_
  _space_group_symop_operation_xyz
  'x, y, z'

loop_
  _atom_site_type_symbol
  _atom_site_label
  _atom_site_symmetry_multiplicity
  _atom_site_fract_x
  _atom_site_fract_y
  _atom_site_fract_z
  _atom_site_occupancy
  Zn  Zn1       1.0  0.9442339885615354  0.045630356239435295  0.1018997737209091  1.0000
  Zn  Zn2       1.0  0.9430775929084234  0.053510107424102685  0.92292808833534  1.0000
  Zn  Zn3       1.0  0.9431456408101936  0.8753019806983746  0.09553583987798898  1.0000
  Zn  Zn4       1.0  0.11866762955911266  0.0468820472378084  0.9258776229984423  1.0000
  Zn  Zn5       1.0  0.5322223115484662  0.46064861340951063  0.9253840914141664  1.0000
  Zn  Zn6       1.0  0.5330081045628104  0.46525979657080546  0.09831589035497516  1.0000
  Zn  Zn7       1.0  0.356064701762037  0.46091204864674046  0.09885833128489435  1.0000
  Zn  Zn8       1.0  0.5278614326024708  0.6361235020930567  0.9218528284727087  1.0000
  H   H1        1.0  0.9657658720522946  0.3019234015863007  0.9101665821249871  1.0000
  H   H2        1.0  0.9618593592075868  0.4033880341983647  0.823835221167606  1.0000
  H   H3        1.0  0.9541648155984458  0.3129398091201168  0.814263263849185  1.0000
  H   H4        1.0  0.7872304546310358  0.4820809869317841  0.9107638102078827  1.0000
  H   H5        1.0  0.8894213155555801  0.47759731000518707  0.8272436699882563  1.0000
  H   H6        1.0  0.8008058180952061  0.47357584677471465  0.8123258963232093  1.0000
  H   H7        1.0  0.5127607619621983  0.21254669133407594  0.12082079373238487  1.0000
  H   H8        1.0  0.5166617411787371  0.10890823853937802  0.202820894911234  1.0000
  H   H9        1.0  0.5202026742829419  0.19419406401144101  0.22183096323553295  1.0000
  H   H10       1.0  0.6471366607845749  0.03110181886578541  0.13338566418480022  1.0000
  H   H11       1.0  0.5953559472982234  0.040399832541488906  0.23867388082749846  1.0000
  H   H12       1.0  0.7047665547141548  0.0348509920710853  0.1870960901512576  1.0000
  H   H13       1.0  0.6549417625612078  0.8580476399099767  0.36145828155389387  1.0000
  H   H14       1.0  0.5951614164648189  0.7436253330453154  0.43311758616686585  1.0000
  H   H15       1.0  0.7057732396609494  0.7906907811259815  0.32229461253631086  1.0000
  H   H16       1.0  0.508890037753801  0.6893921320253897  0.6858598089932146  1.0000
  H   H17       1.0  0.5158146612338894  0.7049262014843907  0.5784441606961721  1.0000
  H   H18       1.0  0.5200967871070148  0.6039733320301225  0.6661770245172249  1.0000
  H   H19       1.0  0.7880347879325527  0.6342883788761497  0.6884700414551406  1.0000
  H   H20       1.0  0.88393134404302  0.7306823007361842  0.5877718800809079  1.0000
  H   H21       1.0  0.785983561529065  0.7351281445535918  0.6781799921363645  1.0000
  H   H22       1.0  0.9653096341426418  0.8044511035344329  0.3451680373950837  1.0000
  H   H23       1.0  0.9563096063507713  0.812269841896381  0.44215599897639635  1.0000
  H   H24       1.0  0.9510514190092464  0.9004612059775355  0.34310985301924996  1.0000
  H   H25       1.0  0.1284640289494661  0.022576027755427202  0.1895545076067863  1.0000
  H   H26       1.0  0.23424157154217798  0.0317911473728145  0.17034392737818402  1.0000
  H   H27       1.0  0.22139770588056246  0.03682334960846131  0.07786039101750936  1.0000
  H   H28       1.0  0.29401934986005773  0.18943753808429162  0.19010426633118274  1.0000
  H   H29       1.0  0.3085811157220562  0.10538697756281583  0.1683027822186034  1.0000
  H   H30       1.0  0.3926760661191295  0.21107312403542278  0.07743389715920308  1.0000
  H   H31       1.0  0.34401570147169735  0.477876196051767  0.8659747455188056  1.0000
  H   H32       1.0  0.26984467543251606  0.4691765005589374  0.8325274679661094  1.0000
  H   H33       1.0  0.2297245003057  0.4623412943720169  0.9472797284471428  1.0000
  H   H34       1.0  0.20060435067402688  0.34666222794979973  0.8218851622640531  1.0000
  H   H35       1.0  0.14033445465024394  0.38467265530429995  0.8993661566223496  1.0000
  H   H36       1.0  0.09363954727948706  0.2770056447778586  0.9394412732832511  1.0000
  H   H37       1.0  0.9670786907613685  0.8716926139148599  0.8303705598670349  1.0000
  H   H38       1.0  0.9552785401825828  0.7629818838345201  0.859459591790888  1.0000
  H   H39       1.0  0.9496292149504126  0.7828551149963942  0.9471879253407709  1.0000
  H   H40       1.0  0.7766528273411737  0.6777295442445281  0.8611312774955949  1.0000
  H   H41       1.0  0.884547184235778  0.7208382788486603  0.8249741201167358  1.0000
  H   H42       1.0  0.8112117696050087  0.6150813996027864  0.9427659190547435  1.0000
  H   H43       1.0  0.5079156478527904  0.6554419667403338  0.1731863208746988  1.0000
  H   H44       1.0  0.5170315092668359  0.7619826373431878  0.14964774868714398  1.0000
  H   H45       1.0  0.5239022870905926  0.7464559491945552  0.058486500705967545  1.0000
  H   H46       1.0  0.6859339890761332  0.8355383766776258  0.1602895773618443  1.0000
  H   H47       1.0  0.5878650345088869  0.8232470435031232  0.16357637982977746  1.0000
  H   H48       1.0  0.6828395041207213  0.9200725307539129  0.05675035915316345  1.0000
  H   H49       1.0  0.13554884825776975  0.3189646963003838  0.6807947051554424  1.0000
  H   H50       1.0  0.243057615004524  0.40085988636295156  0.5879839594614681  1.0000
  H   H51       1.0  0.22700943519597416  0.29366735769525587  0.6870136605453399  1.0000
  H   H52       1.0  0.3021948725450443  0.4884367752018193  0.3501211122235263  1.0000
  H   H53       1.0  0.32120940510253604  0.4727714538346748  0.4427223920190286  1.0000
  H   H54       1.0  0.40050175294930307  0.46717736342314714  0.33992145817241953  1.0000
  H   H55       1.0  0.3410463746259821  0.18997586293946966  0.35087399867056496  1.0000
  H   H56       1.0  0.22899157951475493  0.11793509037164542  0.4360970764595537  1.0000
  H   H57       1.0  0.2587435195528939  0.22773833528084006  0.3311587042050165  1.0000
  H   H58       1.0  0.1789628706976529  0.029574103352445008  0.672197661081505  1.0000
  H   H59       1.0  0.1575189844018965  0.04411662103953521  0.5816483843456128  1.0000
  H   H60       1.0  0.07921402652601732  0.04895482691855341  0.6855504334117983  1.0000
  H   H61       1.0  0.11321521630939903  0.8055845320663407  0.9021664569116301  1.0000
  H   H62       1.0  0.21498764640649162  0.8120114253299492  0.8050290090752129  1.0000
  H   H63       1.0  0.20916516820142297  0.9011727555134712  0.818096945531153  1.0000
  H   H64       1.0  0.2921146611379938  0.6353634393141405  0.901463196265141  1.0000
  H   H65       1.0  0.27219008950104506  0.7234061715869374  0.8186725903181514  1.0000
  H   H66       1.0  0.3754241832592199  0.7419739222649612  0.8042869428811202  1.0000
  H   H67       1.0  0.3534384599779159  0.7046034200373656  0.11995810350718718  1.0000
  H   H68       1.0  0.24792529296464488  0.6876901152983166  0.22146287812091725  1.0000
  H   H69       1.0  0.2644708584056729  0.6038864784632166  0.19947825740775488  1.0000
  H   H70       1.0  0.1939787385612205  0.8676835685651981  0.1223218671728291  1.0000
  H   H71       1.0  0.17355587082953147  0.7596655382306994  0.22364144176690798  1.0000
  H   H72       1.0  0.09048688718767291  0.7828966430219284  0.19967474092358373  1.0000
  C   C1        1.0  0.8483882637436151  0.1450537935903427  0.01628211191903263  1.0000
  C   C2        1.0  0.7908139278687185  0.20323544834193547  0.017822848633315493  1.0000
  C   C3        1.0  0.8333708099337186  0.2958643559709344  0.9444603142911211  1.0000
  C   C4        1.0  0.9338359065266246  0.330937133226506  0.8691453774412142  1.0000
  C   C5        1.0  0.7797525439760307  0.35076335414219534  0.9443895983272128  1.0000
  C   C6        1.0  0.8167707018518582  0.4510292395958616  0.8697016037299935  1.0000
  C   C7        1.0  0.6865886113836266  0.30968816538125304  0.01665506862570972  1.0000
  C   C8        1.0  0.6290914107752101  0.3680279498232153  0.014825397921200141  1.0000
  C   C9        1.0  0.6441344286687282  0.2172522645999848  0.08946461017055195  1.0000
  C   C10       1.0  0.5433979894617026  0.18080791555084375  0.1627874572702197  1.0000
  C   C11       1.0  0.6979132339600156  0.16238231382825316  0.09090411705148684  1.0000
  C   C12       1.0  0.6590654750069971  0.0621833632337143  0.1665006116928184  1.0000
  C   C13       1.0  0.847973199577801  0.8616620074987722  0.28959031465380036  1.0000
  C   C14       1.0  0.7896241172572969  0.8025494287452233  0.4055009201565271  1.0000
  C   C15       1.0  0.6972538485699502  0.7684544126588052  0.4550236065236321  1.0000
  C   C16       1.0  0.6610265790651368  0.7911063498053468  0.39013866592687657  1.0000
  C   C17       1.0  0.6421275209352685  0.7155557299177887  0.5638606045151846  1.0000
  C   C18       1.0  0.541713791316809  0.6766965996866362  0.6261238688424202  1.0000
  C   C19       1.0  0.6831528946737606  0.6983688320356124  0.6162351829658449  1.0000
  C   C20       1.0  0.6246503453743983  0.6415930192808048  0.7321540096477008  1.0000
  C   C21       1.0  0.7758194082787709  0.7313431493186827  0.5667100460358085  1.0000
  C   C22       1.0  0.8108451377442095  0.707020759414057  0.6329703153433713  1.0000
  C   C23       1.0  0.8307083690826146  0.7858694801179169  0.4579225218603042  1.0000
  C   C24       1.0  0.9308796891654794  0.8275123245960927  0.3945753173788945  1.0000
  C   C25       1.0  0.12725579719068483  0.13875870407528623  0.016620038370071213  1.0000
  C   C26       1.0  0.18509460421826418  0.19700724713862885  0.01651197840843109  1.0000
  C   C27       1.0  0.22233933665351913  0.15659118058560043  0.0727122260465194  1.0000
  C   C28       1.0  0.20094074930153735  0.056924308682674514  0.13083220243386517  1.0000
  C   C29       1.0  0.2769232719127004  0.21134648776317286  0.07208405116353583  1.0000
  C   C30       1.0  0.31993964648667367  0.1768640657627003  0.13020983489947474  1.0000
  C   C31       1.0  0.2919046362115836  0.3034984772965289  0.014349396460843943  1.0000
  C   C32       1.0  0.34947766100003713  0.3619056324258878  0.014296323753597984  1.0000
  C   C33       1.0  0.2553409300079608  0.34369361887335265  0.9577970252754543  1.0000
  C   C34       1.0  0.27567950542970715  0.44326156688332224  0.8976687609270543  1.0000
  C   C35       1.0  0.19944995155766782  0.28870434682109913  0.9599016453430241  1.0000
  C   C36       1.0  0.15644101587655967  0.3263344238412031  0.9021762176643553  1.0000
  C   C37       1.0  0.8467679250994207  0.8741071734305875  0.004633243162310021  1.0000
  C   C38       1.0  0.7893519287203999  0.8175318086888339  0.0026204849516559665  1.0000
  C   C39       1.0  0.8309366265547811  0.7805764322932093  0.9478271240417656  1.0000
  C   C40       1.0  0.9308173774447184  0.8002731675148171  0.8930008090086903  1.0000
  C   C41       1.0  0.777002932336586  0.7261220183784262  0.9473906248731866  1.0000
  C   C42       1.0  0.814576939351788  0.6829758421130023  0.8910614439497027  1.0000
  C   C43       1.0  0.6845999122231914  0.7110715221319025  0.0027992889083350834  1.0000
  C   C44       1.0  0.6267382121042361  0.6508424589883007  0.00500529046330197  1.0000
  C   C45       1.0  0.6429428036410129  0.7484822777078718  0.05723040022061106  1.0000
  C   C46       1.0  0.5428860747497026  0.7274090904974885  0.11279029671091932  1.0000
  C   C47       1.0  0.6969464295377036  0.8033103444887074  0.05718240735578924  1.0000
  C   C48       1.0  0.6609505178569818  0.8474850089770882  0.11251803404098143  1.0000
  C   C49       1.0  0.1270464686116455  0.1469289397641731  0.7334554661435038  1.0000
  C   C50       1.0  0.18567228256603835  0.20560180162903663  0.6173249988618681  1.0000
  C   C51       1.0  0.22614266300121236  0.2964267129087688  0.5674217687584574  1.0000
  C   C52       1.0  0.20748015175990991  0.3298154729029506  0.6334468780823101  1.0000
  C   C53       1.0  0.28149219298404654  0.3512012975757984  0.45854700346230004  1.0000
  C   C54       1.0  0.3285463010855522  0.44986513693697827  0.39524320864119034  1.0000
  C   C55       1.0  0.2923936293216086  0.3118959951217519  0.40627684442353035  1.0000
  C   C56       1.0  0.35026977665459197  0.37041644845612615  0.29015209811561965  1.0000
  C   C57       1.0  0.25201301418647404  0.22098813494989866  0.45623973744041285  1.0000
  C   C58       1.0  0.27069302591263517  0.18688474368624947  0.3908870817282733  1.0000
  C   C59       1.0  0.19722359961249228  0.16613752073381963  0.5651279861969557  1.0000
  C   C60       1.0  0.15105492299368  0.06724701487323873  0.6286954371797436  1.0000
  C   C61       1.0  0.1244111012983851  0.8639386105426186  0.011713078242919785  1.0000
  C   C62       1.0  0.1811397021937324  0.8049441930527907  0.012043313479750748  1.0000
  C   C63       1.0  0.21183826919417462  0.7869078014344596  0.9374213461610524  1.0000
  C   C64       1.0  0.18633524200361504  0.8281112108624671  0.861537801725781  1.0000
  C   C65       1.0  0.2651482207482232  0.7316628502748658  0.9373299997005519  1.0000
  C   C66       1.0  0.3028158592031644  0.7072043466253888  0.8612933260607254  1.0000
  C   C67       1.0  0.28473545796502014  0.6982947987035859  0.011568159034410885  1.0000
  C   C68       1.0  0.34360982726595063  0.6414177090744246  0.00988485684567317  1.0000
  C   C69       1.0  0.25387134478104656  0.7161622001564468  0.08639489095885007  1.0000
  C   C70       1.0  0.2807737407442303  0.6762798105501278  0.1610310809398213  1.0000
  C   C71       1.0  0.20024284809966275  0.7711463332415674  0.08675299073473762  1.0000
  C   C72       1.0  0.16294180627105695  0.7961839105452029  0.16226834329093268  1.0000
  O   O1        1.0  0.9874323121793864  0.005753054811364699  0.01089219305613647  1.0000
  O   O2        1.0  0.8616415300721697  0.1173912474892873  0.9605718304674302  1.0000
  O   O3        1.0  0.879499798019083  0.1286955956916671  0.07016635741410225  1.0000
  O   O4        1.0  0.6102214079759704  0.3943717889929062  0.07276355112171727  1.0000
  O   O5        1.0  0.6040653231973464  0.38608787608831824  0.9551328816641346  1.0000
  O   O6        1.0  0.8790875283088367  0.8240222345123841  0.24342420057670486  1.0000
  O   O7        1.0  0.8613913179218854  0.9448140268605415  0.24724880970059362  1.0000
  O   O8        1.0  0.5969241714673429  0.6821322023247873  0.7751683123516601  1.0000
  O   O9        1.0  0.6078142690258233  0.5578281876057858  0.7774649644069243  1.0000
  O   O10       1.0  0.16669270467084374  0.12652210362323763  0.9453827015514951  1.0000
  O   O11       1.0  0.04374816098864898  0.1066728808337487  0.08773180094853936  1.0000
  O   O12       1.0  0.3090159669438606  0.380144243913101  0.08006250198062051  1.0000
  O   O13       1.0  0.4336691766224661  0.38837196328933743  0.9485092122263625  1.0000
  O   O14       1.0  0.8611831584340804  0.8327284256207079  0.07456027365159201  1.0000
  O   O15       1.0  0.8761951341811522  0.9579714680642228  0.9368942807625943  1.0000
  O   O16       1.0  0.605763049879897  0.6881636651418361  0.9406701991488408  1.0000
  O   O17       1.0  0.6035400830065782  0.5674370073056848  0.0712375769718463  1.0000
  O   O18       1.0  0.16583986293373698  0.112718300936983  0.7786081266988987  1.0000
  O   O19       1.0  0.0437486899587185  0.1362896718879797  0.7768018660895637  1.0000
  O   O20       1.0  0.3100088820974348  0.3974777087083083  0.24557866637270825  1.0000
  O   O21       1.0  0.4344793485201849  0.38794040875349384  0.24603433196276117  1.0000
  O   O22       1.0  0.1645036887791136  0.9465445763717074  0.9618763345272968  1.0000
  O   O23       1.0  0.040848226372901295  0.8263276605384037  0.06113527866257557  1.0000
  O   O24       1.0  0.3051003382652411  0.5574927815629354  0.06686423666895529  1.0000
  O   O25       1.0  0.4275718086573192  0.6823856335972778  0.9513572377022398  1.0000
  O   O26       1.0  0.48737045109513827  0.5055347571052949  0.01147953969640276  1.0000
