data_image0
_chemical_formula_structural       H24Pb4C36O16
_chemical_formula_sum              "H24 Pb4 C36 O16"
_cell_length_a       6.701005479185455
_cell_length_b       9.486203636196402
_cell_length_c       13.507969951611786
_cell_angle_alpha    91.66926316226856
_cell_angle_beta     90.00161673450594
_cell_angle_gamma    89.99832653057635

_space_group_name_H-M_alt    "P 1"
_space_group_IT_number       1

loop_
  _space_group_symop_operation_xyz
  'x, y, z'

loop_
  _atom_site_type_symbol
  _atom_site_label
  _atom_site_symmetry_multiplicity
  _atom_site_fract_x
  _atom_site_fract_y
  _atom_site_fract_z
  _atom_site_occupancy
  H   H1        1.0  0.6647520456243613  0.40179920563778654  0.35502190710479903  1.0000
  H   H2        1.0  0.16470806320412382  0.09820803277192168  0.644955592522912  1.0000
  H   H3        1.0  0.33526507073344197  0.5981977451363607  0.6449850274571318  1.0000
  H   H4        1.0  0.8352836836710723  0.901782505749608  0.3550408721569056  1.0000
  H   H5        1.0  0.4047045679458775  0.5986199483366336  0.2544905860343718  1.0000
  H   H6        1.0  0.9046487267974969  0.9013944977700701  0.7454857458308196  1.0000
  H   H7        1.0  0.5953200096887913  0.40137373547075594  0.7455037095664352  1.0000
  H   H8        1.0  0.09533406632980501  0.09858440391710131  0.2545060858229107  1.0000
  H   H9        1.0  0.30239339703990004  0.4463778758744894  0.1974318478686499  1.0000
  H   H10       1.0  0.8023418191512874  0.05362060145569809  0.8025510986464539  1.0000
  H   H11       1.0  0.6976356574713803  0.5536062377014022  0.8025526665189134  1.0000
  H   H12       1.0  0.197651419801268  0.9463804829783132  0.197445539200416  1.0000
  H   H13       1.0  0.6857445384497325  0.5758612835490808  0.49709718599234526  1.0000
  H   H14       1.0  0.18568343131623516  0.9241687373275198  0.5028830590484219  1.0000
  H   H15       1.0  0.31425914667968874  0.42414722540160454  0.5029047560433568  1.0000
  H   H16       1.0  0.8143038380972953  0.07584606292951433  0.497114544278034  1.0000
  H   H17       1.0  0.2327993895222917  0.7359585306516793  0.3760011676433592  1.0000
  H   H18       1.0  0.73271744568585  0.76407499990372  0.623996067687912  1.0000
  H   H19       1.0  0.7672251872770487  0.26406675453714  0.6239892049353131  1.0000
  H   H20       1.0  0.26722654733612927  0.23592301824952955  0.3760123645297071  1.0000
  H   H21       1.0  0.9699161640621697  0.7456645128587667  0.5054884217609086  1.0000
  H   H22       1.0  0.46983248869320704  0.7543374325284519  0.49452117362968545  1.0000
  H   H23       1.0  0.0301218450816947  0.25430601831967437  0.4945114163089244  1.0000
  H   H24       1.0  0.5301532881283251  0.24569745352913935  0.5054826820094008  1.0000
  Pb  Pb1       1.0  0.25106734998279023  0.8485943338120948  0.9499735160712177  1.0000
  Pb  Pb2       1.0  0.7510454863939701  0.6514146378248641  0.050026528433967606  1.0000
  Pb  Pb3       1.0  0.7489333505385501  0.1514247938833009  0.0500374840879161  1.0000
  Pb  Pb4       1.0  0.24893133689207758  0.34859912006511  0.949972538337704  1.0000
  C   C1        1.0  0.09754950189917368  0.5658413311105052  0.2917397021582815  1.0000
  C   C2        1.0  0.5974109221425152  0.934129133201822  0.7082420555213531  1.0000
  C   C3        1.0  0.9024855214738777  0.4341564678514944  0.7082420757113681  1.0000
  C   C4        1.0  0.4024853164067038  0.06584965400580241  0.2917357076558957  1.0000
  C   C5        1.0  0.7864844310888088  0.4777424345606891  0.3602525791709255  1.0000
  C   C6        1.0  0.2864033251037768  0.022274207366486103  0.6397245245043593  1.0000
  C   C7        1.0  0.21351925391031304  0.5222957546326795  0.6397683580928798  1.0000
  C   C8        1.0  0.7135481286645559  0.9777203921696651  0.36025275836372117  1.0000
  C   C9        1.0  0.26791162132703045  0.5562234153427214  0.21943250072119722  1.0000
  C   C10       1.0  0.7678349725392833  0.9437998193725009  0.7805435783701  1.0000
  C   C11       1.0  0.7321517562094897  0.443785056677612  0.7805649992221718  1.0000
  C   C12       1.0  0.23214334240943663  0.05621056848191591  0.219430262336239  1.0000
  C   C13       1.0  0.9328529586663663  0.473442205561632  0.2859996183599236  1.0000
  C   C14       1.0  0.43275654088516546  0.0265423120267911  0.7139819280105897  1.0000
  C   C15       1.0  0.0672059435765178  0.5265327743086557  0.7140284249034252  1.0000
  C   C16       1.0  0.5672038665132533  0.9734596453132555  0.2859925144653985  1.0000
  C   C17       1.0  0.7980454096792968  0.5755970009321913  0.4387063800557414  1.0000
  C   C18       1.0  0.2979772135529046  0.9244279369189671  0.5612864276130196  1.0000
  C   C19       1.0  0.20203736909087405  0.4244149865210219  0.5613341160661562  1.0000
  C   C20       1.0  0.7020175172035293  0.0755825539107562  0.438700000267687  1.0000
  C   C21       1.0  0.1057557791193631  0.6639720186450405  0.371073067181932  1.0000
  C   C22       1.0  0.6056857526736082  0.8360287903475907  0.6288981971045545  1.0000
  C   C23       1.0  0.8943046147673569  0.3359985244650757  0.6289282518693043  1.0000
  C   C24       1.0  0.39428211626820797  0.16396466952487293  0.3710687027405513  1.0000
  C   C25       1.0  0.901935091925779  0.37122076570047113  0.2009125633511886  1.0000
  C   C26       1.0  0.40191501955748526  0.12876546844713493  0.7990819130484398  1.0000
  C   C27       1.0  0.0980954563255736  0.6287520809743796  0.7991124834281891  1.0000
  C   C28       1.0  0.5981244807130038  0.8712418703361495  0.2009059440168954  1.0000
  C   C29       1.0  0.9575836325696867  0.6699131385107152  0.4436119348192448  1.0000
  C   C30       1.0  0.4574702195517376  0.830057432592291  0.5564021581626477  1.0000
  C   C31       1.0  0.04247526847732531  0.3300837876253837  0.5563920383611531  1.0000
  C   C32       1.0  0.542508096382825  0.1699394396709693  0.4435951507367264  1.0000
  C   C33       1.0  0.24428073602165057  0.6376552511418795  0.1251657349502153  1.0000
  C   C34       1.0  0.7442699557513991  0.8623621087755566  0.8748136253643608  1.0000
  C   C35       1.0  0.7557110105562616  0.3623447544488557  0.8748279239087893  1.0000
  C   C36       1.0  0.2556994057957027  0.137652661311698  0.1251802757641443  1.0000
  O   O1        1.0  0.10987914064527618  0.7314033194921096  0.11755526866085832  1.0000
  O   O2        1.0  0.6098924851372444  0.7686050761265905  0.8824502318938201  1.0000
  O   O3        1.0  0.8901170828368238  0.2686221479308912  0.882457316193495  1.0000
  O   O4        1.0  0.39011120065039506  0.23138451688373604  0.1175595430301328  1.0000
  O   O5        1.0  0.8329905294709192  0.24975610046634247  0.2190669006808861  1.0000
  O   O6        1.0  0.3329593820006735  0.2502612847763217  0.780974521036903  1.0000
  O   O7        1.0  0.16695047901615817  0.7502483119952716  0.7809497799818104  1.0000
  O   O8        1.0  0.6670174426226367  0.7497337512857244  0.2190560719201926  1.0000
  O   O9        1.0  0.9376904406863672  0.4107563921607281  0.1121510402789383  1.0000
  O   O10       1.0  0.4376549114037615  0.08923551749109043  0.8878425393345211  1.0000
  O   O11       1.0  0.0622475840969656  0.5891962785648559  0.8878566473233603  1.0000
  O   O12       1.0  0.5623577274832599  0.9107708336661847  0.1121534448056138  1.0000
  O   O13       1.0  0.36918892684573024  0.6109253497427645  0.0546952981354849  1.0000
  O   O14       1.0  0.8691824836932652  0.8890591788335346  0.9452837569489319  1.0000
  O   O15       1.0  0.630831174025552  0.38907475265039443  0.945310207562521  1.0000
  O   O16       1.0  0.13077941693117623  0.11093348733834325  0.0547149634084647  1.0000
