data_image0
_chemical_formula_structural       Na2MgH24C20O24
_chemical_formula_sum              "Na2 Mg1 H24 C20 O24"
_cell_length_a       7.2626942251964435
_cell_length_b       10.289737905651977
_cell_length_c       10.527010834849513
_cell_angle_alpha    85.62181401015862
_cell_angle_beta     69.86140578049975
_cell_angle_gamma    76.8827179945891

_space_group_name_H-M_alt    "P 1"
_space_group_IT_number       1

loop_
  _space_group_symop_operation_xyz
  'x, y, z'

loop_
  _atom_site_type_symbol
  _atom_site_label
  _atom_site_symmetry_multiplicity
  _atom_site_fract_x
  _atom_site_fract_y
  _atom_site_fract_z
  _atom_site_occupancy
  Na  Na1       1.0  0.30210380685478094  0.6401117855673419  0.9995779568074993  1.0000
  Na  Na2       1.0  0.6978963074120585  0.3598949727425094  0.00041958524419528665  1.0000
  Mg  Mg1       1.0  0.9999966901356316  5.982156779005905e-07  9.177809943639027e-07  1.0000
  H   H1        1.0  0.3728552431388509  0.49902653080683007  0.2547250707716202  1.0000
  H   H2        1.0  0.6271487417238006  0.5009712465896285  0.7452715116688537  1.0000
  H   H3        1.0  0.12601009962299517  0.5002745492414178  0.7482459712657173  1.0000
  H   H4        1.0  0.8739946116947056  0.49972024588308966  0.2517567468691766  1.0000
  H   H5        1.0  0.9257029078661176  0.833582954456794  0.5181835498165412  1.0000
  H   H6        1.0  0.5559254722038813  0.1657099951109942  0.5191526403555926  1.0000
  H   H7        1.0  0.07431566066738066  0.16641586308923453  0.4818201296449302  1.0000
  H   H8        1.0  0.44405868548090427  0.8342817642456453  0.4808496335732499  1.0000
  H   H9        1.0  0.31489773218739714  0.8844884281151905  0.07858729912339159  1.0000
  H   H10       1.0  0.6081005312673682  0.1180684911761318  0.08137023532834327  1.0000
  H   H11       1.0  0.6850800484206656  0.1155073171769772  0.9214171382078149  1.0000
  H   H12       1.0  0.3918967188954454  0.8819402884805072  0.9186427844131941  1.0000
  H   H13       1.0  0.3439667463280286  0.3676707603020333  0.9213118759154922  1.0000
  H   H14       1.0  0.7353711978780738  0.6320820369455191  0.9203655092603141  1.0000
  H   H15       1.0  0.6560375229695056  0.6323370071472211  0.07868705237015654  1.0000
  H   H16       1.0  0.2646254878131274  0.36792072995297076  0.07963678225184619  1.0000
  H   H17       1.0  0.7892532484575341  0.0660495663697489  0.26569228625420743  1.0000
  H   H18       1.0  0.9478415132322765  0.9331643052476224  0.26524901905758463  1.0000
  H   H19       1.0  0.21073963080144853  0.9339521970593195  0.7343112130160847  1.0000
  H   H20       1.0  0.05216431684078054  0.06684845719890832  0.7347496561224105  1.0000
  H   H21       1.0  0.041419991352270785  0.22564647676353639  0.0804033700391926  1.0000
  H   H22       1.0  0.878917501509669  0.7742967089873433  0.07978520726847903  1.0000
  H   H23       1.0  0.9585762006992837  0.7743532880180765  0.9195959781950905  1.0000
  H   H24       1.0  0.1210823170274295  0.22570805358770232  0.9202132834852179  1.0000
  C   C1        1.0  0.31804322518138395  0.4992930322078307  0.3646032509734667  1.0000
  C   C2        1.0  0.6819574053147971  0.5007007395829036  0.6353906452617721  1.0000
  C   C3        1.0  0.18103567153246292  0.5000544479228991  0.6383987117160856  1.0000
  C   C4        1.0  0.8189505518623437  0.4999373142298965  0.3616029578378103  1.0000
  C   C5        1.0  0.11119301982173366  0.6142878084260986  0.5732964297752331  1.0000
  C   C6        1.0  0.3157948008957233  0.38542537300271107  0.573522310580273  1.0000
  C   C7        1.0  0.8888214735376749  0.38570598862715133  0.426696780512998  1.0000
  C   C8        1.0  0.6842026618490493  0.6145733938823739  0.4264760859767732  1.0000
  C   C9        1.0  0.1862405779709135  0.6149025846809053  0.4296214394202094  1.0000
  C   C10       1.0  0.38480232056814145  0.38408437629691855  0.4297884986932416  1.0000
  C   C11       1.0  0.8137594205128522  0.38509818357013603  0.5703767010559416  1.0000
  C   C12       1.0  0.6151942785980679  0.6159094069308609  0.5702153389536234  1.0000
  C   C13       1.0  0.1411005151344183  0.7268497809141508  0.3344589472887165  1.0000
  C   C14       1.0  0.525152195433634  0.27163085309047824  0.3349201986722647  1.0000
  C   C15       1.0  0.8589059076473904  0.2731490084955368  0.6655422197527372  1.0000
  C   C16       1.0  0.47485802711200614  0.7283559447645587  0.6650722238064688  1.0000
  C   C17       1.0  0.9622652872220455  0.7214872649861944  0.671221759651658  1.0000
  C   C18       1.0  0.3658354536612902  0.27852494359058255  0.6717631067856686  1.0000
  C   C19       1.0  0.03774382198734117  0.27851252507734603  0.3287778533211139  1.0000
  C   C20       1.0  0.634173859105431  0.7214718556960448  0.3282387508933908  1.0000
  O   O1        1.0  0.24302077821916152  0.7157141084621018  0.21112000884829743  1.0000
  O   O2        1.0  0.5466313394509471  0.2820420917321158  0.211482568663456  1.0000
  O   O3        1.0  0.756980171617421  0.2842826626105293  0.7888755336687724  1.0000
  O   O4        1.0  0.45337684201628997  0.717962699056926  0.7885222372522236  1.0000
  O   O5        1.0  0.875526541801392  0.831490430970952  0.628333246949893  1.0000
  O   O6        1.0  0.4953965191448831  0.16822824785853643  0.6290916996381383  1.0000
  O   O7        1.0  0.12447823807806199  0.16850834711818408  0.37166368279288514  1.0000
  O   O8        1.0  0.5045883300894404  0.8317675199970649  0.3709174095484613  1.0000
  O   O9        1.0  0.9972847600068846  0.828091549434944  0.3834636951447549  1.0000
  O   O10       1.0  0.6198765746229286  0.17074047389503733  0.38410266740508797  1.0000
  O   O11       1.0  0.0027408815510341863  0.17192125802195327  0.6165386196330758  1.0000
  O   O12       1.0  0.3801003637470117  0.8292522636102715  0.6158962326561477  1.0000
  O   O13       1.0  0.9236073647655231  0.699228141210881  0.7953281246037348  1.0000
  O   O14       1.0  0.27974720744805376  0.3012689235396451  0.7958049729772724  1.0000
  O   O15       1.0  0.07639249997194492  0.3007616362752684  0.2046663720394477  1.0000
  O   O16       1.0  0.7202707324502244  0.6987338656310486  0.2041877301079112  1.0000
  O   O17       1.0  0.3007908834649908  0.9349256342721122  0.9983968446288785  1.0000
  O   O18       1.0  0.6991934315767522  0.06507811939651019  0.0016116681167588187  1.0000
  O   O19       1.0  0.35150362911041805  0.40890818160220016  0.0005227943224354924  1.0000
  O   O20       1.0  0.6484949423441291  0.5910985824164569  0.9994792430923309  1.0000
  O   O21       1.0  0.8997617606678716  0.9999197025507768  0.20368908599165533  1.0000
  O   O22       1.0  0.10024681999637128  8.407616679310003e-05  0.7963082832665691  1.0000
  O   O23       1.0  0.011280901531897286  0.20350821874902186  0.00030746886414330425  1.0000
  O   O24       1.0  0.98871334059271  0.7964975332952378  0.9996918853206297  1.0000
