data_image0
_chemical_formula_structural       Zn2H17C28N3O10
_chemical_formula_sum              "Zn2 H17 C28 N3 O10"
_cell_length_a       9.726861280635477
_cell_length_b       11.129305582253485
_cell_length_c       14.22828104860022
_cell_angle_alpha    86.35146085771862
_cell_angle_beta     98.66177233296128
_cell_angle_gamma    88.76354987668464

_space_group_name_H-M_alt    "P 1"
_space_group_IT_number       1

loop_
  _space_group_symop_operation_xyz
  'x, y, z'

loop_
  _atom_site_type_symbol
  _atom_site_label
  _atom_site_symmetry_multiplicity
  _atom_site_fract_x
  _atom_site_fract_y
  _atom_site_fract_z
  _atom_site_occupancy
  Zn  Zn1       1.0  0.1364494329489148  0.493776706294291  0.4741375267684519  1.0000
  Zn  Zn2       1.0  0.8658082243010768  0.49867231152337854  0.5145360469688003  1.0000
  H   H1        1.0  0.7516294857913407  0.2502529190389707  0.9150674653573037  1.0000
  H   H2        1.0  0.921126510614556  0.518978784732731  0.8238405593333058  1.0000
  H   H3        1.0  0.20164267662921284  0.5173611414832352  0.12628089385092525  1.0000
  H   H4        1.0  0.9522840080854634  0.2760592841204356  0.039414345639855214  1.0000
  H   H5        1.0  0.05040076698040959  0.3522279822743855  0.19649838763764654  1.0000
  H   H6        1.0  0.6515236895689043  0.4987761538815645  0.2269644786754982  1.0000
  H   H7        1.0  0.5115215515740131  0.29150508574110023  0.8475609071103849  1.0000
  H   H8        1.0  0.44991719695559584  0.4872785795801349  0.18864629813671746  1.0000
  H   H9        1.0  0.013469213049880599  0.5297008306159086  0.9971244874565743  1.0000
  H   H10       1.0  0.807837298499649  0.11151828700311478  0.499083155852283  1.0000
  H   H11       1.0  0.12718415209414496  0.0856072765593154  0.5245009389649767  1.0000
  H   H12       1.0  0.8165291311057175  0.8872856941048323  0.5288302800083431  1.0000
  H   H13       1.0  0.09835265943137729  0.9007590511849484  0.4557965013510741  1.0000
  H   H14       1.0  0.3842035746878238  0.33735295013539707  0.5601854447416061  1.0000
  H   H15       1.0  0.39357043892861293  0.5805767981066552  0.47020162957654327  1.0000
  H   H16       1.0  0.6340473259608358  0.38616628484793125  0.6276135935520132  1.0000
  H   H17       1.0  0.6012700566919236  0.5323681409136682  0.4465080797342581  1.0000
  C   C1        1.0  0.0053352661700713875  0.7287599178904074  0.4868420727909994  1.0000
  C   C2        1.0  0.9120428892328788  0.4750424295515926  0.3140362038870351  1.0000
  C   C3        1.0  0.01953785115942  0.26157842050727  0.5066710614777605  1.0000
  C   C4        1.0  0.06329894906034636  0.4801597496641177  0.6826653747443105  1.0000
  C   C5        1.0  0.8541307557828971  0.43093573773898436  0.21909294792954637  1.0000
  C   C6        1.0  0.11937138164022087  0.4670437207688564  0.7875486279221848  1.0000
  C   C7        1.0  0.8861676988686399  0.3250880478048614  0.08047441138021585  1.0000
  C   C8        1.0  0.9410285607762249  0.3673169806933174  0.1668003018191869  1.0000
  C   C9        1.0  0.713717413902458  0.44922873042924744  0.18402218062221468  1.0000
  C   C10       1.0  0.6543418671301565  0.40774761135111953  0.09567839529087512  1.0000
  C   C11       1.0  0.7436834867377157  0.34548988839769373  0.042607632537183804  1.0000
  C   C12       1.0  0.5082996359956837  0.4272169991084453  0.057056839022507716  1.0000
  C   C13       1.0  0.45795164002889516  0.39727525946305775  0.9624675400645305  1.0000
  C   C14       1.0  0.5497428037173648  0.32963352188362177  0.9145218155426992  1.0000
  C   C15       1.0  0.6856163895109404  0.3038256336739664  0.9532227897906582  1.0000
  C   C16       1.0  0.4128670810770245  0.4713928531672878  0.11455695877133115  1.0000
  C   C17       1.0  0.2745851926344969  0.4887815253043325  0.08021453209606484  1.0000
  C   C18       1.0  0.22258660476119013  0.4737812333043151  0.982797242748781  1.0000
  C   C19       1.0  0.3154180900437638  0.4327492519653475  0.921168502248243  1.0000
  C   C20       1.0  0.08107950657091577  0.5019804156127705  0.9473577598127678  1.0000
  C   C21       1.0  0.029651143851935978  0.4967051393138319  0.8522484088176018  1.0000
  C   C22       1.0  0.2577607355267943  0.43543621055013654  0.8230309367119235  1.0000
  C   C23       1.0  0.9079596821242788  0.06258933078038349  0.5058866488760432  1.0000
  C   C24       1.0  0.02352537432187058  0.1283357840755812  0.5135773279600075  1.0000
  C   C25       1.0  0.9070309428589028  0.9321284846530415  0.5075226698912021  1.0000
  C   C26       1.0  0.008398105781196808  0.8618930297302541  0.4823483164546759  1.0000
  C   C27       1.0  0.4300140172181841  0.4205396652272595  0.5357256330190909  1.0000
  C   C28       1.0  0.5819543317883528  0.4334844291328179  0.5616487749358188  1.0000
  N   N1        1.0  0.3485029348215464  0.500779819764972  0.4866109501771804  1.0000
  N   N2        1.0  0.6552133728113175  0.4940658515019152  0.5093614264141311  1.0000
  N   N3        1.0  0.3484660643288393  0.40570794797998383  0.7525229772337385  1.0000
  O   O1        1.0  0.10884093781008633  0.6752181338205927  0.4595397213114795  1.0000
  O   O2        1.0  0.9029718526592563  0.6772747148390934  0.5171000311477487  1.0000
  O   O3        1.0  0.043940823956504  0.4662963746686303  0.33834584994096434  1.0000
  O   O4        1.0  0.8261064983489487  0.5154817989546884  0.3645465660904606  1.0000
  O   O5        1.0  0.13657981393550497  0.31119581021930287  0.5043989266073015  1.0000
  O   O6        1.0  0.9025987950118193  0.3175487624928905  0.5022914716627582  1.0000
  O   O7        1.0  0.14954585443639698  0.5039565534643201  0.6261509683353383  1.0000
  O   O8        1.0  0.9326426779070616  0.4695955087196351  0.65950814526164  1.0000
  O   O9        1.0  0.43624236289607393  0.4794083301901893  0.734897608834068  1.0000
  O   O10       1.0  0.3344400113803516  0.30590817528413067  0.7187665807224023  1.0000
