data_image0
_chemical_formula_structural       Zn2H52C66N4O16F12
_chemical_formula_sum              "Zn2 H52 C66 N4 O16 F12"
_cell_length_a       17.231865287135662
_cell_length_b       18.339805071990565
_cell_length_c       19.121068776239724
_cell_angle_alpha    90.0462266296881
_cell_angle_beta     88.88320219978672
_cell_angle_gamma    83.4090390555953

_space_group_name_H-M_alt    "P 1"
_space_group_IT_number       1

loop_
  _space_group_symop_operation_xyz
  'x, y, z'

loop_
  _atom_site_type_symbol
  _atom_site_label
  _atom_site_symmetry_multiplicity
  _atom_site_fract_x
  _atom_site_fract_y
  _atom_site_fract_z
  _atom_site_occupancy
  Zn  Zn1       1.0  0.4897128597610632  0.5811631914765274  0.5025278564325719  1.0000
  Zn  Zn2       1.0  0.49661074590751764  0.42657021272383844  0.5020975394280429  1.0000
  H   H1        1.0  0.7321884913282303  0.5991941862708998  0.5300375436025534  1.0000
  H   H2        1.0  0.668135524350852  0.4109555649407497  0.8115936912679802  1.0000
  H   H3        1.0  0.6055465440015056  0.6006452736102901  0.0656373649704847  1.0000
  H   H4        1.0  0.60014725476821  0.3705572152711127  0.9318001177958027  1.0000
  H   H5        1.0  0.6807498113217249  0.579299472640841  0.8476224485482293  1.0000
  H   H6        1.0  0.7301753669122704  0.6191527038056537  0.9167779918665038  1.0000
  H   H7        1.0  0.6587720276239964  0.7433949190803802  0.8872507455082332  1.0000
  H   H8        1.0  0.7151278314042528  0.7041536398686077  0.8145861878841247  1.0000
  H   H9        1.0  0.611863552815521  0.7023167281692934  0.8174586002196949  1.0000
  H   H10       1.0  0.6773779530656441  0.3759268901517957  0.14906055535096394  1.0000
  H   H11       1.0  0.729993218740077  0.3213988555170317  0.08245676865010411  1.0000
  H   H12       1.0  0.25887990008261136  0.40764609209332997  0.4437510704718975  1.0000
  H   H13       1.0  0.6519847164558288  0.21663704084622282  0.11380585306549312  1.0000
  H   H14       1.0  0.7042705014142854  0.24473529161434018  0.18682361200457365  1.0000
  H   H15       1.0  0.601880326464169  0.272075192671629  0.18092351495752726  1.0000
  H   H16       1.0  0.6038255107607142  0.7469569303633748  0.32605174503734  1.0000
  H   H17       1.0  0.6786039412221285  0.7444200137275274  0.3896644931696543  1.0000
  H   H18       1.0  0.7177332905815632  0.863926446555979  0.342600157396305  1.0000
  H   H19       1.0  0.7243449408458603  0.7950579988811131  0.2763759021200585  1.0000
  H   H20       1.0  0.6438626340942123  0.865214819998137  0.27839080410385014  1.0000
  H   H21       1.0  0.3315857665525642  0.1249588814397242  0.5023319690526409  1.0000
  H   H22       1.0  0.28171597690426603  0.21299340213311524  0.5251686258213227  1.0000
  H   H23       1.0  0.5731465132442821  0.6826589153572655  0.42068577044196337  1.0000
  H   H24       1.0  0.24795312430833866  0.16267780094467812  0.6440959836094964  1.0000
  H   H25       1.0  0.2092223409347724  0.11406213533996377  0.5747506253526283  1.0000
  H   H26       1.0  0.2944727083109626  0.07457241586762112  0.6180947220945755  1.0000
  H   H27       1.0  0.49744311744782993  0.3404084768100261  0.30851856716841314  1.0000
  H   H28       1.0  0.4459342467054341  0.3279526306306764  0.22945282919442192  1.0000
  H   H29       1.0  0.31801727013557  0.3505707695388764  0.29830036601442345  1.0000
  H   H30       1.0  0.37917230121119155  0.274943295416172  0.33298953615685895  1.0000
  H   H31       1.0  0.3715748285888694  0.3622231718828388  0.3758091700128859  1.0000
  H   H32       1.0  0.458543090189842  0.6760902711299864  0.7033768801517155  1.0000
  H   H33       1.0  0.45153551680544257  0.6750956788408546  0.7972517082266466  1.0000
  H   H34       1.0  0.40325975606089065  0.32076459259341317  0.5714571357443605  1.0000
  H   H35       1.0  0.3442005492806786  0.7626336562758808  0.7444496565740979  1.0000
  H   H36       1.0  0.31068047143195093  0.6877536012963928  0.6992483685983544  1.0000
  H   H37       1.0  0.3060863278251702  0.6910386611900989  0.7925644544230794  1.0000
  H   H38       1.0  0.41881315295078275  0.5064377961405739  0.07911830755251972  1.0000
  H   H39       1.0  0.3676565848012388  0.4780268863239315  0.15504562802185265  1.0000
  H   H40       1.0  0.34629754987506095  0.36078849445713257  0.09366868410747031  1.0000
  H   H41       1.0  0.30690920772629937  0.4382923531671139  0.044458363984759317  1.0000
  H   H42       1.0  0.3980145554837691  0.38852552060287593  0.018472764761035907  1.0000
  H   H43       1.0  0.40890056479856435  0.49759376419839196  0.9317095342768342  1.0000
  H   H44       1.0  0.3589645209138225  0.5406860248317926  0.8586237211492431  1.0000
  H   H45       1.0  0.49598555478653594  0.9348389383901362  0.6046171660265075  1.0000
  H   H46       1.0  0.33412186088180823  0.6586562279905904  0.9266226439928789  1.0000
  H   H47       1.0  0.2943746478461264  0.5862344093840973  0.972031426009764  1.0000
  H   H48       1.0  0.38390847335036676  0.6162653048037754  0.9993821477496215  1.0000
  H   H49       1.0  0.48491199583740746  0.07315258769249057  0.3811858527009449  1.0000
  H   H50       1.0  0.4920080497894118  0.0698691187887732  0.6065048785758764  1.0000
  H   H51       1.0  0.4874047119828688  0.9382408358911078  0.37933602553504653  1.0000
  H   H52       1.0  0.6753595084412254  0.5536686473427392  0.17545442901937497  1.0000
  C   C1        1.0  0.49743275976108947  0.5003814296248947  0.6366274817981152  1.0000
  C   C2        1.0  0.5872659217687897  0.44845706579069866  0.7318127828617664  1.0000
  C   C3        1.0  0.5370055001987026  0.50479440823964  0.2912729350406097  1.0000
  C   C4        1.0  0.521813034075656  0.49525010163696254  0.711606253458392  1.0000
  C   C5        1.0  0.6070516992821169  0.5492742296908659  0.036599966707910915  1.0000
  C   C6        1.0  0.6037372835458257  0.4213566784123586  0.9606794884310478  1.0000
  C   C7        1.0  0.6072570926321248  0.5524342541840853  0.9638332676566963  1.0000
  C   C8        1.0  0.6081518202143245  0.4175677980257717  0.03351169387032371  1.0000
  C   C9        1.0  0.5983557112607443  0.4884486048360728  0.9251164179215298  1.0000
  C   C10       1.0  0.6023529199496096  0.48331543242141356  0.07283666282033611  1.0000
  C   C11       1.0  0.5368967448254481  0.7225718102298802  0.45282446893099876  1.0000
  C   C12       1.0  0.5146307036834231  0.5098647547790165  0.3674436879357971  1.0000
  C   C13       1.0  0.44228754757470773  0.28338147193436913  0.5388881415442414  1.0000
  C   C14       1.0  0.5395814505036752  0.7981928361550957  0.44751916870693276  1.0000
  C   C15       1.0  0.43651386097861433  0.20835546689615111  0.5384959019161499  1.0000
  C   C16       1.0  0.34305703890718314  0.5109580388445993  0.48902948665306695  1.0000
  C   C17       1.0  0.6445377134558399  0.49168812784196814  0.5057617597483954  1.0000
  C   C18       1.0  0.4905090022541359  0.8466870262913488  0.4921401486050956  1.0000
  C   C19       1.0  0.4882919456160624  0.16110924422529393  0.4954297733502886  1.0000
  C   C20       1.0  0.440736703189593  0.8140689422056867  0.5377436833605389  1.0000
  C   C21       1.0  0.542553459141665  0.1946031550187826  0.455259596293324  1.0000
  C   C22       1.0  0.4407720979873773  0.7381119504715272  0.5391390536037123  1.0000
  C   C23       1.0  0.5184011268917885  0.45501585746220036  0.17499364492039154  1.0000
  C   C24       1.0  0.5449413084465746  0.27023210297303285  0.459126897614624  1.0000
  C   C25       1.0  0.4925343353558063  0.9651189700964833  0.5555783779589094  1.0000
  C   C26       1.0  0.48708266105287384  0.04284219567353631  0.43024430417374776  1.0000
  C   C27       1.0  0.4906264933005034  0.0410497560908283  0.556798987605319  1.0000
  C   C28       1.0  0.4884690476206971  0.9669063411899687  0.42911819947848795  1.0000
  C   C29       1.0  0.48787458069408984  0.0807347603828177  0.4939956074640933  1.0000
  C   C30       1.0  0.49101118901411683  0.9270848951327936  0.491872728289181  1.0000
  C   C31       1.0  0.2561400020529376  0.5189589707851854  0.479976759659401  1.0000
  C   C32       1.0  0.7321064347729305  0.48564890895011803  0.501941395200987  1.0000
  C   C33       1.0  0.22137839733083098  0.45773217948077877  0.45718983713598504  1.0000
  C   C34       1.0  0.5074778179983781  0.5375856486006114  0.8328243428837258  1.0000
  C   C35       1.0  0.768398035943072  0.5488013936025528  0.5151179462972311  1.0000
  C   C36       1.0  0.14134857817221294  0.46017793888373865  0.452842457064648  1.0000
  C   C37       1.0  0.8483524429841223  0.5476613712168189  0.5085399487467513  1.0000
  C   C38       1.0  0.09077588627719278  0.5240154820401486  0.4707413857514738  1.0000
  C   C39       1.0  0.8971789794077124  0.4833072641814198  0.4884259683590459  1.0000
  C   C40       1.0  0.1267305623131776  0.5861646025499923  0.489447562529577  1.0000
  C   C41       1.0  0.8597720588374713  0.41992371550457364  0.47761071608378824  1.0000
  C   C42       1.0  0.2076094446060424  0.5839527054053875  0.4948001058161611  1.0000
  C   C43       1.0  0.778942965918084  0.42070826927778177  0.48386762579556847  1.0000
  C   C44       1.0  0.4964278781733284  0.4629449070907086  0.24604702368016265  1.0000
  C   C45       1.0  0.5836894521675475  0.48700783010024656  0.14865132932203554  1.0000
  C   C46       1.0  0.48229476380905834  0.5405893331289134  0.763163552814625  1.0000
  C   C47       1.0  0.6762701761493375  0.6246168217138006  0.8858847262944356  1.0000
  C   C48       1.0  0.664621330776221  0.6980901268615867  0.8492027643912154  1.0000
  C   C49       1.0  0.6739931930340363  0.33041899587593804  0.1120858976756054  1.0000
  C   C50       1.0  0.6568776593089963  0.2618258865148562  0.15062009285013295  1.0000
  C   C51       1.0  0.6391379193183298  0.781080078104708  0.35707296453230003  1.0000
  C   C52       1.0  0.6837580912725799  0.8294694911134286  0.3110143438252777  1.0000
  C   C53       1.0  0.31308675248543244  0.1622288794685574  0.5463734103487  1.0000
  C   C54       1.0  0.26349131791268127  0.1262214751961892  0.5991813861374312  1.0000
  C   C55       1.0  0.44213959446037165  0.3548184965286866  0.28116999758110245  1.0000
  C   C56       1.0  0.5754632062311131  0.49183156387407234  0.8509418930562662  1.0000
  C   C57       1.0  0.3734515971212319  0.33463807476627483  0.3247081754056468  1.0000
  C   C58       1.0  0.42230773293170637  0.6627674332725918  0.748677717867338  1.0000
  C   C59       1.0  0.34085229398644407  0.7031732044230594  0.7461144323357873  1.0000
  C   C60       1.0  0.40334122292758673  0.4584147477915863  0.10884778960668483  1.0000
  C   C61       1.0  0.36124388846552347  0.4084377159437977  0.06364767965167323  1.0000
  C   C62       1.0  0.39331282308011595  0.5504908150656861  0.9050179388899124  1.0000
  C   C63       1.0  0.34891501668087704  0.6062627192897665  0.9536985727937908  1.0000
  C   C64       1.0  0.6244835376799571  0.5285592194420019  0.19407079493253582  1.0000
  C   C65       1.0  0.6153358644205227  0.4468674684659816  0.7993451443571191  1.0000
  C   C66       1.0  0.5997644430654674  0.5375894510787305  0.26322698206525535  1.0000
  N   N1        1.0  0.009036850784134704  0.5329165041223191  0.4706036480680852  1.0000
  N   N2        1.0  0.9787108584707979  0.4744103993978044  0.4842450087498733  1.0000
  N   N3        1.0  0.487850372299711  0.6941632519339861  0.4986061095344852  1.0000
  N   N4        1.0  0.4963378611741831  0.3132915301107104  0.4995927500651904  1.0000
  O   O1        1.0  0.4992281725799615  0.56265459375728  0.6078804108669689  1.0000
  O   O2        1.0  0.6120431858647278  0.3490413426930346  0.0632030875063663  1.0000
  O   O3        1.0  0.5876862784434637  0.8291922234351575  0.4024409658954512  1.0000
  O   O4        1.0  0.3822169528206203  0.18143587126463248  0.5816542286525463  1.0000
  O   O5        1.0  0.4315067241698429  0.43391604638389236  0.2716199741128237  1.0000
  O   O6        1.0  0.41557890205397996  0.5844787908369897  0.745722016060654  1.0000
  O   O7        1.0  0.4748018073912731  0.41654855470875424  0.13165677066280077  1.0000
  O   O8        1.0  0.4647127434649008  0.5793926819207942  0.8831850106535771  1.0000
  O   O9        1.0  0.5169909299613734  0.4487299277994127  0.3990434451890722  1.0000
  O   O10       1.0  0.4795677772803444  0.442261990102935  0.6077928447931172  1.0000
  O   O11       1.0  0.49658369920024364  0.5731683074210209  0.3936430673894337  1.0000
  O   O12       1.0  0.3744668357440801  0.5691247509692586  0.4992616781440662  1.0000
  O   O13       1.0  0.6132655104699224  0.4335873256564398  0.5172929479269756  1.0000
  O   O14       1.0  0.3775186248277151  0.4457604507295585  0.48599936214670714  1.0000
  O   O15       1.0  0.6098749460573458  0.5560407654911614  0.4968164445198583  1.0000
  O   O16       1.0  0.6101845273199659  0.619896161620332  0.9326733162320341  1.0000
  F   F1        1.0  0.3898663516366838  0.8550212688052952  0.5808425189806103  1.0000
  F   F2        1.0  0.7488941884356421  0.3577283869430374  0.46970879215082584  1.0000
  F   F3        1.0  0.6408810816304538  0.578438220973986  0.306158986031818  1.0000
  F   F4        1.0  0.6278316530680356  0.4046734247702943  0.6826415012105616  1.0000
  F   F5        1.0  0.5957514484703595  0.15466048715552463  0.41355027641434833  1.0000
  F   F6        1.0  0.39163183512932426  0.7080371896025568  0.5826745906685604  1.0000
  F   F7        1.0  0.5981595221055472  0.30080350946504103  0.4207502297049643  1.0000
  F   F8        1.0  0.8803157114515373  0.609481907484529  0.5247377748660114  1.0000
  F   F9        1.0  0.11123761708713431  0.40012537889298727  0.4286255074375094  1.0000
  F   F10       1.0  0.08195847906855391  0.6490514337593466  0.5064298968586345  1.0000
  F   F11       1.0  0.9028950802352188  0.3568431224155547  0.4584778762881997  1.0000
  F   F12       1.0  0.23501751858884026  0.6459284498697571  0.5165864332253349  1.0000
