data_image0
_chemical_formula_structural       Ag2H12C14S2N6O6F6
_chemical_formula_sum              "Ag2 H12 C14 S2 N6 O6 F6"
_cell_length_a       7.176103278943651
_cell_length_b       8.744086002555457
_cell_length_c       10.344559815386056
_cell_angle_alpha    99.37554167546507
_cell_angle_beta     105.77595951179164
_cell_angle_gamma    110.72561255208988

_space_group_name_H-M_alt    "P 1"
_space_group_IT_number       1

loop_
  _space_group_symop_operation_xyz
  'x, y, z'

loop_
  _atom_site_type_symbol
  _atom_site_label
  _atom_site_symmetry_multiplicity
  _atom_site_fract_x
  _atom_site_fract_y
  _atom_site_fract_z
  _atom_site_occupancy
  Ag  Ag1       1.0  0.17403105874224414  0.23771550081978884  0.11714774180720867  1.0000
  Ag  Ag2       1.0  0.8259681610260471  0.7622836429193993  0.8828488026144257  1.0000
  H   H1        1.0  0.1818241633351576  0.23747829509015614  0.4396532360760119  1.0000
  H   H2        1.0  0.8181767634502961  0.7625107305742918  0.560353948829068  1.0000
  H   H3        1.0  0.3805349339365732  0.4223125993683823  0.687831942820857  1.0000
  H   H4        1.0  0.6194630930801351  0.5776764476966321  0.312175644575909  1.0000
  H   H5        1.0  0.8373618665013678  0.3510518520008574  0.9430972099730041  1.0000
  H   H6        1.0  0.16264861121430138  0.6489549452246949  0.05690444865019371  1.0000
  H   H7        1.0  0.47929304474167367  0.3459777484194362  0.9351535112591735  1.0000
  H   H8        1.0  0.5207171882873708  0.6540366847677317  0.06484520944110975  1.0000
  H   H9        1.0  0.47333437360036607  0.08045269873054649  0.233544455538933  1.0000
  H   H10       1.0  0.5266646207695018  0.9195540603448434  0.7664472185415292  1.0000
  H   H11       1.0  0.8265805587969625  0.08177719990928979  0.240147546486007  1.0000
  H   H12       1.0  0.17341578049078524  0.918221944605051  0.7598474680090703  1.0000
  C   C1        1.0  0.18033565603514012  0.774261549753177  0.38781178484786233  1.0000
  C   C2        1.0  0.8196579337494754  0.225732539270922  0.6121868790330184  1.0000
  C   C3        1.0  0.32293287668539966  0.35581540350173674  0.4658580197537249  1.0000
  C   C4        1.0  0.6770644846547498  0.6441723564871398  0.5341483060189632  1.0000
  C   C5        1.0  0.43454886838917867  0.4585735487899995  0.6041091265073391  1.0000
  C   C6        1.0  0.5654498243040963  0.54141678535116  0.39589972251351213  1.0000
  C   C7        1.0  0.7560900696258412  0.29163226740981674  0.008586844129077077  1.0000
  C   C8        1.0  0.24391539758219244  0.7083732696840954  0.9914136735030114  1.0000
  C   C9        1.0  0.559408484694778  0.28926639881976257  0.004602746613670682  1.0000
  C   C10       1.0  0.4405950529922576  0.71073520485681  0.9953872226822966  1.0000
  C   C11       1.0  0.556312873726675  0.1422062617665816  0.1695818260620783  1.0000
  C   C12       1.0  0.443688221737979  0.8578017891537187  0.8304123577103086  1.0000
  C   C13       1.0  0.7520462053012267  0.14412205993410507  0.17336641990817012  1.0000
  C   C14       1.0  0.2479492987561398  0.8558808950203055  0.8266260184869622  1.0000
  S   S1        1.0  0.9916238807575724  0.8237818295830478  0.2557351690349918  1.0000
  S   S2        1.0  0.0083801220999504  0.17622373368020308  0.7442669991566362  1.0000
  N   N1        1.0  0.3883899477032315  0.3977063577112574  0.36161888669708026  1.0000
  N   N2        1.0  0.6116080503811859  0.6022827202918606  0.6383915993270648  1.0000
  N   N3        1.0  0.8524683265170907  0.2185633497492105  0.09236277372360749  1.0000
  N   N4        1.0  0.14754003081559827  0.7814421762568386  0.9076383076259164  1.0000
  N   N5        1.0  0.4586716940331995  0.21424944581735872  0.08463977897017122  1.0000
  N   N6        1.0  0.541330761716871  0.785761148317114  0.9153540294230068  1.0000
  O   O1        1.0  0.1348746352940893  0.9715144098202371  0.2286969768013378  1.0000
  O   O2        1.0  0.865138863523633  0.028487320052057893  0.7713104248516558  1.0000
  O   O3        1.0  0.8860573011485258  0.6664163770354675  0.13884052471409086  1.0000
  O   O4        1.0  0.11394240509841318  0.33358916160877067  0.8611569330648906  1.0000
  O   O5        1.0  0.8538958411936973  0.8586122738072534  0.325461716831427  1.0000
  O   O6        1.0  0.14610332071001145  0.14138693180814244  0.6745406248449655  1.0000
  F   F1        1.0  0.2840780854452589  0.9016269748601075  0.5098009614745109  1.0000
  F   F2        1.0  0.7159198202381276  0.09836711815760421  0.490200480400766  1.0000
  F   F3        1.0  0.0766473202787736  0.6278406016626404  0.41692476015384733  1.0000
  F   F4        1.0  0.9233396905825941  0.3721548227826688  0.5830756884757876  1.0000
  F   F5        1.0  0.3285184758422162  0.7524739929831625  0.3371150355647785  1.0000
  F   F6        1.0  0.6714737440128928  0.24751756313946768  0.6628849699044396  1.0000
