data_image0
_chemical_formula_structural       Cd4H24C36I4N12O8
_chemical_formula_sum              "Cd4 H24 C36 I4 N12 O8"
_cell_length_a       7.681427604043545
_cell_length_b       7.8150973798408305
_cell_length_c       18.319290832124516
_cell_angle_alpha    89.99990162548126
_cell_angle_beta     90.00042448688542
_cell_angle_gamma    103.79494497403016

_space_group_name_H-M_alt    "P 1"
_space_group_IT_number       1

loop_
  _space_group_symop_operation_xyz
  'x, y, z'

loop_
  _atom_site_type_symbol
  _atom_site_label
  _atom_site_symmetry_multiplicity
  _atom_site_fract_x
  _atom_site_fract_y
  _atom_site_fract_z
  _atom_site_occupancy
  Cd  Cd1       1.0  0.6334030503279278  0.9737445483910248  0.7810346910755898  1.0000
  Cd  Cd2       1.0  0.3665931551991192  0.5262557088812938  0.28103636982505986  1.0000
  Cd  Cd3       1.0  0.3665952945538606  0.026255562687630598  0.2189664623507142  1.0000
  Cd  Cd4       1.0  0.6334064954574713  0.47374441892281266  0.7189626001126399  1.0000
  H   H1        1.0  0.5340827031919914  0.36656914329677187  0.8888871839419039  1.0000
  H   H2        1.0  0.46591494201502565  0.13342812822045858  0.38888909515193154  1.0000
  H   H3        1.0  0.46591795017857135  0.6334296837592956  0.11111287774315308  1.0000
  H   H4        1.0  0.5340804881747019  0.8665706319335411  0.6111104206523379  1.0000
  H   H5        1.0  0.5724943295784041  0.15606289045762617  0.9855815652457808  1.0000
  H   H6        1.0  0.4275046207311348  0.3439383215811845  0.48558156667441205  1.0000
  H   H7        1.0  0.42750923846980976  0.8439372875230474  0.014418496443333602  1.0000
  H   H8        1.0  0.572492418342236  0.6560617727719132  0.5144179491318823  1.0000
  H   H9        1.0  0.7593934931615606  0.2576685207570221  0.0935068948868576  1.0000
  H   H10       1.0  0.24060538941461826  0.24233407281303695  0.5935074328166152  1.0000
  H   H11       1.0  0.24061007488185024  0.7423316572236444  0.9064926209295977  1.0000
  H   H12       1.0  0.7593939581667399  0.7576647375175225  0.40649317473906177  1.0000
  H   H13       1.0  0.8776354932261794  0.7898083028416634  0.0065242621927766  1.0000
  H   H14       1.0  0.12236532508237018  0.7101933752810367  0.506527729568532  1.0000
  H   H15       1.0  0.12236285164120629  0.21019180823694933  0.9934752536155499  1.0000
  H   H16       1.0  0.8776363310117786  0.28980415102700613  0.4934745156091934  1.0000
  H   H17       1.0  0.035168754823040195  0.8753194113195873  0.09805429817186  1.0000
  H   H18       1.0  0.9648306661046173  0.6246861736158633  0.5980544522100574  1.0000
  H   H19       1.0  0.964831198932792  0.12468203395813758  0.901945763511158  1.0000
  H   H20       1.0  0.03516637297836671  0.3753139207372627  0.40194615534155537  1.0000
  H   H21       1.0  0.966482229595641  0.3503191375297233  0.1747750684205869  1.0000
  H   H22       1.0  0.0335206947588276  0.14968349354781907  0.6747777564016815  1.0000
  H   H23       1.0  0.03352073225408952  0.6496784055037206  0.8252228097778982  1.0000
  H   H24       1.0  0.9664779532126031  0.8503179350044263  0.3252233970246223  1.0000
  C   C1        1.0  0.686377087639066  0.7236177462748399  0.8856196987231187  1.0000
  C   C2        1.0  0.31361774064188797  0.7763798478195552  0.38562321468641153  1.0000
  C   C3        1.0  0.3136222599326857  0.2763810640556983  0.11437981708724722  1.0000
  C   C4        1.0  0.6863806042351043  0.223620263259086  0.6143773928672402  1.0000
  C   C5        1.0  0.7057852314111487  0.5912330097931786  0.9423998132788753  1.0000
  C   C6        1.0  0.29421411695641797  0.9087685730071297  0.4424037187801915  1.0000
  C   C7        1.0  0.2942154219594215  0.4087658172628821  0.05760024840617461  1.0000
  C   C8        1.0  0.7057836217412967  0.09122890312433186  0.5575968887734676  1.0000
  C   C9        1.0  0.6194230594072677  0.41281694213328274  0.9358252527327622  1.0000
  C   C10       1.0  0.3805724971442928  0.0871789808021788  0.4358269310410279  1.0000
  C   C11       1.0  0.38057759396329505  0.5871818849227777  0.0641748089522949  1.0000
  C   C12       1.0  0.6194242388442461  0.9128197960773433  0.5641731306379327  1.0000
  C   C13       1.0  0.6405111722476917  0.2948598810278539  0.9902968692162658  1.0000
  C   C14       1.0  0.35948755795676113  0.20514001377274127  0.4902973046360017  1.0000
  C   C15       1.0  0.359490786912076  0.7051389627537076  0.0097026465981642  1.0000
  C   C16       1.0  0.640512092714232  0.7948601140314151  0.5097033029196751  1.0000
  C   C17       1.0  0.7470121994153871  0.35253251153484644  0.051268306634654  1.0000
  C   C18       1.0  0.2529875487282141  0.14747141412604486  0.5512694977046735  1.0000
  C   C19       1.0  0.25299006282921965  0.6474676497202904  0.94873066330711  1.0000
  C   C20       1.0  0.7470121019427793  0.8525287136781113  0.4487311098510034  1.0000
  C   C21       1.0  0.8337302712239135  0.5307469040091916  0.05722111885035021  1.0000
  C   C22       1.0  0.16626822146011477  0.9692521082456904  0.5572212606167212  1.0000
  C   C23       1.0  0.166270685226678  0.46925324052043027  0.9427778510893816  1.0000
  C   C24       1.0  0.833729820322432  0.030746685359346795  0.4427788010642645  1.0000
  C   C25       1.0  0.8128209870501875  0.6502339624229235  0.0034340264070849003  1.0000
  C   C26       1.0  0.1871791706878696  0.849765080598324  0.5034365033620603  1.0000
  C   C27       1.0  0.18717996941001755  0.3497661821067268  0.9965660352779652  1.0000
  C   C28       1.0  0.8128227884863077  0.1502337631832802  0.49656465007034717  1.0000
  C   C29       1.0  0.04588748196452027  0.7604898678832511  0.1290446390367919  1.0000
  C   C30       1.0  0.9541147928338557  0.7395144345764846  0.629044676559289  1.0000
  C   C31       1.0  0.9541134745004808  0.2395102766464133  0.8709559685209172  1.0000
  C   C32       1.0  0.04588516092677959  0.26048701070126157  0.37095593099638086  1.0000
  C   C33       1.0  0.014036177546316269  0.4918951283331479  0.168356797774166  1.0000
  C   C34       1.0  0.9859659342322116  0.008110120645667997  0.6683581938482561  1.0000
  C   C35       1.0  0.9859647789042825  0.508105016196481  0.8316421721655658  1.0000
  C   C36       1.0  0.014034019528416803  0.9918913246320711  0.3316424137074137  1.0000
  I   I1        1.0  0.303749618046119  0.03639932371746819  0.8167498720133963  1.0000
  I   I2        1.0  0.6962486696439285  0.4636005958717888  0.3167511715247926  1.0000
  I   I3        1.0  0.696250032620071  0.9636008040866666  0.1832501896696215  1.0000
  I   I4        1.0  0.30375792928623463  0.5364127568447472  0.6832472525463089  1.0000
  N   N1        1.0  0.15762538706703563  0.7648779737233864  0.1837761881170792  1.0000
  N   N2        1.0  0.8423749362403113  0.7351249805436237  0.6837775176862024  1.0000
  N   N3        1.0  0.8423755693835561  0.2351221708062425  0.8162227818226526  1.0000
  N   N4        1.0  0.15762371172630907  0.26487644800860716  0.3162230898674423  1.0000
  N   N5        1.0  0.1388491952070225  0.5955467327460013  0.2084496642554399  1.0000
  N   N6        1.0  0.861151865392685  0.9044575402261258  0.7084503840619973  1.0000
  N   N7        1.0  0.8611543728363884  0.40445344523466525  0.7915498515610153  1.0000
  N   N8        1.0  0.1388454767751242  0.09554387160057588  0.2915496776169562  1.0000
  N   N9        1.0  0.9527723325905413  0.5906424196362109  0.11686442143923868  1.0000
  N   N10       1.0  0.04722942477626903  0.9093605647419948  0.6168653267424489  1.0000
  N   N11       1.0  0.047228623864860694  0.40935772489342526  0.8831350943731592  1.0000
  N   N12       1.0  0.9527705289795632  0.09064088053573728  0.3831347349405619  1.0000
  O   O1        1.0  0.7441689039898803  0.8860440081740176  0.8999341489013942  1.0000
  O   O2        1.0  0.2558271788982509  0.6139522858867749  0.3999370561190929  1.0000
  O   O3        1.0  0.2558301404874328  0.11395348468291638  0.1000648210363124  1.0000
  O   O4        1.0  0.7441734744771152  0.38604654116929993  0.6000635514386234  1.0000
  O   O5        1.0  0.6108008715216112  0.6699208464894609  0.8244720366738605  1.0000
  O   O6        1.0  0.38919388336872623  0.8300754438047233  0.32447465792789393  1.0000
  O   O7        1.0  0.3891981729653081  0.3300766463675018  0.1755280250091644  1.0000
  O   O8        1.0  0.6108018499154467  0.16992463382288037  0.6755254037490277  1.0000
