data_image0
_chemical_formula_structural       Cd4H40C48S8N16
_chemical_formula_sum              "Cd4 H40 C48 S8 N16"
_cell_length_a       7.6296751181398
_cell_length_b       8.521862352442641
_cell_length_c       23.705
_cell_angle_alpha    84.82847156955135
_cell_angle_beta     89.50757469382417
_cell_angle_gamma    63.46074272311914

_space_group_name_H-M_alt    "P 1"
_space_group_IT_number       1

loop_
  _space_group_symop_operation_xyz
  'x, y, z'

loop_
  _atom_site_type_symbol
  _atom_site_label
  _atom_site_symmetry_multiplicity
  _atom_site_fract_x
  _atom_site_fract_y
  _atom_site_fract_z
  _atom_site_occupancy
  Cd  Cd1       1.0  0.5589258072772124  0.9705449694231161  0.37468570907435605  1.0000
  Cd  Cd2       1.0  0.4410734697014646  0.0294583340640386  0.6253136374713577  1.0000
  Cd  Cd3       1.0  0.45047173232615706  0.991719547205214  0.124479697230889  1.0000
  Cd  Cd4       1.0  0.5495334489623713  0.008277167229856297  0.8755206901991812  1.0000
  H   H1        1.0  0.31189327014712376  0.2723097089704112  0.4563318406383345  1.0000
  H   H2        1.0  0.6881073199793305  0.7276909588959128  0.5436675876801118  1.0000
  H   H3        1.0  0.18254571349307003  0.7900708328001471  0.37692699063053686  1.0000
  H   H4        1.0  0.817451598619087  0.20993115287659234  0.6230724040528841  1.0000
  H   H5        1.0  0.3606804113803291  0.645677027587183  0.2923289798108897  1.0000
  H   H6        1.0  0.6393142792914119  0.35432495808955616  0.707669578420017  1.0000
  H   H7        1.0  0.5148032129563089  0.3157460581287167  0.2960622582106325  1.0000
  H   H8        1.0  0.4851868889809337  0.6842572453584381  0.7039358481589917  1.0000
  H   H9        1.0  0.8543893042147559  0.6706745733893058  0.29530324180831974  1.0000
  H   H10       1.0  0.1456119400580107  0.32932741228743356  0.70469740755388  1.0000
  H   H11       1.0  0.03701261893865386  0.3416990164832399  0.2943189193980373  1.0000
  H   H12       1.0  0.9629820693055104  0.6583056048143305  0.7056812408421752  1.0000
  H   H13       1.0  0.008134101722397704  0.15037930012746864  0.37670382302056993  1.0000
  H   H14       1.0  0.9918573109350457  0.8496240033596862  0.6232959671310994  1.0000
  H   H15       1.0  0.790828209557439  0.29322336028991447  0.45536793619263705  1.0000
  H   H16       1.0  0.20916779183450268  0.7067786253868176  0.544632305820315  1.0000
  H   H17       1.0  0.6149733426500957  0.6256410380054689  0.4492741799367721  1.0000
  H   H18       1.0  0.38502462360836626  0.374362265481686  0.5507260139384655  1.0000
  H   H19       1.0  0.31250606196046954  0.28437294552861647  0.2146686282958825  1.0000
  H   H20       1.0  0.6874919115807143  0.7156224510960312  0.7853313999226544  1.0000
  H   H21       1.0  0.9798359632091264  0.8063049393284982  0.12994196641297862  1.0000
  H   H22       1.0  0.020171839519804315  0.19369177510656493  0.8700575700618814  1.0000
  H   H23       1.0  0.035518015500201665  0.668704446815731  0.0381198780934895  1.0000
  H   H24       1.0  0.9644943735356646  0.331293585429755  0.9618791811403896  1.0000
  H   H25       1.0  0.22440530266548106  0.3392096726053281  0.040673462913687806  1.0000
  H   H26       1.0  0.7756051215038651  0.6607870418297423  0.9593260663098349  1.0000
  H   H27       1.0  0.5410118752947567  0.6933962606010835  0.037008170103305794  1.0000
  H   H28       1.0  0.45898674996517025  0.3066030894548177  0.9629921500567136  1.0000
  H   H29       1.0  0.6755561843961997  0.3651758090640271  0.0358593511380079  1.0000
  H   H30       1.0  0.3244417867174149  0.6348222231814586  0.9641418572379052  1.0000
  H   H31       1.0  0.7963648308770244  0.1742474824021372  0.1274205496701057  1.0000
  H   H32       1.0  0.20363051879617422  0.8257505498433488  0.8725810878090813  1.0000
  H   H33       1.0  0.7852879733088967  0.3165103881706343  0.2163700692231316  1.0000
  H   H34       1.0  0.21470868708451  0.6834876440748516  0.7836311427784537  1.0000
  H   H35       1.0  0.644902126203391  0.6472056876710253  0.21010450342321718  1.0000
  H   H36       1.0  0.3550964990565432  0.352793662384876  0.7898962385887316  1.0000
  H   H37       1.0  0.12465966774632153  0.6115365131111545  0.21982364680653185  1.0000
  H   H38       1.0  0.8753415813815904  0.3884602013239088  0.7801759077966891  1.0000
  H   H39       1.0  0.152251634150062  0.5994456025341888  0.4598687117177533  1.0000
  H   H40       1.0  0.8477463345359763  0.4005550653321279  0.5401311457039668  1.0000
  C   C1        1.0  0.7158706707022373  0.009402577326064  0.5108916440932703  1.0000
  C   C2        1.0  0.2841286087040018  0.9905980905402527  0.4891098971105023  1.0000
  C   C3        1.0  0.27845904569402086  0.9828177378376423  0.2607740258804228  1.0000
  C   C4        1.0  0.7215428527250579  0.017185565649505494  0.7392244697100807  1.0000
  C   C5        1.0  0.7296046952169065  0.9803112624243082  0.24014769405169292  1.0000
  C   C6        1.0  0.2703945817617637  0.019692041062846492  0.759852918049809  1.0000
  C   C7        1.0  0.27635025783675354  0.9968735037465206  0.9901860261907489  1.0000
  C   C8        1.0  0.7236523020113665  0.003123210688549699  0.009813946638729502  1.0000
  C   C9        1.0  0.32056516059627427  0.3596475943642545  0.4210554667161688  1.0000
  C   C10       1.0  0.679434118809972  0.6403530735020624  0.5789435433760134  1.0000
  C   C11       1.0  0.24673970885041274  0.6475891705024068  0.3765151230032657  1.0000
  C   C12       1.0  0.7532562925415289  0.3524128151743326  0.6234846971577568  1.0000
  C   C13       1.0  0.34687112528321506  0.5676191631506098  0.3295546684231709  1.0000
  C   C14       1.0  0.6531242195348452  0.43238414033654476  0.670444267147623  1.0000
  C   C15       1.0  0.4308940914848947  0.3848625788852046  0.331129579684692  1.0000
  C   C16       1.0  0.569099286039062  0.6151420424123657  0.6688688967734748  1.0000
  C   C17       1.0  0.8427210565678391  0.5819688007824977  0.3295961610747469  1.0000
  C   C18       1.0  0.15727887455715  0.4180358205150725  0.6704039846627836  1.0000
  C   C19       1.0  0.9441505290179176  0.3997696503235345  0.3293183169180338  1.0000
  C   C20       1.0  0.0558428460784697  0.6002376065948736  0.6706804959936505  1.0000
  C   C21       1.0  0.9278325496871884  0.29322336028991447  0.37520663483887523  1.0000
  C   C22       1.0  0.0721641034234962  0.7067825788180713  0.6247922117078417  1.0000
  C   C23       1.0  0.8085989057605685  0.37296670424996836  0.41934054146307187  1.0000
  C   C24       1.0  0.19139578491117243  0.6270352814267639  0.5806588604716865  1.0000
  C   C25       1.0  0.7116780424834559  0.5561687084363527  0.41627242605067494  1.0000
  C   C26       1.0  0.28831992620258257  0.44383195942996406  0.5837278532229746  1.0000
  C   C27       1.0  0.24809714987658538  0.3748683046818541  0.17666315373388392  1.0000
  C   C28       1.0  0.7519021343848066  0.6251270919427938  0.8233372927109102  1.0000
  C   C29       1.0  0.06434075331289084  0.6644347410642977  0.1292107775443085  1.0000
  C   C30       1.0  0.9356709815766634  0.3355619733707726  0.8707887480535348  1.0000
  C   C31       1.0  0.09356876105557178  0.5880215040282761  0.07819451942941671  1.0000
  C   C32       1.0  0.9064429738339753  0.411975210406787  0.9218050061684337  1.0000
  C   C33       1.0  0.19972271113230278  0.4058368494838972  0.0792728900648072  1.0000
  C   C34       1.0  0.8002864023168423  0.5941598649511661  0.920727064636317  1.0000
  C   C35       1.0  0.597203629777425  0.6045982412650801  0.0757411291265413  1.0000
  C   C36       1.0  0.4027976169229175  0.3954011087908214  0.9242600274859926  1.0000
  C   C37       1.0  0.6710793082856623  0.4229301684042141  0.0753261330988764  1.0000
  C   C38       1.0  0.32891472823975926  0.5770704994621096  0.9246750007556416  1.0000
  C   C39       1.0  0.7395463892012157  0.3165868211748304  0.1262979602093779  1.0000
  C   C40       1.0  0.26044961461830934  0.683412528881071  0.8737027890539154  1.0000
  C   C41       1.0  0.7318791301767787  0.3957845916221955  0.17585365322432986  1.0000
  C   C42       1.0  0.2681208082309252  0.6042121228128678  0.8241471705603516  1.0000
  C   C43       1.0  0.6551129991613679  0.5785055950063407  0.1726044743372768  1.0000
  C   C44       1.0  0.34488497195224693  0.421492437239145  0.827396312186707  1.0000
  C   C45       1.0  0.14321238608902584  0.5558972394904271  0.1793263790752988  1.0000
  C   C46       1.0  0.8567927951994959  0.444099474944636  0.8206735865028351  1.0000
  C   C47       1.0  0.23284610551478827  0.5415383771856168  0.42294258530181145  1.0000
  C   C48       1.0  0.7671531738914581  0.45846229068069977  0.5770572684942366  1.0000
  S   S1        1.0  0.845448916221194  0.9310554624640515  0.4562560788725138  1.0000
  S   S2        1.0  0.15455102218651717  0.0689412519710189  0.5437434793563796  1.0000
  S   S3        1.0  0.1969537619986496  0.950211154687139  0.201952718892457  1.0000
  S   S4        1.0  0.8030481461307272  0.049781606316678086  0.7980461182916798  1.0000
  S   S5        1.0  0.8209965461871461  0.002763448444674999  0.2990610797899862  1.0000
  S   S6        1.0  0.1790073146708835  0.9972438084737261  0.7009377041163276  1.0000
  S   S7        1.0  0.1581576510436093  0.026763411761052694  0.0488910024312261  1.0000
  S   S8        1.0  0.8418468736710305  0.9732346204844333  0.9511080785566791  1.0000
  N   N1        1.0  0.6237735544641012  0.0656309122032397  0.5512193261318714  1.0000
  N   N2        1.0  0.37622572736971444  0.9343671200422461  0.4487797693587225  1.0000
  N   N3        1.0  0.3348094351256846  0.0059947195874273  0.3041962069530229  1.0000
  N   N4        1.0  0.6651944378702053  0.993999359226805  0.695801738389541  1.0000
  N   N5        1.0  0.6665451909634043  0.9626315178683811  0.19702706441557183  1.0000
  N   N6        1.0  0.3334599878975481  0.037367832187520385  0.8029736594680089  1.0000
  N   N7        1.0  0.4188809804648272  0.2820825910236805  0.3760410855430294  1.0000
  N   N8        1.0  0.5811156775010032  0.7179180768426361  0.6239575099485748  1.0000
  N   N9        1.0  0.7286565414699167  0.6592478392625623  0.3723166099457416  1.0000
  N   N10       1.0  0.27134404865653744  0.3407528286037618  0.6276836620765636  1.0000
  N   N11       1.0  0.2757230725042915  0.3010076664237715  0.1275133497909877  1.0000
  N   N12       1.0  0.7242807980640293  0.6989890480112919  0.8724870412647477  1.0000
  N   N13       1.0  0.5891068953846809  0.6811827936553241  0.1234978548978987  1.0000
  N   N14       1.0  0.41088976258115645  0.3188178742109925  0.8765032717052819  1.0000
  N   N15       1.0  0.36023556356745695  0.9742480166951919  0.9471296683329913  1.0000
  N   N16       1.0  0.6397702767225297  0.025744744308624893  0.0528704235299244  1.0000
