data_image0
_chemical_formula_structural       Cu2H24C30S2N12O8
_chemical_formula_sum              "Cu2 H24 C30 S2 N12 O8"
_cell_length_a       8.54995418624235
_cell_length_b       9.787849126108194
_cell_length_c       9.898356225192162
_cell_angle_alpha    81.53024052341965
_cell_angle_beta     82.5325434237088
_cell_angle_gamma    86.53744877946984

_space_group_name_H-M_alt    "P 1"
_space_group_IT_number       1

loop_
  _space_group_symop_operation_xyz
  'x, y, z'

loop_
  _atom_site_type_symbol
  _atom_site_label
  _atom_site_symmetry_multiplicity
  _atom_site_fract_x
  _atom_site_fract_y
  _atom_site_fract_z
  _atom_site_occupancy
  Cu  Cu1       1.0  0.500002345466811  0.5000002707190064  0.49999862698741987  1.0000
  Cu  Cu2       1.0  0.9999996403223437  0.5000008286758231  0.9999996673517372  1.0000
  H   H1        1.0  0.3754301163656564  0.9771620232520775  0.1817204430365749  1.0000
  H   H2        1.0  0.6245615799774383  0.022837810071330015  0.8182764718794928  1.0000
  H   H3        1.0  0.11939849190342498  0.6721450890055678  0.47318629221054215  1.0000
  H   H4        1.0  0.8805991260937773  0.32785664149479044  0.5268136782728446  1.0000
  H   H5        1.0  0.22558501670874156  0.06052189587710188  0.5962464452820271  1.0000
  H   H6        1.0  0.7744138027869879  0.9394777465077692  0.40375265962149604  1.0000
  H   H7        1.0  0.44774616053078387  0.1806016502472758  0.5505082144851698  1.0000
  H   H8        1.0  0.5522562040717675  0.8193968808842841  0.4494896031555625  1.0000
  H   H9        1.0  0.4365437885337827  0.4743917972477334  0.19494285747514078  1.0000
  H   H10       1.0  0.5634526317434376  0.525610994987936  0.8050571108752677  1.0000
  H   H11       1.0  0.3118602751936166  0.23147132595798336  0.14737684771662168  1.0000
  H   H12       1.0  0.6881325864780903  0.7685325845950858  0.8526233982007909  1.0000
  H   H13       1.0  0.0264812521266506  0.627767117286723  0.282540934457522  1.0000
  H   H14       1.0  0.9735187785877527  0.37223145629874216  0.7174591822747586  1.0000
  H   H15       1.0  0.34740492972459686  0.6077928865245212  0.9232183152339459  1.0000
  H   H16       1.0  0.6525962949312571  0.3922056517058081  0.07678267134414091  1.0000
  H   H17       1.0  0.4640933119884778  0.7830683971208147  0.08164208160308559  1.0000
  H   H18       1.0  0.5359091719391954  0.2169269983574864  0.9183612104654698  1.0000
  H   H19       1.0  0.1087944546470183  0.5933582739006769  0.6859365043024184  1.0000
  H   H20       1.0  0.8912078851212328  0.4066433434355049  0.3140629067810181  1.0000
  H   H21       1.0  0.9248477214919788  0.8294084118369084  2.2744033181343806e-05  1.0000
  H   H22       1.0  0.07515114605688922  0.17058915659533366  0.9999776545320458  1.0000
  H   H23       1.0  0.04644730166535279  0.0096718477924611  0.7695000518231296  1.0000
  H   H24       1.0  0.9535491396676291  0.9903288846187693  0.23049919079740988  1.0000
  C   C1        1.0  0.3061505050467587  0.0298483053219627  0.38596061072467336  1.0000
  C   C2        1.0  0.6938470994517588  0.9701534322424832  0.6140383500629197  1.0000
  C   C3        1.0  0.31643613676374116  0.9440363269070319  0.2844491592709345  1.0000
  C   C4        1.0  0.6835591106277902  0.0559644408593343  0.715549213503806  1.0000
  C   C5        1.0  0.2469171532520278  0.8159081124235144  0.31717428886602045  1.0000
  C   C6        1.0  0.7530816797423938  0.1840915228972619  0.682825825733289  1.0000
  C   C7        1.0  0.1717450683897184  0.7728503512164764  0.4492458455135235  1.0000
  C   C8        1.0  0.8282525668847143  0.22715034583961818  0.5507542669528149  1.0000
  C   C9        1.0  0.1658913194085656  0.8607354961730918  0.5494569103170832  1.0000
  C   C10       1.0  0.8341074828099335  0.13926517965605004  0.45054205260348107  1.0000
  C   C11       1.0  0.2313178386111616  0.9905475028259046  0.5190071553261502  1.0000
  C   C12       1.0  0.768679769665887  0.009453208358372905  0.48099093774861507  1.0000
  C   C13       1.0  0.4328343503995454  0.22704996584238307  0.44656103668433633  1.0000
  C   C14       1.0  0.5671644690961841  0.7729496765424886  0.5534380682191865  1.0000
  C   C15       1.0  0.4225401191821731  0.3756440567641945  0.259696641374596  1.0000
  C   C16       1.0  0.5774563183722705  0.6243577020272042  0.7403034689587784  1.0000
  C   C17       1.0  0.36355882262309797  0.2560339654876955  0.2346345596632631  1.0000
  C   C18       1.0  0.6364375976541155  0.7439688267479738  0.7653654086871455  1.0000
  C   C19       1.0  0.1299773637292319  0.6440773119070116  0.2059056956224267  1.0000
  C   C20       1.0  0.8700226804838636  0.3559212546143585  0.7940954308056476  1.0000
  C   C21       1.0  0.2985580561437615  0.6406662286275305  0.02015158278249625  1.0000
  C   C22       1.0  0.7014431857893227  0.3593312761585281  0.9798495457785492  1.0000
  C   C23       1.0  0.3547792040856733  0.7295958328354571  0.09528035416581561  1.0000
  C   C24       1.0  0.6452232798420069  0.27039956264284365  0.9047229379027399  1.0000
  C   C25       1.0  0.0695721719294937  0.6816575342979974  0.7392549109599926  1.0000
  C   C26       1.0  0.9304289873959986  0.3183441113292318  0.2607446399734314  1.0000
  C   C27       1.0  0.9805126454582266  0.8088917565951662  0.8994873675022177  1.0000
  C   C28       1.0  0.0194861740375032  0.1911078857897053  0.10051173740130538  1.0000
  C   C29       1.0  0.03778908369508119  0.8983202313323062  0.786355081650818  1.0000
  C   C30       1.0  0.9622085380806592  0.10168047278787642  0.21364402111973393  1.0000
  S   S1        1.0  0.2768710231234337  0.3443918404948363  0.7285967761280432  1.0000
  S   S2        1.0  0.7231372420774633  0.6556106476381203  0.27140482280986333  1.0000
  N   N1        1.0  0.37009558198352016  0.1627278075677836  0.35463721152635935  1.0000
  N   N2        1.0  0.6299020397922206  0.8372728965523988  0.6453618912441925  1.0000
  N   N3        1.0  0.46533108548842955  0.355708732348468  0.39153574365843  1.0000
  N   N4        1.0  0.5346677167300767  0.644291943480667  0.6084632192621342  1.0000
  N   N5        1.0  0.24676378361933618  0.7313041069957293  0.21292328685080963  1.0000
  N   N6        1.0  0.7532374890896706  0.2686923572819779  0.787078993388981  1.0000
  N   N7        1.0  0.15865437842388994  0.5891232200628593  0.09002094941940439  1.0000
  N   N8        1.0  0.8413456522905136  0.41087535352260574  0.9099791673128834  1.0000
  N   N9        1.0  0.09309421395273887  0.8165873087840653  0.6847142517608303  1.0000
  N   N10       1.0  0.9069045882657675  0.1834133670450697  0.3152847111597339  1.0000
  N   N11       1.0  0.002200242693234599  0.6750222504144644  0.8681058867840364  1.0000
  N   N12       1.0  0.9977997572452537  0.32497736367936625  0.13189307826949906  1.0000
  O   O1        1.0  0.45137429254366174  0.36871011553631655  0.6738750354836966  1.0000
  O   O2        1.0  0.548633922441013  0.6312913744728305  0.32612165695822176  1.0000
  O   O3        1.0  0.18158077420731894  0.41556936627210933  0.6205064802126685  1.0000
  O   O4        1.0  0.8184240014969788  0.5844301064011717  0.3794959642240839  1.0000
  O   O5        1.0  0.25570811264197596  0.1931249605541225  0.7521478398640369  1.0000
  O   O6        1.0  0.744302598215121  0.806876402232021  0.24785866983580723  1.0000
  O   O7        1.0  0.24019556038398793  0.4040648454565953  0.8588165912103348  1.0000
  O   O8        1.0  0.7598173132044438  0.5959427108617065  0.14118171902125448  1.0000
