data_image0
_chemical_formula_structural       Zn8H18C48O26F6
_chemical_formula_sum              "Zn8 H18 C48 O26 F6"
_cell_length_a       14.329653982786438
_cell_length_b       15.985938142409601
_cell_length_c       16.91537620047227
_cell_angle_alpha    65.85933635745549
_cell_angle_beta     62.9534869136185
_cell_angle_gamma    61.90483601398092

_space_group_name_H-M_alt    "P 1"
_space_group_IT_number       1

loop_
  _space_group_symop_operation_xyz
  'x, y, z'

loop_
  _atom_site_type_symbol
  _atom_site_label
  _atom_site_symmetry_multiplicity
  _atom_site_fract_x
  _atom_site_fract_y
  _atom_site_fract_z
  _atom_site_occupancy
  Zn  Zn1       1.0  0.015487561762739684  0.8454719102250721  0.003691390581316438  1.0000
  Zn  Zn2       1.0  0.069614885148269  0.05033132024377099  0.9173259094320584  1.0000
  Zn  Zn3       1.0  0.8231700396786222  0.0586392466568881  0.02659133551949828  1.0000
  Zn  Zn4       1.0  0.944626511894647  0.015385816068565802  0.8310551599710791  1.0000
  Zn  Zn5       1.0  0.3829662642756446  0.628759657276035  0.4600564352113422  1.0000
  Zn  Zn6       1.0  0.44164114523727693  0.4574243215068136  0.360301362270512  1.0000
  Zn  Zn7       1.0  0.36879839528078406  0.4291488070414644  0.5733452201760513  1.0000
  Zn  Zn8       1.0  0.6092320715955922  0.4541181991755607  0.4422118053577859  1.0000
  H   H1        1.0  0.46825655398606597  0.7941287930004179  0.19686366466588365  1.0000
  H   H2        1.0  0.23515268719291538  0.7143358817828939  0.17128197613735105  1.0000
  H   H3        1.0  0.3437799889740777  0.9518393290485248  0.9685593586294059  1.0000
  H   H4        1.0  0.5322622072897116  0.7751491123467248  0.5005148657396037  1.0000
  H   H5        1.0  0.756484709717327  0.6971777338708093  0.2437611016176574  1.0000
  H   H6        1.0  0.7070709643856857  0.9652692085682516  0.2881688904451211  1.0000
  H   H7        1.0  0.011986328896419693  0.5673111123354317  0.6996088692287401  1.0000
  H   H8        1.0  0.17111532549000696  0.7272251182626093  0.7183557129328334  1.0000
  H   H9        1.0  0.8323548257203511  0.7444812029132282  0.8942611066170373  1.0000
  H   H10       1.0  0.8767468098372577  0.39583112825806677  0.23741411718440728  1.0000
  H   H11       1.0  0.727923226613825  0.2547624856720532  0.18102294026611063  1.0000
  H   H12       1.0  0.07218164695125752  0.2335566347430529  0.029807855452553208  1.0000
  H   H13       1.0  0.39547193838793504  0.20457771231041733  0.3825710522995606  1.0000
  H   H14       1.0  0.22256482682920625  0.2227599271812863  0.6644331231509496  1.0000
  H   H15       1.0  0.2110805078311628  0.012598159891837199  0.5737380162008917  1.0000
  H   H16       1.0  0.434352570062046  0.520189650717434  0.7561019140472426  1.0000
  H   H17       1.0  0.701903534844206  0.24634008068732527  0.7095545856716186  1.0000
  H   H18       1.0  0.6113320642012994  0.33675938097388064  0.9505765113882633  1.0000
  C   C1        1.0  0.4157124903319485  0.8746836855853886  0.07748693312890943  1.0000
  C   C2        1.0  0.4175237834121288  0.803900660735863  0.15938346194226952  1.0000
  C   C3        1.0  0.35287144807021054  0.7452239377394748  0.19263481156635007  1.0000
  C   C4        1.0  0.2856787186289156  0.7596395336328214  0.1453431653887164  1.0000
  C   C5        1.0  0.28028057911772214  0.8360117762216958  0.06585920871306437  1.0000
  C   C6        1.0  0.3471846004131719  0.8932324161244553  0.030729505379589496  1.0000
  C   C7        1.0  0.19955366547928577  0.8640966431694396  0.01827737205922372  1.0000
  C   C8        1.0  0.35847723196082637  0.6689701174150926  0.28088712660002096  1.0000
  C   C9        1.0  0.6220292829937223  0.871941964902625  0.4016367700763294  1.0000
  C   C10       1.0  0.5927299035075109  0.7900682885177516  0.4330204639181759  1.0000
  C   C11       1.0  0.6412525055722256  0.7273291102517304  0.37535370792416944  1.0000
  C   C12       1.0  0.7183455383390649  0.7467798160640484  0.2878200772991732  1.0000
  C   C13       1.0  0.7394844073234382  0.833995584896492  0.255951589409257  1.0000
  C   C14       1.0  0.6913988340945706  0.8970780860934369  0.3132483950495909  1.0000
  C   C15       1.0  0.8061432410058414  0.8697634324698383  0.1590149747143243  1.0000
  C   C16       1.0  0.6001489269359652  0.6447057901396818  0.4083777955717378  1.0000
  C   C17       1.0  0.9147992630768655  0.6534569898748899  0.799773905846841  1.0000
  C   C18       1.0  0.009330611894334564  0.6162363061784362  0.7308501010188733  1.0000
  C   C19       1.0  0.10113397034737674  0.6446109147540682  0.7010717886787105  1.0000
  C   C20       1.0  0.09888086177675598  0.7060236165733613  0.7423210470454007  1.0000
  C   C21       1.0  0.0030685374786187432  0.740136298193285  0.8131994512512647  1.0000
  C   C22       1.0  0.9090273697232262  0.7155200947814181  0.8414423426147835  1.0000
  C   C23       1.0  0.9945519779125436  0.8107976647765439  0.8555479958644978  1.0000
  C   C24       1.0  0.20105221678144156  0.6072760494674939  0.624594830876063  1.0000
  C   C25       1.0  0.9814295653253353  0.31909882945780044  0.13021295149908957  1.0000
  C   C26       1.0  0.8828302557694628  0.3527067092053287  0.19828107213116639  1.0000
  C   C27       1.0  0.7906682197967997  0.3302867719792247  0.21554340995485424  1.0000
  C   C28       1.0  0.7991945020775617  0.2728677166906124  0.16701843421869692  1.0000
  C   C29       1.0  0.9016469477306686  0.2362706377856298  0.10164061977968689  1.0000
  C   C30       1.0  0.9932792785928373  0.26078419255603796  0.08163871947275672  1.0000
  C   C31       1.0  0.9160180562945398  0.1682465095320183  0.0539760168835599  1.0000
  C   C32       1.0  0.6855669438773758  0.3680999811164582  0.2890934188171173  1.0000
  C   C33       1.0  0.3091629380177635  0.10263587534022632  0.4732533837199425  1.0000
  C   C34       1.0  0.34402355769905313  0.17929587138520722  0.45173138408262054  1.0000
  C   C35       1.0  0.312046634045906  0.2226978182314241  0.5215356870371507  1.0000
  C   C36       1.0  0.24630732211715406  0.18944958319303143  0.6102789866098702  1.0000
  C   C37       1.0  0.2084544143952698  0.11517532777936167  0.6286219704167876  1.0000
  C   C38       1.0  0.2400641704406326  0.07072046820395171  0.5596574726066379  1.0000
  C   C39       1.0  0.13214933241998492  0.08414902589223058  0.7216608060934675  1.0000
  C   C40       1.0  0.3469262405286173  0.3056956595828169  0.5017207743445977  1.0000
  C   C41       1.0  0.521975538584087  0.4368597988999312  0.854763292351464  1.0000
  C   C42       1.0  0.5006223925840556  0.4541688041282582  0.7761004479223813  1.0000
  C   C43       1.0  0.5663422303058142  0.3847954613438844  0.7237809692053432  1.0000
  C   C44       1.0  0.6503249625727676  0.3000068047484632  0.750512230520769  1.0000
  C   C45       1.0  0.663833297977355  0.28161880059746375  0.8336231725609834  1.0000
  C   C46       1.0  0.6001196423709273  0.3507381584564442  0.8863018230689903  1.0000
  C   C47       1.0  0.7435274733288182  0.1860620162561162  0.8687706100215137  1.0000
  C   C48       1.0  0.540980921381426  0.3991478359984981  0.6416959599163191  1.0000
  O   O1        1.0  0.9647144094194218  0.987356376931288  0.9476633260555546  1.0000
  O   O2        1.0  0.19659848470365657  0.940642151976384  0.9518482152640572  1.0000
  O   O3        1.0  0.1393316558235042  0.8119975032046514  0.04734749337627161  1.0000
  O   O4        1.0  0.36388858370818156  0.5844900895298721  0.28757551974375406  1.0000
  O   O5        1.0  0.3592402465153556  0.6974016785284861  0.3410278408531794  1.0000
  O   O6        1.0  0.7647423063599916  0.9619355955586216  0.12725539677892062  1.0000
  O   O7        1.0  0.894780942775192  0.8095649473193233  0.11746196385047368  1.0000
  O   O8        1.0  0.6643246259968407  0.5668439642192169  0.3801838648700765  1.0000
  O   O9        1.0  0.5000191814667333  0.6587835841974651  0.4642467322563135  1.0000
  O   O10       1.0  0.9340204624045684  0.8989091236889877  0.8288383372733319  1.0000
  O   O11       1.0  0.045353110817814055  0.7783766423471973  0.9130937407518971  1.0000
  O   O12       1.0  0.21745735601149357  0.5254784455432571  0.6156426164765207  1.0000
  O   O13       1.0  0.2623387589301345  0.6599336692792618  0.5728545767019851  1.0000
  O   O14       1.0  0.8373123619432548  0.1353251931047552  0.08418275544949684  1.0000
  O   O15       1.0  0.006910363906804708  0.1475139174909827  0.9875016384770561  1.0000
  O   O16       1.0  0.7008860432943039  0.3715740541929122  0.35616467045782924  1.0000
  O   O17       1.0  0.59201776809045  0.39388616983085006  0.2789286236694579  1.0000
  O   O18       1.0  0.0804255442443491  0.03308064261206309  0.7292259660872489  1.0000
  O   O19       1.0  0.123697441740994  0.11173847182346457  0.7864811055134878  1.0000
  O   O20       1.0  0.3456468586324846  0.3204543689193144  0.5711267651546734  1.0000
  O   O21       1.0  0.37399282250395766  0.3546463335700238  0.4186773691428627  1.0000
  O   O22       1.0  0.818339434607438  0.1353285399110931  0.8112073643091833  1.0000
  O   O23       1.0  0.7288763377821609  0.16270631775955016  0.9541564639413733  1.0000
  O   O24       1.0  0.4392204418059151  0.41492740320884275  0.656374967333079  1.0000
  O   O25       1.0  0.6216296737160576  0.39321036850707003  0.5663415248675249  1.0000
  O   O26       1.0  0.4531476764319323  0.4914566594091809  0.4533291317661393  1.0000
  F   F1        1.0  0.48184433628042467  0.9292693892788577  0.0430726179300152  1.0000
  F   F2        1.0  0.5778538089800948  0.9317972110291919  0.45816402032554726  1.0000
  F   F3        1.0  0.8236667573801456  0.6288511684591  0.8274261227574368  1.0000
  F   F4        1.0  0.07011376409968767  0.3430456817516258  0.11144181669263988  1.0000
  F   F5        1.0  0.3428783243615356  0.0577895600182003  0.40664901887377886  1.0000
  F   F6        1.0  0.4617787021982735  0.5058982969299564  0.9038772513972263  1.0000
