data_image0
_chemical_formula_structural       Cd4H32C20S8N16O4
_chemical_formula_sum              "Cd4 H32 C20 S8 N16 O4"
_cell_length_a       8.223790697620657
_cell_length_b       8.223749542873728
_cell_length_c       14.870085871698084
_cell_angle_alpha    90.00101917267888
_cell_angle_beta     89.9994175144494
_cell_angle_gamma    97.46960410927414

_space_group_name_H-M_alt    "P 1"
_space_group_IT_number       1

loop_
  _space_group_symop_operation_xyz
  'x, y, z'

loop_
  _atom_site_type_symbol
  _atom_site_label
  _atom_site_symmetry_multiplicity
  _atom_site_fract_x
  _atom_site_fract_y
  _atom_site_fract_z
  _atom_site_occupancy
  Cd  Cd1       1.0  0.9704913081493274  0.7177509544112867  0.8189577843923388  1.0000
  Cd  Cd2       1.0  0.2822298538414715  0.0295095961747478  0.1810474042812515  1.0000
  Cd  Cd3       1.0  0.7822342706829842  0.5295072000631578  0.318956902278117  1.0000
  Cd  Cd4       1.0  0.4704850402078122  0.21775709139731703  0.681041561508465  1.0000
  H   H1        1.0  0.05677189027690591  0.8021764069140715  0.0306922751019414  1.0000
  H   H2        1.0  0.19782330992043026  0.9432223058854632  0.9693159425323116  1.0000
  H   H3        1.0  0.6978237183840007  0.4432354531436928  0.5306871623335212  1.0000
  H   H4        1.0  0.556774963852675  0.3021827902833607  0.46930994206932997  1.0000
  H   H5        1.0  0.36288244766477357  0.6265116216443615  0.8371021665837046  1.0000
  H   H6        1.0  0.37348858028028087  0.6371210032349096  0.16289760948281898  1.0000
  H   H7        1.0  0.8734843400698293  0.1371187343806497  0.3370991840050478  1.0000
  H   H8        1.0  0.8628793343373218  0.12652631718334112  0.6628914962983643  1.0000
  H   H9        1.0  0.37351681607650283  0.842116761480149  0.8568414910288239  1.0000
  H   H10       1.0  0.15787812292021638  0.6264791901474355  0.14316390866248693  1.0000
  H   H11       1.0  0.6578765895489125  0.1264811287165983  0.3568366742248656  1.0000
  H   H12       1.0  0.8735238732356334  0.3421318385763429  0.6431589571990272  1.0000
  H   H13       1.0  0.04193507064462662  0.5146637794409515  0.0048275572871006  1.0000
  H   H14       1.0  0.4853278101949457  0.958070961042111  0.9951765294824496  1.0000
  H   H15       1.0  0.9853331285978584  0.4580733664869714  0.5048217533702299  1.0000
  H   H16       1.0  0.5419343229588448  0.014672259746753008  0.4951759275595435  1.0000
  H   H17       1.0  0.1703634963615812  0.4375158320924513  0.9220461326103047  1.0000
  H   H18       1.0  0.56248160768601  0.8296477360857112  0.07795367081006077  1.0000
  H   H19       1.0  0.0624828623014579  0.32964604929683367  0.4220420618396047  1.0000
  H   H20       1.0  0.6703594925383245  0.9375311307063968  0.5779516892362508  1.0000
  H   H21       1.0  0.5478044087375195  0.538162371992179  0.05157111473163668  1.0000
  H   H22       1.0  0.46185279450169486  0.452215347022225  0.948431923214734  1.0000
  H   H23       1.0  0.9618454862998718  0.9522139470901791  0.5515617253560378  1.0000
  H   H24       1.0  0.047786153005063205  0.0381558197338947  0.44842786280088376  1.0000
  H   H25       1.0  0.6941629942620225  0.7638351128753911  0.9382748410329214  1.0000
  H   H26       1.0  0.2361685260490631  0.3058421496286384  0.06172141422459279  1.0000
  H   H27       1.0  0.736164123506164  0.8058447504460846  0.43827714678392476  1.0000
  H   H28       1.0  0.1941644019857307  0.2638288971054052  0.5617211259372539  1.0000
  H   H29       1.0  0.8236256622182692  0.9219313447260902  0.9301986451336645  1.0000
  H   H30       1.0  0.07808010656993497  0.17637731883667127  0.0697985045172089  1.0000
  H   H31       1.0  0.5780841116739667  0.6763782307432182  0.43020234645819494  1.0000
  H   H32       1.0  0.3236267614805612  0.4219241454242494  0.5697988380936819  1.0000
  C   C1        1.0  0.12543557545996717  0.12453787715141833  0.8022377322383533  1.0000
  C   C2        1.0  0.8754544987569658  0.8745748704326746  0.1977794958142525  1.0000
  C   C3        1.0  0.3754521388933014  0.37458203560643  0.3022216581594606  1.0000
  C   C4        1.0  0.625423588150717  0.6245323157868584  0.697784810084016  1.0000
  C   C5        1.0  0.7559093631486675  0.3356909931921095  0.8405515235646561  1.0000
  C   C6        1.0  0.6642526948372945  0.2440822215676732  0.15943891724582926  1.0000
  C   C7        1.0  0.16427800068650805  0.7440855157072761  0.34056212329562635  1.0000
  C   C8        1.0  0.25592683159689494  0.835730975108433  0.6594387584372399  1.0000
  C   C9        1.0  0.1787259875693721  0.8212755273596102  8.278827053199998e-06  1.0000
  C   C10       1.0  0.6787304645972583  0.321279090815267  0.4999914286605146  1.0000
  C   C11       1.0  0.3546973816485774  0.7206736664073644  0.8886329571282017  1.0000
  C   C12       1.0  0.2793427511054886  0.6453091327682401  0.11136492222235009  1.0000
  C   C13       1.0  0.7793335526905096  0.1453048273620396  0.3886304610922764  1.0000
  C   C14       1.0  0.8546975788411754  0.22067197717530015  0.6113630298459751  1.0000
  C   C15       1.0  0.163798322461659  0.5323250877710135  0.973309942880597  1.0000
  C   C16       1.0  0.4676733549498309  0.8362196234143937  0.026699388693508293  1.0000
  C   C17       1.0  0.9676714015639261  0.33621763912919533  0.47329885217651924  1.0000
  C   C18       1.0  0.6637943922598878  0.0323333057391082  0.5266986936353817  1.0000
  C   C19       1.0  0.45345099880530876  0.5465331546262036  2.7869296844000004e-06  1.0000
  C   C20       1.0  0.9534596820671908  0.04654030168767061  0.4999940066620283  1.0000
  S   S1        1.0  0.20784772969694387  0.3057002303014755  0.7701040865003391  1.0000
  S   S2        1.0  0.6942899000583864  0.7921392922869545  0.22990381947561633  1.0000
  S   S3        1.0  0.1942941891624343  0.29215394904549896  0.27009483976203086  1.0000
  S   S4        1.0  0.7078670857511966  0.8057046537410314  0.7298982714388274  1.0000
  S   S5        1.0  0.6363609385428076  0.16087899140996598  0.833854997510926  1.0000
  S   S6        1.0  0.8391134038906998  0.36366366755454044  0.1661329975135004  1.0000
  S   S7        1.0  0.3391085880606326  0.8636601606950977  0.33386488888110927  1.0000
  S   S8        1.0  0.1363348442329269  0.6608821450514171  0.6661382544928429  1.0000
  N   N1        1.0  0.06224556641523551  0.9940246482478514  0.8257061045775771  1.0000
  N   N2        1.0  0.005974696003889304  0.9377649775312663  0.17430557517570827  1.0000
  N   N3        1.0  0.5059663480765692  0.4377661702899687  0.32569759751937966  1.0000
  N   N4        1.0  0.5622252709226246  0.4940241261632892  0.6743016240166425  1.0000
  N   N5        1.0  0.8454474406593204  0.4596818669614536  0.8465646306401593  1.0000
  N   N6        1.0  0.540269526323037  0.1545191803044901  0.15343885439435204  1.0000
  N   N7        1.0  0.040277715886667016  0.6545304831279637  0.3465714061097173  1.0000
  N   N8        1.0  0.3454799836789846  0.9597163550853979  0.6534364674456937  1.0000
  N   N9        1.0  0.18803025520536915  0.6954106075842716  0.9294837678262622  1.0000
  N   N10       1.0  0.30459624916751693  0.8119846639449764  0.07051184514087788  1.0000
  N   N11       1.0  0.8046019455592486  0.3119873369027673  0.42948437685775787  1.0000
  N   N12       1.0  0.6880290745138848  0.19540281962284917  0.5705149175565365  1.0000
  N   N13       1.0  0.481776622978593  0.7103727401707333  0.9574075405091873  1.0000
  N   N14       1.0  0.28966176075309846  0.5182262492469007  0.042586583993624985  1.0000
  N   N15       1.0  0.7896563369171119  0.018231269923774118  0.45740680938487077  1.0000
  N   N16       1.0  0.9817711394753202  0.21034946497574228  0.5425862891055573  1.0000
  O   O1        1.0  0.8142945489478705  0.8055368539481265  0.9454306895683969  1.0000
  O   O2        1.0  0.19442788714282236  0.18568990430642882  0.054575045162586384  1.0000
  O   O3        1.0  0.6944304586148957  0.6856913047344262  0.4454279379041921  1.0000
  O   O4        1.0  0.3142906432356796  0.3055268715184384  0.5545744343326218  1.0000
