data_image0
_chemical_formula_structural       Cd4H44C40N4O20
_chemical_formula_sum              "Cd4 H44 C40 N4 O20"
_cell_length_a       8.58930243820413
_cell_length_b       9.815824501056229
_cell_length_c       13.646837019645972
_cell_angle_alpha    89.99997746911846
_cell_angle_beta     105.20389525339988
_cell_angle_gamma    90.0003739353496

_space_group_name_H-M_alt    "P 1"
_space_group_IT_number       1

loop_
  _space_group_symop_operation_xyz
  'x, y, z'

loop_
  _atom_site_type_symbol
  _atom_site_label
  _atom_site_symmetry_multiplicity
  _atom_site_fract_x
  _atom_site_fract_y
  _atom_site_fract_z
  _atom_site_occupancy
  Cd  Cd1       1.0  0.7660569917522508  0.4046232555668254  0.10493708531720362  1.0000
  Cd  Cd2       1.0  0.7339494316235573  0.9046227083760248  0.8950529493487593  1.0000
  Cd  Cd3       1.0  0.23394436371428645  0.5953747371680009  0.8950629533708393  1.0000
  Cd  Cd4       1.0  0.26604832393952904  0.0953742655852921  0.10494797828309292  1.0000
  H   H1        1.0  0.08448283978292892  0.5996268615113964  0.1044064831347598  1.0000
  H   H2        1.0  0.4155145137287591  0.0996145506324382  0.8955905390576435  1.0000
  H   H3        1.0  0.9155233316949208  0.40036909371072943  0.8955935942042501  1.0000
  H   H4        1.0  0.5844868804983465  0.9003814045754128  0.10441243701613702  1.0000
  H   H5        1.0  0.0937053009239932  0.7352415530152997  0.1904379414293231  1.0000
  H   H6        1.0  0.40628220275418403  0.23522720222923973  0.8095516096245632  1.0000
  H   H7        1.0  0.906302047917457  0.2647574585000854  0.8095601261208715  1.0000
  H   H8        1.0  0.5937179656606445  0.7647687529756413  0.19044970450612198  1.0000
  H   H9        1.0  0.10643470542954253  0.40701746524439397  0.3298825211781847  1.0000
  H   H10       1.0  0.39357966328834953  0.9069914582614446  0.6701230186429683  1.0000
  H   H11       1.0  0.8935642759621276  0.5929835837723803  0.6701200683989087  1.0000
  H   H12       1.0  0.6064156794270589  0.09300755321943652  0.32987752249058394  1.0000
  H   H13       1.0  0.23522328440624563  0.5142110781777306  0.28234192051591833  1.0000
  H   H14       1.0  0.26477934961073407  0.014184777418996907  0.717650837496727  1.0000
  H   H15       1.0  0.7647805129926583  0.48578691456322076  0.7176607077116088  1.0000
  H   H16       1.0  0.7352184059686594  0.9858162715948069  0.28235009013727114  1.0000
  H   H17       1.0  0.984568982203108  0.8182589640253898  0.2870445244011891  1.0000
  H   H18       1.0  0.5154260955045659  0.31825163772969495  0.712959101301557  1.0000
  H   H19       1.0  0.015433540943000396  0.18174412252911765  0.7129527701524125  1.0000
  H   H20       1.0  0.48457287617861067  0.6817453362347836  0.28704275392668427  1.0000
  H   H21       1.0  0.7633280861894606  0.7386144270309034  0.5296414555859883  1.0000
  H   H22       1.0  0.7366735829328094  0.23862580475580591  0.4703625113647051  1.0000
  H   H23       1.0  0.2366756821818257  0.2613957908680505  0.4703589696078652  1.0000
  H   H24       1.0  0.26332416294216904  0.7613721879688171  0.5296376819209812  1.0000
  H   H25       1.0  0.7432621461117466  0.4916213778628418  0.4834012438586655  1.0000
  H   H26       1.0  0.7567402449156404  0.9916313645931897  0.5165954529421839  1.0000
  H   H27       1.0  0.25673678685571133  0.5083888400229386  0.5165976739897431  1.0000
  H   H28       1.0  0.2432550881035098  0.008366628124754501  0.48340435384413644  1.0000
  H   H29       1.0  0.8411924805357885  0.4082614025277423  0.33965256946019207  1.0000
  H   H30       1.0  0.6588055657224743  0.9082575113091097  0.6603390536761681  1.0000
  H   H31       1.0  0.1588040395554557  0.5917437215357495  0.6603459618861651  1.0000
  H   H32       1.0  0.3411921801484326  0.09173946265239151  0.33966113960898536  1.0000
  H   H33       1.0  0.8893206245471036  0.8987419600189458  0.43022693991257915  1.0000
  H   H34       1.0  0.6106799716113757  0.39874238367485054  0.569781215323232  1.0000
  H   H35       1.0  0.11068550821095612  0.10126622036137432  0.569770200046058  1.0000
  H   H36       1.0  0.38931779364389035  0.6012545902862885  0.4302204466553263  1.0000
  H   H37       1.0  0.4785127725903989  0.5481824668343976  0.11671158236926969  1.0000
  H   H38       1.0  0.0215143588866766  0.048167945262093816  0.8832924199025174  1.0000
  H   H39       1.0  0.5214885731921087  0.4518175634268574  0.8832877219731402  1.0000
  H   H40       1.0  0.9784845837321895  0.9518320849922977  0.11670723228722577  1.0000
  H   H41       1.0  0.4664996257047634  0.39136320051805035  0.13958871289452193  1.0000
  H   H42       1.0  0.033518333950397106  0.8913472824042331  0.8604247336547318  1.0000
  H   H43       1.0  0.5335017006893067  0.6086358109804452  0.8604091227539428  1.0000
  H   H44       1.0  0.9664841891916327  0.10865478538715222  0.1395725608983299  1.0000
  C   C1        1.0  0.9221793280599259  0.6061859210317736  0.3039897432745066  1.0000
  C   C2        1.0  0.5778187517804909  0.10618201196761849  0.6960048854819194  1.0000
  C   C3        1.0  0.07782201773073888  0.393816146755718  0.6960095610689762  1.0000
  C   C4        1.0  0.42217655215803523  0.8938149619877581  0.3039927182637499  1.0000
  C   C5        1.0  0.13595335242554543  0.3457909447295294  0.18684517704051734  1.0000
  C   C6        1.0  0.36406289061109487  0.8457718205533029  0.8131570130419803  1.0000
  C   C7        1.0  0.8640456580182061  0.6542039917079663  0.8131596155734684  1.0000
  C   C8        1.0  0.6359324424080627  0.1542261721646412  0.18684279374433294  1.0000
  C   C9        1.0  0.016979973248858502  0.6511556964735236  0.1519848791674008  1.0000
  C   C10       1.0  0.48301172182814883  0.15114277417330166  0.8480082936801169  1.0000
  C   C11       1.0  0.9830261982371482  0.3488422962748459  0.8480151981726821  1.0000
  C   C12       1.0  0.516988456282938  0.8488541997945165  0.15199375479781452  1.0000
  C   C13       1.0  0.8638888079100584  0.7049396253159587  0.07747654829402253  1.0000
  C   C14       1.0  0.6361028335394394  0.20493183880560653  0.9225177593556424  1.0000
  C   C15       1.0  0.13611736357594853  0.2950583674324109  0.9225235290460533  1.0000
  C   C16       1.0  0.3638996992784699  0.7950661539331139  0.07748026954197233  1.0000
  C   C17       1.0  0.12046569957889375  0.45785991684578425  0.26107685826455207  1.0000
  C   C18       1.0  0.3795393762523461  0.9578378662822119  0.7389235173951861  1.0000
  C   C19       1.0  0.8795369010883578  0.5421390946547646  0.7389263110605243  1.0000
  C   C20       1.0  0.6204583793229689  0.0421621639684702  0.26107741023827913  1.0000
  C   C21       1.0  0.931617187537576  0.7448599764489005  0.3287171678597076  1.0000
  C   C22       1.0  0.5683796282765456  0.24485806602729815  0.671280157891907  1.0000
  C   C23       1.0  0.0683792937808647  0.2551441288522156  0.6712784260992919  1.0000
  C   C24       1.0  0.4316168917820775  0.7551389079312331  0.32871837345015115  1.0000
  C   C25       1.0  0.8091836455186938  0.7013410877582162  0.46725259828849636  1.0000
  C   C26       1.0  0.6908176767609717  0.20134809638857834  0.5327476576552642  1.0000
  C   C27       1.0  0.19081648418041652  0.29866811136796667  0.5327457784623562  1.0000
  C   C28       1.0  0.30917644014215995  0.7986509150893327  0.4672512215352  1.0000
  C   C29       1.0  0.7969860163950883  0.563350615085298  0.4409377471305903  1.0000
  C   C30       1.0  0.7030092980466522  0.0633556396732615  0.5590557156532725  1.0000
  C   C31       1.0  0.20301046493558772  0.43665654650517643  0.5590578468300222  1.0000
  C   C32       1.0  0.2969884090636797  0.9366433718152151  0.4409415402461363  1.0000
  C   C33       1.0  0.8528128160812473  0.5158937529586183  0.360364339047571  1.0000
  C   C34       1.0  0.6471845119210827  0.0158912855693316  0.6396279915378571  1.0000
  C   C35       1.0  0.1471873426781016  0.4841113711145297  0.6396362407412397  1.0000
  C   C36       1.0  0.3528143919127444  0.9841046696333109  0.3603687232629227  1.0000
  C   C37       1.0  0.8768933415576684  0.7908274095724649  0.4107657622337655  1.0000
  C   C38       1.0  0.6230978391613676  0.29082789194384173  0.5892328487419931  1.0000
  C   C39       1.0  0.12310800424930331  0.20917873326751393  0.5892335421118702  1.0000
  C   C40       1.0  0.37689749386186133  0.7091711195372243  0.4107669580448601  1.0000
  N   N1        1.0  0.9828060484535898  0.5507063128630848  0.22333223114988957  1.0000
  N   N2        1.0  0.5171939807189858  0.05069284722966222  0.7766612569542702  1.0000
  N   N3        1.0  0.0171989263089145  0.44929473617111887  0.7766683872888223  1.0000
  N   N4        1.0  0.48280615862338283  0.9493041267388951  0.22333785413685092  1.0000
  O   O1        1.0  0.7521471974091369  0.6228850841587601  0.03808748816147303  1.0000
  O   O2        1.0  0.747858060859713  0.1228891103526522  0.9618936307573805  1.0000
  O   O3        1.0  0.24785898377720636  0.3771149461156682  0.9619133235263818  1.0000
  O   O4        1.0  0.25214209787109354  0.8771088823786503  0.03810694902767859  1.0000
  O   O5        1.0  0.5391553403040135  0.46982038560179973  0.15638727756375206  1.0000
  O   O6        1.0  0.9608686499649793  0.9698048450357463  0.8436172808287309  1.0000
  O   O7        1.0  0.46084479905058373  0.5301796446561085  0.843611833528975  1.0000
  O   O8        1.0  0.039129086225976606  0.030195185215298195  0.15638217811132196  1.0000
  O   O9        1.0  0.021323527865064303  0.3220504075874261  0.1088463999121458  1.0000
  O   O10       1.0  0.47868421594186833  0.8220593902740209  0.8911646932782276  1.0000
  O   O11       1.0  0.9786742858388707  0.6779435100834235  0.891158933798323  1.0000
  O   O12       1.0  0.5213111170732107  0.17793758368080156  0.1088351135075527  1.0000
  O   O13       1.0  0.26784304632012385  0.27933433418932213  0.21141072303642974  1.0000
  O   O14       1.0  0.23216799411974162  0.7793175380715738  0.7886023735772626  1.0000
  O   O15       1.0  0.7321571608675157  0.7206626397779416  0.7885935284816129  1.0000
  O   O16       1.0  0.7678261518640214  0.22068249216890487  0.21139870865385293  1.0000
  O   O17       1.0  0.8605517602532515  0.8319712332469392  0.05564552986699311  1.0000
  O   O18       1.0  0.6394288531633663  0.3319644716770399  0.9443484478200048  1.0000
  O   O19       1.0  0.13945199837693423  0.1680267594947509  0.9443541609737167  1.0000
  O   O20       1.0  0.360573699038902  0.668033521061311  0.05565104977102212  1.0000
