data_image0
_chemical_formula_structural       Ag2H24C26S2N12O6F6
_chemical_formula_sum              "Ag2 H24 C26 S2 N12 O6 F6"
_cell_length_a       7.178902443494923
_cell_length_b       11.548644828326454
_cell_length_c       11.908290157663307
_cell_angle_alpha    106.72868679213533
_cell_angle_beta     94.0407182373093
_cell_angle_gamma    96.0757458263301

_space_group_name_H-M_alt    "P 1"
_space_group_IT_number       1

loop_
  _space_group_symop_operation_xyz
  'x, y, z'

loop_
  _atom_site_type_symbol
  _atom_site_label
  _atom_site_symmetry_multiplicity
  _atom_site_fract_x
  _atom_site_fract_y
  _atom_site_fract_z
  _atom_site_occupancy
  Ag  Ag1       1.0  0.2558859522787955  0.9238445938674217  0.1591633407492026  1.0000
  Ag  Ag2       1.0  0.7441135929021598  0.0761544288867668  0.8408352482155902  1.0000
  H   H1        1.0  0.49351566922455  0.9052371782087434  0.38170935809335294  1.0000
  H   H2        1.0  0.5064890471092056  0.0947592091131852  0.6182845210565231  1.0000
  H   H3        1.0  0.212559116732372  0.48076193724661226  0.24647515204632953  1.0000
  H   H4        1.0  0.7874390122933191  0.5192370633808778  0.7535242008427686  1.0000
  H   H5        1.0  0.13521858458501873  0.6277089385747345  0.13399320913826068  1.0000
  H   H6        1.0  0.8647772412840454  0.372292765967117  0.8660076547441163  1.0000
  H   H7        1.0  0.5688815238797247  0.595318543956985  0.5566195283002884  1.0000
  H   H8        1.0  0.43111822742390876  0.4046814150437115  0.44337766256852956  1.0000
  H   H9        1.0  0.7335457995278957  0.7108602789974512  0.6620797633123485  1.0000
  H   H10       1.0  0.2664523651834401  0.2891387458587643  0.33791791860370773  1.0000
  H   H11       1.0  0.7993985786352411  0.6298420216326335  0.5239325008458806  1.0000
  H   H12       1.0  0.2006023827009784  0.3701570232482396  0.4760653241946143  1.0000
  H   H13       1.0  0.3757670908275871  0.9245632726334918  0.6818229965485683  1.0000
  H   H14       1.0  0.6242336108574804  0.07543479965777782  0.3181787330474463  1.0000
  H   H15       1.0  0.45441092273090794  0.1399860972155693  0.030184913278702704  1.0000
  H   H16       1.0  0.5455875293260065  0.860014715333151  0.9698158208510462  1.0000
  H   H17       1.0  0.1032676505673962  0.1403280175391544  0.03085136414037489  1.0000
  H   H18       1.0  0.8967308014895254  0.8596727950095586  0.9691493699893668  1.0000
  H   H19       1.0  0.9738668423557187  0.847703442017327  0.45592652380909726  1.0000
  H   H20       1.0  0.0261386726347013  0.1522974690504739  0.5440712261856573  1.0000
  H   H21       1.0  0.13548400762928736  0.7851780120833068  0.5339057950532505  1.0000
  H   H22       1.0  0.864520790796803  0.21482653704333646  0.4660929748875588  1.0000
  H   H23       1.0  0.1966673620070125  0.9334103887901505  0.520160741611093  1.0000
  H   H24       1.0  0.8033326409565477  0.06659133367431741  0.47984117244445895  1.0000
  C   C1        1.0  0.43174003042050674  0.8097477329627552  0.3505307274249176  1.0000
  C   C2        1.0  0.568260778321509  0.1902504120146915  0.6494659892519934  1.0000
  C   C3        1.0  0.4792998513022155  0.7274004558518997  0.41119189467508477  1.0000
  C   C4        1.0  0.5207012626282009  0.27259948893239994  0.5888070387289871  1.0000
  C   C5        1.0  0.2765183765862744  0.5760042789002141  0.27695360264348057  1.0000
  C   C6        1.0  0.7234797345965874  0.42399470961292  0.7230465857321275  1.0000
  C   C7        1.0  0.23103924255932645  0.6571244888484101  0.21511989370576148  1.0000
  C   C8        1.0  0.7689592273404102  0.3428763358146655  0.7848800049374701  1.0000
  C   C9        1.0  0.6213020047681753  0.7639870370148572  0.5154732592448709  1.0000
  C   C10       1.0  0.3787003370376567  0.2360120057639818  0.4845254728443534  1.0000
  C   C11       1.0  0.6820663007402957  0.6702439771870133  0.568671099029018  1.0000
  C   C12       1.0  0.3179332622834892  0.3297550576815311  0.43132665444925766  1.0000
  C   C13       1.0  0.3135495953403121  0.9761295877494048  0.7582563300438989  1.0000
  C   C14       1.0  0.6864530516539203  0.0238712548362869  0.24174461877249334  1.0000
  C   C15       1.0  0.35727160759753224  0.09252233075724091  0.9521083935367968  1.0000
  C   C16       1.0  0.642726844459382  0.9074784817914716  0.047892340592945  1.0000
  C   C17       1.0  0.16322492851766413  0.09402287248190791  0.9510558580206945  1.0000
  C   C18       1.0  0.8367721252268155  0.9059779300544764  0.0489448045468351  1.0000
  C   C19       1.0  0.11918663481358048  0.981657111950618  0.7544717656901979  1.0000
  C   C20       1.0  0.8808142551513355  0.018341884472810897  0.24552940129636608  1.0000
  C   C21       1.0  0.9948138888215469  0.9234307299690625  0.6439333852118947  1.0000
  C   C22       1.0  0.005185602830934503  0.0765682564420302  0.35606771021245  1.0000
  C   C23       1.0  0.08006425162312791  0.8699409720737352  0.5322674863707704  1.0000
  C   C24       1.0  0.919939999806232  0.13006081677080766  0.4677321359118735  1.0000
  C   C25       1.0  0.26930804684692333  0.6244096284123871  0.7544775655489813  1.0000
  C   C26       1.0  0.7306945287760058  0.37559116571586065  0.24552672521348737  1.0000
  S   S1        1.0  0.12174792295733286  0.693319140278753  0.8728044532639101  1.0000
  S   S2        1.0  0.878249624255396  0.30668438619664323  0.12719786342132977  1.0000
  N   N1        1.0  0.43281510223447833  0.03342997148844519  0.8552502612444354  1.0000
  N   N2        1.0  0.567185958167464  0.9665699369527732  0.1447511786191954  1.0000
  N   N3        1.0  0.3092835335623151  0.7748010756626088  0.2533085021189265  1.0000
  N   N4        1.0  0.6907172573368783  0.22519705720046804  0.7466890500444945  1.0000
  N   N5        1.0  0.04510419472352821  0.0418144660320294  0.8529607159446824  1.0000
  N   N6        1.0  0.9548958439256836  0.9581872806611643  0.14703952713782806  1.0000
  N   N7        1.0  0.8147903155938253  0.921532521151953  0.6495949578151182  1.0000
  N   N8        1.0  0.18520815430591137  0.07846830351112291  0.3504049408281061  1.0000
  N   N9        1.0  0.6908267702216052  0.8788296543326909  0.5533037560509725  1.0000
  N   N10       1.0  0.3091770055823205  0.12116942268720267  0.44669337662743647  1.0000
  N   N11       1.0  0.39954484766817433  0.6101785145505829  0.37401506697798226  1.0000
  N   N12       1.0  0.600456095825223  0.38982051821592734  0.62598359354903  1.0000
  O   O1        1.0  0.10691900221278422  0.6066841094363156  0.9400855075703303  1.0000
  O   O2        1.0  0.893073005278666  0.3933194133328612  0.059914016406494984  1.0000
  O   O3        1.0  0.9472959916612069  0.7039632194788581  0.807907943582407  1.0000
  O   O4        1.0  0.052701303891595316  0.29603854353276665  0.19208964991612024  1.0000
  O   O5        1.0  0.23455753632784854  0.8116331427083237  0.9334176459119801  1.0000
  O   O6        1.0  0.765446715101504  0.18836864613621168  0.0665819763706637  1.0000
  F   F1        1.0  0.2780809008996528  0.687840803455515  0.6735839736385145  1.0000
  F   F2        1.0  0.7219289785956848  0.3121537393083288  0.3264138234386849  1.0000
  F   F3        1.0  0.447916891527072  0.6254045090948209  0.8002200676130825  1.0000
  F   F4        1.0  0.552082762571203  0.3745961802082434  0.199789928430576  1.0000
  F   F5        1.0  0.19706039823272906  0.5072188804027534  0.6953276199858534  1.0000
  F   F6        1.0  0.8029417294591995  0.49278001700374574  0.30468113794159274  1.0000
