data_image0
_chemical_formula_structural       Cu4H40C48N24O4
_chemical_formula_sum              "Cu4 H40 C48 N24 O4"
_cell_length_a       6.821270749098782
_cell_length_b       13.361952790726814
_cell_length_c       14.639754498710374
_cell_angle_alpha    73.79364693324798
_cell_angle_beta     76.74610177827186
_cell_angle_gamma    75.26275519259262

_space_group_name_H-M_alt    "P 1"
_space_group_IT_number       1

loop_
  _space_group_symop_operation_xyz
  'x, y, z'

loop_
  _atom_site_type_symbol
  _atom_site_label
  _atom_site_symmetry_multiplicity
  _atom_site_fract_x
  _atom_site_fract_y
  _atom_site_fract_z
  _atom_site_occupancy
  Cu  Cu1       1.0  0.025506620708867483  0.7522421387156868  0.759330178189856  1.0000
  Cu  Cu2       1.0  0.5370164291788339  0.7474857125076468  0.74069049482884  1.0000
  Cu  Cu3       1.0  0.974503892779758  0.24775845991737097  0.2406678040799832  1.0000
  Cu  Cu4       1.0  0.4629955542693197  0.2525093137432393  0.2593124136877734  1.0000
  H   H1        1.0  0.24245547013642002  0.954350051800226  0.6765022289688504  1.0000
  H   H2        1.0  0.8731021330810834  0.5454239705896384  0.8234867650479814  1.0000
  H   H3        1.0  0.757542394799259  0.04564656655985289  0.3235032716760955  1.0000
  H   H4        1.0  0.126898993408453  0.4545782201526052  0.17651209527131334  1.0000
  H   H5        1.0  0.21285019827027457  0.8879981052117499  0.6080248304034868  1.0000
  H   H6        1.0  0.7102336289334445  0.6116095417676632  0.8920596904803376  1.0000
  H   H7        1.0  0.7871539825682348  0.1120048815850936  0.3919735103196587  1.0000
  H   H8        1.0  0.2897729962551808  0.38838707659240856  0.1079445934979262  1.0000
  H   H9        1.0  0.4418762619771501  0.7871125142164175  0.5122821404868887  1.0000
  H   H10       1.0  0.7431468788782922  0.7130109761408645  0.987362519963611  1.0000
  H   H11       1.0  0.5581253183250183  0.2128849001982545  0.48772368826163864  1.0000
  H   H12       1.0  0.256849065639294  0.2869856422192072  0.012635848795916614  1.0000
  H   H13       1.0  0.5262020091737583  0.8361263917151831  0.332238363070843  1.0000
  H   H14       1.0  0.6983074965441177  0.6639198813463452  0.16737553037986427  1.0000
  H   H15       1.0  0.47378466790614476  0.1638678384811101  0.6677692124541679  1.0000
  H   H16       1.0  0.3016725043720926  0.3360846975596914  0.8326233941434253  1.0000
  H   H17       1.0  0.8606349894373866  0.8817482805825705  0.24877581504683383  1.0000
  H   H18       1.0  0.9955614295067508  0.6181133078127985  0.25121350794675124  1.0000
  H   H19       1.0  0.1393440613204503  0.11824674566831558  0.7512253256632847  1.0000
  H   H20       1.0  0.004410430417720932  0.381891271093231  0.7487905401337683  1.0000
  H   H21       1.0  0.12220103187166115  0.8877895389077253  0.3391071792733555  1.0000
  H   H22       1.0  0.3523880438715851  0.6118356212727818  0.16121813536028637  1.0000
  H   H23       1.0  0.8777920521086171  0.1122094676161396  0.6608835496749136  1.0000
  H   H24       1.0  0.6475904679843653  0.3881689576332477  0.8387913305267745  1.0000
  H   H25       1.0  0.0712371499788202  0.9418679157429821  0.8693125248048759  1.0000
  H   H26       1.0  0.8811919005032964  0.5587873390840912  0.6306747263204144  1.0000
  H   H27       1.0  0.9287741273414413  0.0581374592176473  0.130687832412228  1.0000
  H   H28       1.0  0.1188178282755388  0.4412084832213949  0.36932241059756177  1.0000
  H   H29       1.0  0.9343020752077321  0.1027053718006101  0.9370692569236924  1.0000
  H   H30       1.0  0.9727202708518021  0.39803844250810266  0.5627921900761734  1.0000
  H   H31       1.0  0.06570723245319933  0.8973015952692123  0.06293059587211763  1.0000
  H   H32       1.0  0.027275804842986345  0.6019613600703551  0.437202608062158  1.0000
  H   H33       1.0  0.5691008269518036  0.19109131353759068  0.948564321879097  1.0000
  H   H34       1.0  0.7080956033579542  0.3089002291783842  0.5513412085258409  1.0000
  H   H35       1.0  0.4309071795522501  0.8089156535322316  0.051432305921835585  1.0000
  H   H36       1.0  0.291892114877861  0.6911019615638594  0.4486544641574  1.0000
  H   H37       1.0  0.31863421959014465  0.12370449597497667  0.8933154329211278  1.0000
  H   H38       1.0  0.33568964781903804  0.37552283432933103  0.6067247255298511  1.0000
  H   H39       1.0  0.68137863208041  0.8762953066034811  0.10668220256571456  1.0000
  H   H40       1.0  0.6642999774416508  0.6244777643037196  0.39327604036089536  1.0000
  C   C1        1.0  0.7395041327923195  0.8084308562835787  0.5264884950218303  1.0000
  C   C2        1.0  0.07613039431335977  0.6914968046432222  0.9734623026184934  1.0000
  C   C3        1.0  0.2604992081868718  0.1915657620765003  0.47351002086235633  1.0000
  C   C4        1.0  0.9238648950949937  0.3085029979352356  0.0265408253925301  1.0000
  C   C5        1.0  0.5887671685198727  0.8081164147183555  0.47530081185016837  1.0000
  C   C6        1.0  0.874429440266667  0.6919569241994166  0.02443649096536401  1.0000
  C   C7        1.0  0.411231440945933  0.19188020364171618  0.5246994181128954  1.0000
  C   C8        1.0  0.1255635527160663  0.308043674433641  0.9755639246378465  1.0000
  C   C9        1.0  0.6370032436907637  0.8357896606212947  0.3755485672521246  1.0000
  C   C10       1.0  0.8515355073843626  0.6642231781472248  0.1241950264253617  1.0000
  C   C11       1.0  0.36298868548048113  0.1642085498479773  0.6244513427731205  1.0000
  C   C12       1.0  0.14845111867688138  0.3357782165404259  0.8758052385486437  1.0000
  C   C13       1.0  0.8287332201618725  0.8629812934939523  0.3272944051875513  1.0000
  C   C14       1.0  0.02255961589444407  0.636892235720353  0.1726709078995796  1.0000
  C   C15       1.0  0.1712489609726191  0.1370161209207197  0.6727036658181191  1.0000
  C   C16       1.0  0.9774129810752258  0.3631139352948765  0.8273314377723721  1.0000
  C   C17       1.0  0.9761012024722934  0.8663685057977517  0.3772631756601115  1.0000
  C   C18       1.0  0.2226843575168188  0.6333227269141872  0.1229193502354491  1.0000
  C   C19       1.0  0.02389081021156179  0.1336297046715131  0.6227306159835136  1.0000
  C   C20       1.0  0.7772951362146543  0.36667946382806343  0.8770875643866418  1.0000
  C   C21       1.0  0.9292171981337772  0.8389794513854127  0.4788479279507527  1.0000
  C   C22       1.0  0.24904612774069795  0.6607619327660429  0.021322955654021262  1.0000
  C   C23       1.0  0.07078557873373371  0.1610187590838592  0.5211456605299887  1.0000
  C   C24       1.0  0.7509450702936388  0.3392378698124148  0.9786842637310258  1.0000
  C   C25       1.0  0.7665448777935993  0.9419753831133733  0.8440499810443215  1.0000
  C   C26       1.0  0.5520158657703149  0.5579976529253656  0.6558810007834808  1.0000
  C   C27       1.0  0.2334662967125425  0.0580252155196845  0.15594884892524874  1.0000
  C   C28       1.0  0.4479871752290308  0.4420013535984991  0.3441193844700052  1.0000
  C   C29       1.0  0.9085604795378546  0.9799726610651831  0.8750301933030611  1.0000
  C   C30       1.0  0.762551635931189  0.520450145820007  0.62487966990642  1.0000
  C   C31       1.0  0.09144944147599428  0.0200311217862534  0.12496795943206251  1.0000
  C   C32       1.0  0.23745339560563392  0.4795472685946648  0.37511969017295144  1.0000
  C   C33       1.0  0.8311253061175279  0.0703242590199622  0.9113785384767185  1.0000
  C   C34       1.0  0.8118364996395969  0.4301234229792286  0.5884440227545866  1.0000
  C   C35       1.0  0.16888526252062522  0.9296779317222814  0.0886184232802307  1.0000
  C   C36       1.0  0.18815920753259954  0.5698755835446363  0.41155162658802885  1.0000
  C   C37       1.0  0.620838734953054  0.1219667087930247  0.9172026565201036  1.0000
  C   C38       1.0  0.6593431801934672  0.37804632739702976  0.5826795470641883  1.0000
  C   C39       1.0  0.37917428216607624  0.8780378701130047  0.08279191742805377  1.0000
  C   C40       1.0  0.34065053644123805  0.621954271236028  0.41731712745254157  1.0000
  C   C41       1.0  0.48063646456893155  0.085095052039236  0.8867289483310543  1.0000
  C   C42       1.0  0.45222154169881895  0.4144634369767956  0.6132559655117831  1.0000
  C   C43       1.0  0.5193798651227156  0.9149079347576077  0.11326629584245752  1.0000
  C   C44       1.0  0.5477741579884425  0.5855371616562621  0.3867432521041465  1.0000
  C   C45       1.0  0.5557189919216511  0.9935087734068517  0.8498323014847528  1.0000
  C   C46       1.0  0.3988183505885985  0.5060948932995828  0.6501266138112812  1.0000
  C   C47       1.0  0.4442968932197217  0.006491825226199  0.1501663440013488  1.0000
  C   C48       1.0  0.6011820388557468  0.49390570533347494  0.3498739489165814  1.0000
  N   N1        1.0  0.9269371103421381  0.7951868959784532  0.6318638176275755  1.0000
  N   N2        1.0  0.3547287287105617  0.704448612911804  0.8683691119612434  1.0000
  N   N3        1.0  0.0730720602333007  0.2048137026546044  0.3681339988382036  1.0000
  N   N4        1.0  0.6452779307494367  0.2955495975574678  0.1316356810995245  1.0000
  N   N5        1.0  0.7469009375615769  0.7813665921461919  0.622954697704813  1.0000
  N   N6        1.0  0.15214049438588256  0.7184472329734533  0.8770570908494548  1.0000
  N   N7        1.0  0.2531091731330762  0.2186316183230801  0.3770436266867989  1.0000
  N   N8        1.0  0.8478658591859727  0.2815501814412187  0.12294396462938548  1.0000
  N   N9        1.0  0.04198571894111312  0.8300405543326832  0.5483659376647979  1.0000
  N   N10       1.0  0.42173367181111127  0.6695392307358928  0.9519987623599561  1.0000
  N   N11       1.0  0.9580217819548409  0.1699592482457817  0.45162950501038074  1.0000
  N   N12       1.0  0.5782595301539288  0.3304605718425719  0.048009470528889195  1.0000
  N   N13       1.0  0.5990165852766578  0.8578658466633511  0.7913930724939676  1.0000
  N   N14       1.0  0.24828416748990634  0.6416247802905203  0.7086328597659914  1.0000
  N   N15       1.0  0.40099454747317503  0.1421347519697065  0.20860881666641967  1.0000
  N   N16       1.0  0.7517241691345049  0.3583726341241515  0.2913707388120557  1.0000
  N   N17       1.0  0.785799087683636  0.8564353365552648  0.8064390870861757  1.0000
  N   N18       1.0  0.4483190594254081  0.6434127189119891  0.6935130537865035  1.0000
  N   N19       1.0  0.2142134297357003  0.143565262077793  0.1935599086874618  1.0000
  N   N20       1.0  0.5516905858408165  0.3565831033934969  0.3064902015130997  1.0000
  N   N21       1.0  0.4562949943924367  0.9373901086433633  0.816413264089114  1.0000
  N   N22       1.0  0.21020598891610134  0.5619046888800199  0.6835861910985485  1.0000
  N   N23       1.0  0.5437181080167263  0.0626088978805015  0.1835891294925602  1.0000
  N   N24       1.0  0.789798429267805  0.4380959097530378  0.31641486904150906  1.0000
  O   O1        1.0  0.262587533408201  0.8822824332161474  0.6677873069741906  1.0000
  O   O2        1.0  0.8129324290303758  0.6174716878088375  0.8322734051112093  1.0000
  O   O3        1.0  0.7374148256954741  0.11771657330771748  0.3322137601749588  1.0000
  O   O4        1.0  0.187065935605112  0.3825289108242202  0.1677276737082565  1.0000
