data_image0
_chemical_formula_structural       Cu4H16C12N32O16
_chemical_formula_sum              "Cu4 H16 C12 N32 O16"
_cell_length_a       8.82209295269728
_cell_length_b       9.183648713433138
_cell_length_c       10.663390666911909
_cell_angle_alpha    90.0093841279926
_cell_angle_beta     90.01430551140422
_cell_angle_gamma    106.80125154066508

_space_group_name_H-M_alt    "P 1"
_space_group_IT_number       1

loop_
  _space_group_symop_operation_xyz
  'x, y, z'

loop_
  _atom_site_type_symbol
  _atom_site_label
  _atom_site_symmetry_multiplicity
  _atom_site_fract_x
  _atom_site_fract_y
  _atom_site_fract_z
  _atom_site_occupancy
  Cu  Cu1       1.0  0.6703155595426226  0.18287785147138186  0.9319615882418475  1.0000
  Cu  Cu2       1.0  0.32965359718504333  0.3172115759215046  0.4321216059378655  1.0000
  Cu  Cu3       1.0  0.3297954113294638  0.8170867810423204  0.0680469287388519  1.0000
  Cu  Cu4       1.0  0.6702799908421541  0.6827927382933581  0.5678981488388644  1.0000
  H   H1        1.0  0.813980136879664  0.7429788047905816  0.08120038282041257  1.0000
  H   H2        1.0  0.18597510146816634  0.7570195539495402  0.5811574902974924  1.0000
  H   H3        1.0  0.18582407990684405  0.25700609770184013  0.9188850024368804  1.0000
  H   H4        1.0  0.8140484714671745  0.24295979954362687  0.4188350762449673  1.0000
  H   H5        1.0  0.900075889396419  0.5745431345950821  0.9140230955538937  1.0000
  H   H6        1.0  0.09991327645428782  0.9252904066495236  0.4138594922624748  1.0000
  H   H7        1.0  0.10027135773464832  0.4255740844311475  0.0862283432387869  1.0000
  H   H8        1.0  0.9000225992182467  0.07464225856891463  0.5861189952464655  1.0000
  H   H9        1.0  0.9191993453010526  0.3120979912827906  0.792378145126179  1.0000
  H   H10       1.0  0.08093215488871414  0.18790989813594194  0.2923445698291757  1.0000
  H   H11       1.0  0.08076645416552708  0.6879268059874164  0.2075834715031917  1.0000
  H   H12       1.0  0.9190623506111991  0.8121387954412854  0.7075851665855453  1.0000
  H   H13       1.0  0.9180061425218965  0.1369241067955613  0.8176714832829006  1.0000
  H   H14       1.0  0.08196121682388482  0.36311192928062047  0.3176795791395648  1.0000
  H   H15       1.0  0.08222546926246825  0.8631781797501291  0.182131679870146  1.0000
  H   H16       1.0  0.9179219274283812  0.636898037336664  0.6823476731082181  1.0000
  C   C1        1.0  0.6327114477967372  0.40296654919382047  0.10963652978877998  1.0000
  C   C2        1.0  0.36732304892942846  0.09696229743671132  0.6096339245105824  1.0000
  C   C3        1.0  0.3672746445022099  0.5969672800874476  0.8902913224356935  1.0000
  C   C4        1.0  0.6326575540570476  0.9030249789443305  0.3903070597825007  1.0000
  C   C5        1.0  0.8113949237802914  0.5348613161516482  0.9863419064362872  1.0000
  C   C6        1.0  0.18860921174996298  0.9650399878613742  0.48623575425663296  1.0000
  C   C7        1.0  0.18873279571815268  0.4651590639017585  0.013749141381275398  1.0000
  C   C8        1.0  0.8113392832048306  0.034923389288401614  0.5137333587471176  1.0000
  C   C9        1.0  0.5218487797638431  0.2624633777604545  0.1501102219343977  1.0000
  C   C10       1.0  0.47817549871781057  0.23748133804768662  0.6501682382434097  1.0000
  C   C11       1.0  0.47823824244393626  0.7374819029204006  0.8498804732933747  1.0000
  C   C12       1.0  0.5217876423537718  0.7624968353887028  0.3498168196684617  1.0000
  N   N1        1.0  0.4047428601418304  0.0266926647735417  0.1295296578969953  1.0000
  N   N2        1.0  0.5950799263208355  0.4733001448812006  0.6294589153914742  1.0000
  N   N3        1.0  0.5953683354611884  0.973253787831702  0.8705782634126819  1.0000
  N   N4        1.0  0.4048126444046077  0.5267109771374194  0.3706442987392862  1.0000
  N   N5        1.0  0.3506145617654469  0.07298971169394973  0.23240722037755288  1.0000
  N   N6        1.0  0.6492879129388811  0.4272292855416212  0.7324042805124833  1.0000
  N   N7        1.0  0.6493881286106459  0.9270635492121855  0.7676059803261026  1.0000
  N   N8        1.0  0.35058034247725806  0.5727386044256093  0.267690488097692  1.0000
  N   N9        1.0  0.4226667450101972  0.2217979403372469  0.2477791049114941  1.0000
  N   N10       1.0  0.5773517354111136  0.2783917607651105  0.7478387428780024  1.0000
  N   N11       1.0  0.5773317529543435  0.7782678173178965  0.7521712644031595  1.0000
  N   N12       1.0  0.4225701064373625  0.7215545479280722  0.2521828823496861  1.0000
  N   N13       1.0  0.7239906632042338  0.39203180308434343  0.007713295491989  1.0000
  N   N14       1.0  0.2760629606693784  0.10788955963551673  0.5076267124164815  1.0000
  N   N15       1.0  0.27612963445940863  0.6079601270264875  0.9922830330488708  1.0000
  N   N16       1.0  0.7238946133813615  0.8920851924142  0.4923198953799002  1.0000
  N   N17       1.0  0.6586404991119396  0.5440355740961635  0.1512433717825488  1.0000
  N   N18       1.0  0.34134276110334144  0.9559366060875835  0.651265986207484  1.0000
  N   N19       1.0  0.341205762340593  0.45586290737116286  0.8486985304250182  1.0000
  N   N20       1.0  0.6586294716483112  0.04406431363526762  0.3486918783248498  1.0000
  N   N21       1.0  0.7721006440477185  0.6247832753100158  0.0719142988110093  1.0000
  N   N22       1.0  0.2278568896264659  0.8751678760394057  0.5718706793681533  1.0000
  N   N23       1.0  0.22783323752268106  0.3751766926818264  0.9281364000111835  1.0000
  N   N24       1.0  0.7721001309564318  0.12481256687279095  0.4281096891239001  1.0000
  N   N25       1.0  0.5121591084141955  0.1420283174364059  0.0754259769292815  1.0000
  N   N26       1.0  0.48773876418147927  0.35779323586924505  0.5753690494213402  1.0000
  N   N27       1.0  0.48802116544047197  0.8578499505192669  0.9246838224997589  1.0000
  N   N28       1.0  0.5122300944982073  0.6422190643030349  0.424658211843969  1.0000
  N   N29       1.0  0.9065177138801418  0.040225964612410806  0.1371982147944166  1.0000
  N   N30       1.0  0.09332971027065182  0.4597203359747298  0.6372188466235897  1.0000
  N   N31       1.0  0.09346400253510712  0.9598329629671836  0.8627830993301373  1.0000
  N   N32       1.0  0.9066529758019544  0.5402965149292099  0.36275871361211637  1.0000
  O   O1        1.0  0.8833237151599321  0.22343100605005622  0.8506379179247928  1.0000
  O   O2        1.0  0.1169577514587274  0.2767234044887843  0.3505018288252657  1.0000
  O   O3        1.0  0.11681902856645372  0.7765677547255052  0.1493058972669914  1.0000
  O   O4        1.0  0.882989896300174  0.723290009602053  0.6494691630406207  1.0000
  O   O5        1.0  0.005164917403178001  0.016339111071012304  0.21865160435525874  1.0000
  O   O6        1.0  0.9948598624683315  0.4838291190772281  0.718695845420619  1.0000
  O   O7        1.0  0.9949077269831721  0.9837357861828906  0.7812387548059262  1.0000
  O   O8        1.0  0.005119569605348307  0.5162184322297421  0.28126858751618034  1.0000
  O   O9        1.0  0.8275986399967012  0.9312538332545799  0.069870062819156  1.0000
  O   O10       1.0  0.1723285984572485  0.5685795464059423  0.5698974203546001  1.0000
  O   O11       1.0  0.17215877363678805  0.06874127861923543  0.9302593943260503  1.0000
  O   O12       1.0  0.8277555776464995  0.4314430702343657  0.4301429825589551  1.0000
  O   O13       1.0  0.8910778086799953  0.17052998374302325  0.1266355953865599  1.0000
  O   O14       1.0  0.10853132557756602  0.3293128271220098  0.626654007827149  1.0000
  O   O15       1.0  0.10902286654977196  0.8295665409926586  0.8732622704346013  1.0000
  O   O16       1.0  0.891368329962532  0.6706766676882481  0.3732860304600436  1.0000
