data_image0
_chemical_formula_structural       Cu4H20C24Br4N4
_chemical_formula_sum              "Cu4 H20 C24 Br4 N4"
_cell_length_a       3.809766172616016
_cell_length_b       10.801247455322954
_cell_length_c       14.892968418968797
_cell_angle_alpha    89.99971727783432
_cell_angle_beta     90.00192699576732
_cell_angle_gamma    93.50010899552377

_space_group_name_H-M_alt    "P 1"
_space_group_IT_number       1

loop_
  _space_group_symop_operation_xyz
  'x, y, z'

loop_
  _atom_site_type_symbol
  _atom_site_label
  _atom_site_symmetry_multiplicity
  _atom_site_fract_x
  _atom_site_fract_y
  _atom_site_fract_z
  _atom_site_occupancy
  Cu  Cu1       1.0  0.7414182928347518  0.45388529682861634  0.443991890103149  1.0000
  Cu  Cu2       1.0  0.2586162042547997  0.046109240146378704  0.9439848097495016  1.0000
  Cu  Cu3       1.0  0.25859689372799005  0.5461046320998759  0.5560088783317595  1.0000
  Cu  Cu4       1.0  0.7414360646123582  0.9538944207936949  0.056011258621644806  1.0000
  H   H1        1.0  0.9761541075024455  0.6453960822882081  0.3152996481892744  1.0000
  H   H2        1.0  0.02385482787430241  0.8545947757515291  0.8152880289870765  1.0000
  H   H3        1.0  0.023844947257906302  0.3545920746696538  0.6847071632971408  1.0000
  H   H4        1.0  0.9761474205585544  0.14540822036569517  0.1847087106199083  1.0000
  H   H5        1.0  0.930223133927484  0.6824970948351492  0.1498078557459621  1.0000
  H   H6        1.0  0.06978289800770202  0.8175045622803482  0.6497981217140707  1.0000
  H   H7        1.0  0.06976902578905  0.317507811444507  0.8501982842219746  1.0000
  H   H8        1.0  0.9302169280047536  0.18249937510263695  0.3501999607960471  1.0000
  H   H9        1.0  0.3335898550863304  0.3299074829776741  0.1305322982196557  1.0000
  H   H10       1.0  0.666380758523289  0.1700968274207852  0.630530428334893  1.0000
  H   H11       1.0  0.6663908173059951  0.6700928413771121  0.8694657842114566  1.0000
  H   H12       1.0  0.33362311371109143  0.829901517647393  0.3694642969141952  1.0000
  H   H13       1.0  0.40108659321297335  0.30903993602488805  0.2953150984500539  1.0000
  H   H14       1.0  0.5988934763871541  0.19096004269022157  0.7953112089377754  1.0000
  H   H15       1.0  0.598911036671538  0.6909537994516413  0.7046823126106645  1.0000
  H   H16       1.0  0.4011216829356103  0.8090419568759728  0.2046821734395223  1.0000
  H   H17       1.0  0.7424697848015  0.6197019944926511  0.0070894435245066  1.0000
  H   H18       1.0  0.2575267467948592  0.8803029900090064  0.507080489105995  1.0000
  H   H19       1.0  0.25751308422591274  0.3803085317520355  0.9929173678497705  1.0000
  H   H20       1.0  0.7424801469191636  0.119697196127774  0.4929149076111018  1.0000
  C   C1        1.0  0.8365913000231588  0.5781137558306568  0.2714388498455307  1.0000
  C   C2        1.0  0.1634102904054019  0.9218810060687376  0.7714262213323693  1.0000
  C   C3        1.0  0.1633980648020241  0.42187816619852464  0.7285693045065573  1.0000
  C   C4        1.0  0.8365996246614672  0.07812102114078098  0.22856783247929263  1.0000
  C   C5        1.0  0.8089422574734686  0.5982567358230143  0.1799465204158466  1.0000
  C   C6        1.0  0.1910510368471137  0.9017411705864616  0.6799355533950475  1.0000
  C   C7        1.0  0.19104083805770952  0.4017426472425569  0.8200616338949518  1.0000
  C   C8        1.0  0.8089455679570252  0.0982599982845187  0.32006051473220515  1.0000
  C   C9        1.0  0.6248579375984137  0.5102733326923498  0.125013892517849  1.0000
  C   C10       1.0  0.37512661842379913  0.9897285230645423  0.6250082826567223  1.0000
  C   C11       1.0  0.37512071195765634  0.4897297878108731  0.8749902330195668  1.0000
  C   C12       1.0  0.6248728081313004  0.010273559431631399  0.3749871140236749  1.0000
  C   C13       1.0  0.4782463946731  0.40294008720724145  0.16818413862914383  1.0000
  C   C14       1.0  0.5217259368507641  0.09706222739880836  0.6681765385265238  1.0000
  C   C15       1.0  0.5217288341572798  0.5970593373336681  0.8318199868996103  1.0000
  C   C16       1.0  0.478278933604372  0.9029407549002  0.331818186718742  1.0000
  C   C17       1.0  0.5161909909908005  0.39012532680413153  0.2600901189235714  1.0000
  C   C18       1.0  0.4838046232797738  0.10987004886497688  0.7600848204450372  1.0000
  C   C19       1.0  0.483803617794429  0.609866567591382  0.7399126637894611  1.0000
  C   C20       1.0  0.5162105361697726  0.890131950697075  0.2399105763057037  1.0000
  C   C21       1.0  0.5957805495089091  0.5353551043990521  0.029769441641775505  1.0000
  C   C22       1.0  0.4041972610856633  0.9646471151336442  0.5297621663722794  1.0000
  C   C23       1.0  0.4041886098829366  0.4646527086175212  0.9702380411339818  1.0000
  C   C24       1.0  0.5958092333823118  0.03535121610942579  0.470233901804157  1.0000
  Br  Br1       1.0  0.7909685613788824  0.6748954209650363  0.5017746902064886  1.0000
  Br  Br2       1.0  0.20902630340500386  0.8251049481328534  0.0017727798256573003  1.0000
  Br  Br3       1.0  0.2090345128282962  0.3250992143005433  0.49822876399722565  1.0000
  Br  Br4       1.0  0.7909864335818855  0.17489799269634426  0.9982232883704044  1.0000
  N   N1        1.0  0.6928019371714951  0.47555019040068197  0.3124449915031136  1.0000
  N   N2        1.0  0.3071924009713172  0.02444501158576169  0.8124357362790279  1.0000
  N   N3        1.0  0.3071920728925903  0.524438921649434  0.6875611485012811  1.0000
  N   N4        1.0  0.6928207353038757  0.9755597841357683  0.18756033191550614  1.0000
