data_image0
_chemical_formula_structural       Cd4H32C48S4N16O24
_chemical_formula_sum              "Cd4 H32 C48 S4 N16 O24"
_cell_length_a       7.549661499720475
_cell_length_b       11.818293264464888
_cell_length_c       16.494799713006987
_cell_angle_alpha    89.99989807639734
_cell_angle_beta     89.99998307003005
_cell_angle_gamma    94.37677426875518

_space_group_name_H-M_alt    "P 1"
_space_group_IT_number       1

loop_
  _space_group_symop_operation_xyz
  'x, y, z'

loop_
  _atom_site_type_symbol
  _atom_site_label
  _atom_site_symmetry_multiplicity
  _atom_site_fract_x
  _atom_site_fract_y
  _atom_site_fract_z
  _atom_site_occupancy
  Cd  Cd1       1.0  0.0503510461442787  0.2150042624978212  0.184252476574045  1.0000
  Cd  Cd2       1.0  0.4496445946301435  0.784996663318246  0.6842527032557371  1.0000
  Cd  Cd3       1.0  0.9496466615991965  0.7849958642461273  0.8157462328374621  1.0000
  Cd  Cd4       1.0  0.5503532171163528  0.2150043120446838  0.3157460061552301  1.0000
  H   H1        1.0  0.19965531113297888  0.7626327477832148  0.058674359595507  1.0000
  H   H2        1.0  0.3003445247656202  0.23736934119119718  0.558674693933945  1.0000
  H   H3        1.0  0.800351771127346  0.23736821580963863  0.9413267748215404  1.0000
  H   H4        1.0  0.6996518586160079  0.7626307872268114  0.44132947174275466  1.0000
  H   H5        1.0  0.18583772639421167  0.0096723425757048  0.0738990293809252  1.0000
  H   H6        1.0  0.3141564857485974  0.9903271685249706  0.5738959834066719  1.0000
  H   H7        1.0  0.8141601893538847  0.9903294814023481  0.9261027112878821  1.0000
  H   H8        1.0  0.6858400016391925  0.0096738085205033  0.42610151350102404  1.0000
  H   H9        1.0  0.9370238532953934  0.47188204890432667  0.2560688268373355  1.0000
  H   H10       1.0  0.5629760815167798  0.5281182792586421  0.7560688256034425  1.0000
  H   H11       1.0  0.0629778275259198  0.52811807279663  0.7439298825739016  1.0000
  H   H12       1.0  0.4370245869537611  0.47188438997869747  0.24393109630960907  1.0000
  H   H13       1.0  0.37613246400754  0.34761286802397257  0.9125643357908473  1.0000
  H   H14       1.0  0.1238732450203628  0.6523849174622001  0.41256172644257566  1.0000
  H   H15       1.0  0.6238700211585027  0.6523830089026531  0.0874331611196695  1.0000
  H   H16       1.0  0.8761295521544666  0.34761350532057383  0.5874363767179815  1.0000
  H   H17       1.0  0.02539032061217478  0.8209100545082606  0.17757301994919325  1.0000
  H   H18       1.0  0.4746091955165284  0.17909003464643547  0.6775715854068096  1.0000
  H   H19       1.0  0.9746139049232454  0.1790892152078739  0.8224287207208006  1.0000
  H   H20       1.0  0.5253901485944468  0.8209126362711315  0.3224289427580089  1.0000
  H   H21       1.0  0.8939156687975042  0.6791321353363599  0.27456422476844017  1.0000
  H   H22       1.0  0.6060839366198109  0.32086559990059976  0.7745644800430185  1.0000
  H   H23       1.0  0.10608559601142528  0.32086459188792554  0.7254350908966459  1.0000
  H   H24       1.0  0.3939207049280001  0.6791370642921991  0.22543665437311944  1.0000
  H   H25       1.0  0.3398656074546409  0.9834378588648177  0.9405879195370233  1.0000
  H   H26       1.0  0.1601304927061236  0.016557321211927  0.4405873228091721  1.0000
  H   H27       1.0  0.6601313722662282  0.016556327542453193  0.0594138211366797  1.0000
  H   H28       1.0  0.8398641503066955  0.9834394144181218  0.5594113866046869  1.0000
  H   H29       1.0  0.43924559407846425  0.1561640930351516  0.8595580497275253  1.0000
  H   H30       1.0  0.06075619169700989  0.8438338323879434  0.35955641912966024  1.0000
  H   H31       1.0  0.5607541383651267  0.8438309386321804  0.1404412659387475  1.0000
  H   H32       1.0  0.9392450731119197  0.15616289483634194  0.6404428965354256  1.0000
  C   C1        1.0  0.1611721736086906  0.5843309634731993  0.08993523663192349  1.0000
  C   C2        1.0  0.3388263085438226  0.4156710476223823  0.5899389774297602  1.0000
  C   C3        1.0  0.8388269624982312  0.4156700102118193  0.9100610477722384  1.0000
  C   C4        1.0  0.6611650894097636  0.58433163337655  0.4100651882456674  1.0000
  C   C5        1.0  0.20652484960888276  0.3866621433305967  0.0564557160137653  1.0000
  C   C6        1.0  0.2934785454414879  0.6133365517725053  0.5564549689848448  1.0000
  C   C7        1.0  0.7934794799309941  0.6133379750083705  0.943542993397287  1.0000
  C   C8        1.0  0.7065201746516224  0.38666102743198394  0.44354495293156054  1.0000
  C   C9        1.0  0.1421299654281256  0.7000271471111007  0.10137028383603308  1.0000
  C   C10       1.0  0.35786442889565256  0.29997399131046615  0.6013717435108532  1.0000
  C   C11       1.0  0.85787049503665  0.2999738248890651  0.8986290318264238  1.0000
  C   C12       1.0  0.6421266570482872  0.7000261438299943  0.39863363466955803  1.0000
  C   C13       1.0  0.0882912238671452  0.5020665449056878  0.1460172114169538  1.0000
  C   C14       1.0  0.41170954228015694  0.4979327742548278  0.6460159880349821  1.0000
  C   C15       1.0  0.9117103529508626  0.49793272817552753  0.8539821042465051  1.0000
  C   C16       1.0  0.5882908141821587  0.5020673491278984  0.35398211512466565  1.0000
  C   C17       1.0  0.2304337116638493  0.0818190319654093  0.035898519231260216  1.0000
  C   C18       1.0  0.2695658336362071  0.9181805691174885  0.535896176982682  1.0000
  C   C19       1.0  0.7695679691566111  0.918181089733231  0.9641020089350081  1.0000
  C   C20       1.0  0.7304360551917312  0.0818212498229585  0.4641013199241044  1.0000
  C   C21       1.0  0.9924194356085181  0.5357532939689804  0.2136602652369248  1.0000
  C   C22       1.0  0.5075846161496429  0.4642479856980728  0.7136579274736476  1.0000
  C   C23       1.0  0.00758632229280209  0.4642476713056495  0.7863402629285261  1.0000
  C   C24       1.0  0.4924226741190053  0.5357546751389038  0.2863383569288871  1.0000
  C   C25       1.0  0.2494775072603872  0.27822386540844957  0.0211828466049369  1.0000
  C   C26       1.0  0.25052062350882665  0.7217749261828388  0.5211831806687357  1.0000
  C   C27       1.0  0.7505227451991913  0.7217754093560698  0.9788146503035763  1.0000
  C   C28       1.0  0.7494783045903262  0.27822435025959885  0.47881674124658263  1.0000
  C   C29       1.0  0.33738824375210186  0.2708822903038453  0.946964925978591  1.0000
  C   C30       1.0  0.1626094867824861  0.7291154177196473  0.44696463916219653  1.0000
  C   C31       1.0  0.6626115926953702  0.7291135899847772  0.0530325709321033  1.0000
  C   C32       1.0  0.8373865845920604  0.2708821648468315  0.5530352827543865  1.0000
  C   C33       1.0  0.045187723990991926  0.7316515027197996  0.16832834326703514  1.0000
  C   C34       1.0  0.4548103724651611  0.26834776302297303  0.6683274046735266  1.0000
  C   C35       1.0  0.9548151771851536  0.2683477686773301  0.8316733974030444  1.0000
  C   C36       1.0  0.545187127270836  0.731650666479169  0.3316743359974552  1.0000
  C   C37       1.0  0.9708630505697471  0.6506268360019546  0.2236190902991027  1.0000
  C   C38       1.0  0.5291409918264947  0.34937441831925736  0.7236181075353301  1.0000
  C   C39       1.0  0.029142707331580205  0.34937412927266825  0.7763814378663483  1.0000
  C   C40       1.0  0.4708690511626088  0.6506290877716125  0.2763806018731927  1.0000
  C   C41       1.0  0.31718050687615557  0.0680496446396148  0.96237718593202  1.0000
  C   C42       1.0  0.18282250660873697  0.9319480174392536  0.46237542700811934  1.0000
  C   C43       1.0  0.6828234066501934  0.93194707921959  0.037624554739601  1.0000
  C   C44       1.0  0.8171763174874015  0.0680504103842097  0.5376244949077389  1.0000
  C   C45       1.0  0.37151653050378297  0.1644209132347925  0.9172956401811234  1.0000
  C   C46       1.0  0.12848499299148128  0.8355751680122196  0.4172958294982294  1.0000
  C   C47       1.0  0.6284859546619685  0.8355749636910588  0.082702462981068  1.0000
  C   C48       1.0  0.8715150514609036  0.16442240951127468  0.5827040924180835  1.0000
  S   S1        1.0  0.2639697994483257  0.5170363717006268  0.0112401669011604  1.0000
  S   S2        1.0  0.2360309893859949  0.48296244183284637  0.5112395928390683  1.0000
  S   S3        1.0  0.7360331017286725  0.482962899698812  0.9887597550138806  1.0000
  S   S4        1.0  0.7639627452782137  0.5170376899502428  0.4887621478310962  1.0000
  N   N1        1.0  0.18236462704510353  0.2849271860672076  0.3553227029152382  1.0000
  N   N2        1.0  0.31763207327960424  0.7150724540938281  0.8553230362548517  1.0000
  N   N3        1.0  0.8176317563385214  0.7150729423562012  0.6446772189997105  1.0000
  N   N4        1.0  0.682364310103452  0.28492767432803834  0.14467809816345317  1.0000
  N   N5        1.0  0.11817391878165039  0.39224100429576225  0.1250076270055729  1.0000
  N   N6        1.0  0.3818336969171624  0.6077600571649667  0.6250062686605915  1.0000
  N   N7        1.0  0.8818317351175083  0.6077591123622027  0.8749910824053941  1.0000
  N   N8        1.0  0.6181695162691979  0.39224176009217626  0.3749930470011407  1.0000
  N   N9        1.0  0.9123429054186616  0.005649481213055198  0.2520120874795566  1.0000
  N   N10       1.0  0.5876542804849691  0.9943500120160988  0.7520127050104151  1.0000
  N   N11       1.0  0.0876561266835267  0.9943506438483567  0.7479878344352145  1.0000
  N   N12       1.0  0.4123434272576461  0.005650114725540301  0.247987823156123  1.0000
  N   N13       1.0  0.19713943818834417  0.18428852486511715  0.06433347908291151  1.0000
  N   N14       1.0  0.3028586520196512  0.8157101569134896  0.5643330807688756  1.0000
  N   N15       1.0  0.80286081427095  0.8157107498986348  0.9356646240772832  1.0000
  N   N16       1.0  0.6971417044423874  0.18428996646846935  0.43566562864245384  1.0000
  O   O1        1.0  0.8400790879796958  0.9149953712024226  0.27832708329980704  1.0000
  O   O2        1.0  0.6599193975468862  0.08500405337628081  0.7783282360898056  1.0000
  O   O3        1.0  0.1599211644790302  0.08500390355978742  0.7216722323637371  1.0000
  O   O4        1.0  0.3400809589140081  0.9149960700025943  0.22167289832822953  1.0000
  O   O5        1.0  0.2623632770015051  0.2637020180199343  0.28609119427169827  1.0000
  O   O6        1.0  0.2376338004101513  0.7363003441854017  0.7860909054624585  1.0000
  O   O7        1.0  0.7376319900286035  0.7362998093216575  0.7139093338939304  1.0000
  O   O8        1.0  0.7623640113357766  0.2637006311759862  0.2139090164518578  1.0000
  O   O9        1.0  0.03919876827187349  0.32962674689598254  0.35249997662914007  1.0000
  O   O10       1.0  0.4607979347067471  0.670372900450083  0.8524991344144723  1.0000
  O   O11       1.0  0.960797719114204  0.6703742301448584  0.6475011577886179  1.0000
  O   O12       1.0  0.5391983446738493  0.3296263793543517  0.1475007875010235  1.0000
  O   O13       1.0  0.25789082877562913  0.25886540083675413  0.4193574414416545  1.0000
  O   O14       1.0  0.24210448699719223  0.7411340780439417  0.9193577521479597  1.0000
  O   O15       1.0  0.7421054506049671  0.7411338789676802  0.5806424804738413  1.0000
  O   O16       1.0  0.7578932207451458  0.2588660486969303  0.080643382270253  1.0000
  O   O17       1.0  0.9424806145084403  0.019720112481145705  0.1756674089768495  1.0000
  O   O18       1.0  0.5575167471624454  0.9802804236565452  0.6756674422084006  1.0000
  O   O19       1.0  0.05751994995935659  0.9802817081379941  0.8243319066850673  1.0000
  O   O20       1.0  0.4424821809364304  0.019718852785118198  0.3243330859585924  1.0000
  O   O21       1.0  0.959082310678113  0.08848760373733457  0.2993645316196876  1.0000
  O   O22       1.0  0.5409162590762192  0.9115126159221203  0.7993658667079657  1.0000
  O   O23       1.0  0.04091550106782188  0.9115133716240463  0.700635390294629  1.0000
  O   O24       1.0  0.45908144866583467  0.08848751081797701  0.2006358739619287  1.0000
