data_image0
_chemical_formula_structural       Ag4H16C20N8O16
_chemical_formula_sum              "Ag4 H16 C20 N8 O16"
_cell_length_a       7.99891747437009
_cell_length_b       8.52275670990692
_cell_length_c       11.323124339959914
_cell_angle_alpha    73.48153796482906
_cell_angle_beta     83.13352385161791
_cell_angle_gamma    70.46417048865472

_space_group_name_H-M_alt    "P 1"
_space_group_IT_number       1

loop_
  _space_group_symop_operation_xyz
  'x, y, z'

loop_
  _atom_site_type_symbol
  _atom_site_label
  _atom_site_symmetry_multiplicity
  _atom_site_fract_x
  _atom_site_fract_y
  _atom_site_fract_z
  _atom_site_occupancy
  Ag  Ag1       1.0  0.07424546857404837  0.29043092316553026  0.3338495871997368  1.0000
  Ag  Ag2       1.0  0.9257515013313979  0.7095679763211463  0.6661503515047901  1.0000
  Ag  Ag3       1.0  0.534473382029873  0.8091106233011941  0.46570720527056153  1.0000
  Ag  Ag4       1.0  0.4655290615171097  0.19089081269434155  0.5342907928341205  1.0000
  H   H1        1.0  0.24578646882125815  0.5095936922279235  0.9935628478349587  1.0000
  H   H2        1.0  0.7542180813108317  0.49040133487157067  0.006440786748370961  1.0000
  H   H3        1.0  0.05869774481353583  0.8454481067804306  0.8684635086386765  1.0000
  H   H4        1.0  0.9413093002705253  0.15454688252756196  0.1315372574638616  1.0000
  H   H5        1.0  0.7976798638714585  0.9545517474829307  0.03534386467330828  1.0000
  H   H6        1.0  0.20232467442647117  0.0454471100248597  0.9646553940879418  1.0000
  H   H7        1.0  0.7145685008771495  0.7903011211780324  0.275401826875104  1.0000
  H   H8        1.0  0.28542890635668533  0.2097003507362699  0.7245975051361031  1.0000
  H   H9        1.0  0.8883199310016753  0.2901236670017582  0.5380023797703474  1.0000
  H   H10       1.0  0.11167790683101947  0.7098765310661859  0.46199896014760383  1.0000
  H   H11       1.0  0.7719933442741652  0.12284810260688768  0.7682650465294929  1.0000
  H   H12       1.0  0.22800449355852961  0.8771520954610563  0.23173629338845825  1.0000
  H   H13       1.0  0.5223259868963694  0.24705748676451114  0.9388188304311245  1.0000
  H   H14       1.0  0.47767143890114755  0.7529440010154858  0.061182262802105924  1.0000
  H   H15       1.0  0.38285609102766954  0.5968163081405038  0.82501928083817  1.0000
  H   H16       1.0  0.6171438575673351  0.4031851656465335  0.17498158574730382  1.0000
  C   C1        1.0  0.13264662465660856  0.6078641176697417  0.018860544306008396  1.0000
  C   C2        1.0  0.8673596149207727  0.3921334669280582  0.9811414896491117  1.0000
  C   C3        1.0  0.03636128520819434  0.7737399884851824  0.9614883212933453  1.0000
  C   C4        1.0  0.9636453571225231  0.22625629846771733  0.038513078735483944  1.0000
  C   C5        1.0  0.900356234383054  0.8304167820747139  0.046991452213312364  1.0000
  C   C6        1.0  0.09964621844576985  0.1695846618536692  0.9530074265023817  1.0000
  C   C7        1.0  0.922053809110473  0.6948114702970255  0.1522226322203154  1.0000
  C   C8        1.0  0.07794527155729013  0.305188704908744  0.8477768331517341  1.0000
  C   C9        1.0  0.8254671683281463  0.6763111127678766  0.2656158403870991  1.0000
  C   C10       1.0  0.1745298083068221  0.3236916329927908  0.734381483717371  1.0000
  C   C11       1.0  0.7807020122624593  0.4064576568473085  0.5470879028243447  1.0000
  C   C12       1.0  0.21929833908588856  0.5935425192948287  0.45291232983483826  1.0000
  C   C13       1.0  0.682371089267953  0.39296382266575575  0.6605718093027235  1.0000
  C   C14       1.0  0.31762759792830775  0.6070376581177609  0.3394291706066286  1.0000
  C   C15       1.0  0.6855878494011736  0.25386277865319323  0.7612912740196196  1.0000
  C   C16       1.0  0.31441082851324625  0.7461386941974764  0.2387088252787208  1.0000
  C   C17       1.0  0.5568837481244701  0.31825052561940476  0.8485782722351164  1.0000
  C   C18       1.0  0.4431132656378694  0.6817522518726448  0.1514225743133935  1.0000
  C   C19       1.0  0.48331974105563086  0.49183319732643577  0.7964101186429605  1.0000
  C   C20       1.0  0.5166789461406298  0.5081682834570813  0.20359086126639178  1.0000
  N   N1        1.0  0.8619942698861536  0.5351635720504005  0.3554799928449342  1.0000
  N   N2        1.0  0.13800354938285866  0.46483661015184896  0.6445195858509934  1.0000
  N   N3        1.0  0.74919666075089  0.5478472845995058  0.45752124396026533  1.0000
  N   N4        1.0  0.2508036905974578  0.4521528915426316  0.5424789886989176  1.0000
  N   N5        1.0  0.8506103636479667  0.030389005500460094  0.39522092341694304  1.0000
  N   N6        1.0  0.1493920546058051  0.9696085683553973  0.6047779280657724  1.0000
  N   N7        1.0  0.4352148103844442  0.13052772557223588  0.21921417519272526  1.0000
  N   N8        1.0  0.5647855316820628  0.869472442637054  0.780785176855446  1.0000
  O   O1        1.0  0.06538290445902115  0.5578842358425077  0.1345014794201448  1.0000
  O   O2        1.0  0.9346178682063453  0.442114658520417  0.8654998805347635  1.0000
  O   O3        1.0  0.5575958975415817  0.5391612055434366  0.6829062224287841  1.0000
  O   O4        1.0  0.44240405105342273  0.4608402682435936  0.3170946441566899  1.0000
  O   O5        1.0  0.9979130670531973  0.03472851696255929  0.3390259313760994  1.0000
  O   O6        1.0  0.0020906218811660754  0.9652690578296654  0.6609736873937494  1.0000
  O   O7        1.0  0.8244393316802815  0.8861309946724203  0.4378971679330874  1.0000
  O   O8        1.0  0.17556059162152593  0.11386661697493136  0.5621045520304266  1.0000
  O   O9        1.0  0.7356140434028832  0.16926073366347785  0.4075950360158417  1.0000
  O   O10       1.0  0.26438500013751576  0.8307394098109098  0.5924009069121682  1.0000
  O   O11       1.0  0.37466839397519897  0.08814703550909538  0.3323639301302066  1.0000
  O   O12       1.0  0.6253302932210618  0.9118544452744214  0.6676370497791456  1.0000
  O   O13       1.0  0.3272993839358662  0.23624669483548638  0.1396040527968979  1.0000
  O   O14       1.0  0.6727026408464098  0.7637521845981112  0.8603963132231203  1.0000
  O   O15       1.0  0.5960164723172671  0.06600529063631912  0.19406873711935904  1.0000
  O   O16       1.0  0.40398470310144313  0.9339923060817056  0.8059319889092581  1.0000
