data_image0
_chemical_formula_structural       Mn2H24C32N12O8
_chemical_formula_sum              "Mn2 H24 C32 N12 O8"
_cell_length_a       6.648666281457562
_cell_length_b       10.052205167287486
_cell_length_c       12.57111464804357
_cell_angle_alpha    113.50378174340486
_cell_angle_beta     99.02037364214935
_cell_angle_gamma    89.98962731233613

_space_group_name_H-M_alt    "P 1"
_space_group_IT_number       1

loop_
  _space_group_symop_operation_xyz
  'x, y, z'

loop_
  _atom_site_type_symbol
  _atom_site_label
  _atom_site_symmetry_multiplicity
  _atom_site_fract_x
  _atom_site_fract_y
  _atom_site_fract_z
  _atom_site_occupancy
  Mn  Mn1       1.0  0.7500968140186687  0.07067994851496447  3.529951521840729e-05  1.0000
  Mn  Mn2       1.0  0.24990651125806812  0.929321774137868  0.9999684938379404  1.0000
  H   H1        1.0  0.01343641414887034  0.9590137412946901  0.5850447255157647  1.0000
  H   H2        1.0  0.4868709497268641  0.3739078509982575  0.4147435235869068  1.0000
  H   H3        1.0  0.986565844136962  0.04097717412477659  0.41495145952962537  1.0000
  H   H4        1.0  0.5131315023268145  0.6261004498100816  0.5852591712451343  1.0000
  H   H5        1.0  0.6042166075519405  0.20937909441811794  0.5606880088860606  1.0000
  H   H6        1.0  0.895530078758114  0.6481507007574762  0.43856944345778  1.0000
  H   H7        1.0  0.39579149799836705  0.7906247716078242  0.4393184745214782  1.0000
  H   H8        1.0  0.10445901572483512  0.35184570542097054  0.5614250627974613  1.0000
  H   H9        1.0  0.9330425124116318  0.3001490102777423  0.7021711438259147  1.0000
  H   H10       1.0  0.5668200700509232  0.5975533548331455  0.2968612164995861  1.0000
  H   H11       1.0  0.06695395074016372  0.6998603317035546  0.29783457765989846  1.0000
  H   H12       1.0  0.433168917067377  0.40244196403764215  0.7031329244779911  1.0000
  H   H13       1.0  0.09640955252434222  0.20687822285679397  0.9471491599655764  1.0000
  H   H14       1.0  0.4040898121919838  0.2591971951205565  0.05238144440154  1.0000
  H   H15       1.0  0.9035984456613094  0.7931245558614888  0.05285695816429836  1.0000
  H   H16       1.0  0.595920274500685  0.7407958867393774  0.9476161000101656  1.0000
  H   H17       1.0  0.9949139755869679  0.3792382292621567  0.9932097787930304  1.0000
  H   H18       1.0  0.5052008761007728  0.38536221129994885  0.0059647666412771605  1.0000
  H   H19       1.0  0.00508467145634479  0.6207623846506322  0.006794854208322787  1.0000
  H   H20       1.0  0.49480648588372134  0.614634122584256  0.9940344131852541  1.0000
  H   H21       1.0  0.1464335393029543  0.32730036244935695  0.8796776401886959  1.0000
  H   H22       1.0  0.353476573154751  0.4468827942886975  0.11937324120642505  1.0000
  H   H23       1.0  0.8535717328433919  0.6727056551245524  0.12033090446222873  1.0000
  H   H24       1.0  0.6465260045627943  0.5531113567164566  0.8806256218844127  1.0000
  C   C1        1.0  0.5253007719304676  0.10015523012746998  0.7759467725675294  1.0000
  C   C2        1.0  0.974917524757636  0.3239847297282877  0.22378555573015288  1.0000
  C   C3        1.0  0.4746952724117435  0.8998498679723567  0.22405115895781333  1.0000
  C   C4        1.0  0.025079392807633417  0.6760137902160324  0.7762134743163145  1.0000
  C   C5        1.0  0.48132475888812826  0.1219429740454103  0.6714731000712533  1.0000
  C   C6        1.0  0.018682054026037107  0.45011274888145175  0.32816426274034427  1.0000
  C   C7        1.0  0.518673784783914  0.8780565920656613  0.3285287943337564  1.0000
  C   C8        1.0  0.9813149735661428  0.5498868847078171  0.671833550371332  1.0000
  C   C9        1.0  0.6314588121147368  0.19325562057954926  0.6424189980805863  1.0000
  C   C10       1.0  0.8683643983530731  0.5503494649079599  0.3569262478746822  1.0000
  C   C11       1.0  0.3685403797386187  0.8067505088834108  0.35758271467172875  1.0000
  C   C12       1.0  0.13162937303217606  0.4496480368418716  0.6430682098385888  1.0000
  C   C13       1.0  0.8122848679660069  0.24443445363474575  0.7210329782018478  1.0000
  C   C14       1.0  0.6875929044612974  0.5229621795324704  0.2782396602607236  1.0000
  C   C15       1.0  0.18771605070313063  0.7555737434593937  0.2789759197178086  1.0000
  C   C16       1.0  0.3124021722678948  0.4770331196297804  0.7217557748718733  1.0000
  C   C17       1.0  0.8430789361976069  0.22463954449410295  0.826997242996633  1.0000
  C   C18       1.0  0.6570161523331067  0.3972730353576921  0.17240959177625834  1.0000
  C   C19       1.0  0.15692014695996193  0.7753654844925534  0.173004895584242  1.0000
  C   C20       1.0  0.3429834912714611  0.6027222457310017  0.8275870117491593  1.0000
  C   C21       1.0  0.03185340066571742  0.28782154164517243  0.9160277770446043  1.0000
  C   C22       1.0  0.46832704227855976  0.3712227585175255  0.08327714951404624  1.0000
  C   C23       1.0  0.9681515507177922  0.7121812271744047  0.08397888066709663  1.0000
  C   C24       1.0  0.5316785822411205  0.6287714023863344  0.9167211739949579  1.0000
  C   C25       1.0  0.3728107163733512  0.023321544426643498  0.8058534585578415  1.0000
  C   C26       1.0  0.12758609162051474  0.2173897256514152  0.19404069739236718  1.0000
  C   C27       1.0  0.6271909788032275  0.9766790925535032  0.19414984375545422  1.0000
  C   C28       1.0  0.8724187643785016  0.7826120743783135  0.8059584750856317  1.0000
  C   C29       1.0  0.2797659995089178  0.0733271153438366  0.5987153254998034  1.0000
  C   C30       1.0  0.22023920657056809  0.47422419713832636  0.4009953002055298  1.0000
  C   C31       1.0  0.720220500259707  0.9266738540335168  0.4012677326420543  1.0000
  C   C32       1.0  0.7797611885865908  0.5257786951039805  0.5990038602635366  1.0000
  N   N1        1.0  0.7030805247612264  0.15120495171350254  0.8528035811601596  1.0000
  N   N2        1.0  0.7971785592865501  0.2981599919369984  0.1468530649249047  1.0000
  N   N3        1.0  0.29691203799571053  0.8487957345824028  0.14719659326126322  1.0000
  N   N4        1.0  0.20282423449143044  0.7018363468521258  0.853145737615037  1.0000
  N   N5        1.0  0.19568118325372547  0.9723257078593263  0.7359136712680724  1.0000
  N   N6        1.0  0.30475254824598613  0.23638135846714892  0.2639781427828183  1.0000
  N   N7        1.0  0.8043170463111269  0.02767067534064439  0.2640823806665864  1.0000
  N   N8        1.0  0.6952538278262778  0.7636204135903241  0.7360227376698276  1.0000
  N   N9        1.0  0.15781899450566075  0.9977790278112263  0.6359782170554026  1.0000
  N   N10       1.0  0.34246327966948814  0.3616435238327184  0.3637970613687997  1.0000
  N   N11       1.0  0.8421822712123019  0.0022172599382769983  0.3640236241472438  1.0000
  N   N12       1.0  0.6575368967649667  0.6383571542883287  0.6362037418636177  1.0000
  O   O1        1.0  0.41703345368009787  0.010183444541993894  0.9063839530570448  1.0000
  O   O2        1.0  0.08336558369897061  0.10376095331995568  0.09363882622409388  1.0000
  O   O3        1.0  0.5829653140391572  0.9898183883649166  0.09361313415970332  1.0000
  O   O4        1.0  0.9166425325003615  0.896243018055152  0.9063613283336308  1.0000
  O   O5        1.0  0.2210184703163094  0.1002622687852579  0.5092856949439977  1.0000
  O   O6        1.0  0.2787787643010234  0.5904158694472129  0.4904194548022431  1.0000
  O   O7        1.0  0.7789858355481487  0.8997339630197205  0.4907195622079571  1.0000
  O   O8        1.0  0.7212181652444087  0.40958276901492496  0.5095724552881791  1.0000
