data_image0
_chemical_formula_structural       Cu2H28C38S2N4O12
_chemical_formula_sum              "Cu2 H28 C38 S2 N4 O12"
_cell_length_a       9.586929227405905
_cell_length_b       9.912170782920617
_cell_length_c       10.77310613116945
_cell_angle_alpha    66.46591291215098
_cell_angle_beta     77.37644020279437
_cell_angle_gamma    63.528497669395165

_space_group_name_H-M_alt    "P 1"
_space_group_IT_number       1

loop_
  _space_group_symop_operation_xyz
  'x, y, z'

loop_
  _atom_site_type_symbol
  _atom_site_label
  _atom_site_symmetry_multiplicity
  _atom_site_fract_x
  _atom_site_fract_y
  _atom_site_fract_z
  _atom_site_occupancy
  Cu  Cu1       1.0  0.19856841196146044  0.38530342768778064  0.28462059585501004  1.0000
  Cu  Cu2       1.0  0.8014296276099914  0.6146965730734307  0.7153803807577505  1.0000
  H   H1        1.0  0.3078597616847959  0.8029398008406189  0.12486984520528921  1.0000
  H   H2        1.0  0.6921410318452388  0.19706139374887502  0.8751273809971849  1.0000
  H   H3        1.0  0.4229031123824144  0.9985416035402109  0.07519548496434672  1.0000
  H   H4        1.0  0.5770976811476203  0.001459591049282899  0.9248017412381274  1.0000
  H   H5        1.0  0.47969543258265185  0.8525042398332586  0.5026604963082164  1.0000
  H   H6        1.0  0.5203038301577081  0.1474981581090873  0.49733751759161043  1.0000
  H   H7        1.0  0.35971754254167376  0.6601460533892406  0.5513585629755866  1.0000
  H   H8        1.0  0.640282792538109  0.3398563357071965  0.44863924677146366  1.0000
  H   H9        1.0  0.3532097511207582  0.5849761224229013  0.038812144398128995  1.0000
  H   H10       1.0  0.6467893619424814  0.41502386302765615  0.96118955843599  1.0000
  H   H11       1.0  0.4168407362743877  0.6019556555598556  0.7965143968896341  1.0000
  H   H12       1.0  0.5831583767888517  0.3980443298906948  0.2034873059444848  1.0000
  H   H13       1.0  0.3198064132385241  0.46045839521429593  0.7066339284260367  1.0000
  H   H14       1.0  0.6801911678826755  0.5395428000538729  0.29336763173130004  1.0000
  H   H15       1.0  0.16472281675012113  0.28939890111735883  0.7559742968251157  1.0000
  H   H16       1.0  0.8352799729339964  0.7105998568237766  0.24402714038025405  1.0000
  H   H17       1.0  0.007169816681759772  0.1488353081950535  0.9181460212488517  1.0000
  H   H18       1.0  0.9928334314526173  0.8511622552391386  0.08185483241193477  1.0000
  H   H19       1.0  0.888305984891069  0.0597858557903024  0.16430943073957147  1.0000
  H   H20       1.0  0.11169266741719493  0.9402153370967171  0.8356909948908537  1.0000
  H   H21       1.0  0.8584759797137526  0.06156351257429548  0.39644512386416153  1.0000
  H   H22       1.0  0.1415206798975035  0.9384400975668044  0.6035538818857801  1.0000
  H   H23       1.0  0.988526795409996  0.2013445143978814  0.4540667834767548  1.0000
  H   H24       1.0  0.011468795318911923  0.798659085194842  0.5459352175483758  1.0000
  H   H25       1.0  0.22390983204186202  0.21007377441527814  0.5381713826107841  1.0000
  H   H26       1.0  0.7760877479269795  0.7899274273176432  0.4618292471724103  1.0000
  H   H27       1.0  0.1790092963440842  0.3993551225886874  0.5039085832460373  1.0000
  H   H28       1.0  0.8209893548118217  0.6006460767630982  0.49609091201025274  1.0000
  C   C1        1.0  0.263636123022394  0.5927857634014938  0.3758860192082097  1.0000
  C   C2        1.0  0.736364671660006  0.40721542472324035  0.6241121373684066  1.0000
  C   C3        1.0  0.3257679611700937  0.7183599560626205  0.3421151905619623  1.0000
  C   C4        1.0  0.6742343631496225  0.28164003517402136  0.6578812479431592  1.0000
  C   C5        1.0  0.3429440429103181  0.8148088657520346  0.2081306639651288  1.0000
  C   C6        1.0  0.6570582825617565  0.18519111901984786  0.7918667049141348  1.0000
  C   C7        1.0  0.4092805750073014  0.9245068788236918  0.1795367373262949  1.0000
  C   C8        1.0  0.5907223620492275  0.07549430453875769  0.8204591501965056  1.0000
  C   C9        1.0  0.46040267819427083  0.9362109944234119  0.28510944515195286  1.0000
  C   C10       1.0  0.5396016388224539  0.06378657955914947  0.7148884132336519  1.0000
  C   C11       1.0  0.4407272000260819  0.8431927379408748  0.4198150884693418  1.0000
  C   C12       1.0  0.5592729819194986  0.156807258058052  0.5801836190896026  1.0000
  C   C13       1.0  0.37329214020996926  0.7353059604324769  0.44738789282655483  1.0000
  C   C14       1.0  0.6267086533200655  0.264695234157017  0.5526093333759192  1.0000
  C   C15       1.0  0.31756447159924767  0.5215369521026644  0.9978416759883545  1.0000
  C   C16       1.0  0.6824357126510564  0.47846303096675036  0.002158892318860231  1.0000
  C   C17       1.0  0.3510542347699896  0.5311260342837586  0.8614440689603884  1.0000
  C   C18       1.0  0.6489459506326726  0.4688739423208971  0.13855742972096155  1.0000
  C   C19       1.0  0.2988994713361278  0.4529036286297837  0.8124954582325756  1.0000
  C   C20       1.0  0.7011001013297218  0.5470951558490568  0.18750659143110238  1.0000
  C   C21       1.0  0.212246132654066  0.3647154442244939  0.9007245405558563  1.0000
  C   C22       1.0  0.7877529815615247  0.6352845347612969  0.09927809265239758  1.0000
  C   C23       1.0  0.1462422701196644  0.2847339085923365  0.8607424463939922  1.0000
  C   C24       1.0  0.8537588344882181  0.7152636660688997  0.1392597459464752  1.0000
  C   C25       1.0  0.06042346583244298  0.20465940560151807  0.9515344667545307  1.0000
  C   C26       1.0  0.9395791707174723  0.7953369592421068  0.04846786826271914  1.0000
  C   C27       1.0  0.03581525882481169  0.1947965175081094  0.09033061584414531  1.0000
  C   C28       1.0  0.9641853861804608  0.8052022581248366  0.9096712296667634  1.0000
  C   C29       1.0  0.9475373854271466  0.11639336018649972  0.18979059394040118  1.0000
  C   C30       1.0  0.05246172763609294  0.8836066252640574  0.8102111088937178  1.0000
  C   C31       1.0  0.9307510090261886  0.11686413733223587  0.32050414726401755  1.0000
  C   C32       1.0  0.06924503900061307  0.8831382742182966  0.6794963398423874  1.0000
  C   C33       1.0  0.0018653109209054942  0.19450706601681841  0.35345707048013963  1.0000
  C   C34       1.0  0.9981307371059032  0.805495345533714  0.6465434166262725  1.0000
  C   C35       1.0  0.18732670771697002  0.3587852879808792  0.03680256776294753  1.0000
  C   C36       1.0  0.8126733245514828  0.6412122955262588  0.9631998287302823  1.0000
  C   C37       1.0  0.10186601258286034  0.2712289162770815  0.1321519096002959  1.0000
  C   C38       1.0  0.8981346324224121  0.7287698593558571  0.8678499359106125  1.0000
  S   S1        1.0  0.5573704533958761  0.06577823397119428  0.25227936666329503  1.0000
  S   S2        1.0  0.44262972739734613  0.9342217684924986  0.7477184105215073  1.0000
  N   N1        1.0  0.23887826936782375  0.436619924724276  0.08309193515814425  1.0000
  N   N2        1.0  0.7611239087318395  0.5633776346262918  0.9169109834036888  1.0000
  N   N3        1.0  0.08573965901958766  0.26905959423357456  0.2612367038715817  1.0000
  N   N4        1.0  0.9142588413068325  0.7309391990911747  0.7387655499448658  1.0000
  O   O1        1.0  0.2517431899036637  0.5601692119569748  0.274922163291876  1.0000
  O   O2        1.0  0.7482563804574623  0.43982958545139184  0.7250780256235246  1.0000
  O   O3        1.0  0.22990010999365773  0.5258377146347255  0.4987814613490329  1.0000
  O   O4        1.0  0.7701006846887423  0.47416347349000876  0.5012166952275836  1.0000
  O   O5        1.0  0.7015593478074037  0.9633727338772854  0.32799137735082695  1.0000
  O   O6        1.0  0.2984403756879246  0.036628456628591294  0.6720079137526938  1.0000
  O   O7        1.0  0.5865705900685968  0.12831795464789753  0.10595378076511253  1.0000
  O   O8        1.0  0.41342974616354417  0.8716844279837798  0.8940449593560801  1.0000
  O   O9        1.0  0.45171729256394133  0.1916535942951185  0.31016065082661737  1.0000
  O   O10       1.0  0.548282889381646  0.8083464017038152  0.68983805673232  1.0000
  O   O11       1.0  0.15316474300274766  0.3198307114955482  0.4834442301371027  1.0000
  O   O12       1.0  0.846834980492588  0.6801704790103286  0.5165550609664181  1.0000
