data_image0
_chemical_formula_structural       Cu2H44C32S4N12
_chemical_formula_sum              "Cu2 H44 C32 S4 N12"
_cell_length_a       7.977590387805001
_cell_length_b       8.493041462406776
_cell_length_c       13.800179254034928
_cell_angle_alpha    90.00073238452775
_cell_angle_beta     89.99813420284627
_cell_angle_gamma    92.51960257910036

_space_group_name_H-M_alt    "P 1"
_space_group_IT_number       1

loop_
  _space_group_symop_operation_xyz
  'x, y, z'

loop_
  _atom_site_type_symbol
  _atom_site_label
  _atom_site_symmetry_multiplicity
  _atom_site_fract_x
  _atom_site_fract_y
  _atom_site_fract_z
  _atom_site_occupancy
  Cu  Cu1       1.0  0.5000048565674647  0.9999959865523704  1.352529466199997e-06  1.0000
  Cu  Cu2       1.0  0.49999586001735713  0.49999836995174723  0.5000030473845314  1.0000
  H   H1        1.0  0.9861326774198672  0.27897004293502886  0.7475153813175907  1.0000
  H   H2        1.0  0.013868235149814698  0.22103737182096947  0.2475141848593054  1.0000
  H   H3        1.0  0.013861870747326999  0.7210349643947893  0.2524798440330045  1.0000
  H   H4        1.0  0.9861336992789944  0.7789641530922323  0.7524781418946844  1.0000
  H   H5        1.0  0.9905398772079151  0.1334917193727705  0.6542493154291549  1.0000
  H   H6        1.0  0.0094700777187242  0.3665175218314333  0.1542478909807912  1.0000
  H   H7        1.0  0.009449609673566785  0.8665120739286322  0.34574590996459154  1.0000
  H   H8        1.0  0.9905458780792388  0.6334899933895245  0.8457458849204613  1.0000
  H   H9        1.0  0.09785721880750493  0.1050566983923318  0.765018533166014  1.0000
  H   H10       1.0  0.9021442109693184  0.3949569436961723  0.2650178246943041  1.0000
  H   H11       1.0  0.9021349130006656  0.8949506482812737  0.2349774168448704  1.0000
  H   H12       1.0  0.09785646960840917  0.6050445723315646  0.7349730528149861  1.0000
  H   H13       1.0  0.7079398598367065  0.9442815544829131  0.646597289526504  1.0000
  H   H14       1.0  0.2920672049197747  0.5557321275433226  0.1466040266251909  1.0000
  H   H15       1.0  0.29205097227896454  0.0557246048051852  0.3534015590051069  1.0000
  H   H16       1.0  0.7079446688346779  0.4442671113860754  0.8534013433346246  1.0000
  H   H17       1.0  0.4121211391433802  0.7507690113650511  0.8486923596185534  1.0000
  H   H18       1.0  0.5878805468807543  0.7492355122759022  0.3486971846969098  1.0000
  H   H19       1.0  0.5878795868161859  0.24923368331782564  0.1513108365754832  1.0000
  H   H20       1.0  0.4121237120044584  0.25076131636760113  0.6513110838386281  1.0000
  H   H21       1.0  0.448720347288898  0.7426484600190405  0.7213240706650978  1.0000
  H   H22       1.0  0.5512846012713625  0.7573536665381653  0.22132892738078877  1.0000
  H   H23       1.0  0.5512803786107271  0.2573542346840654  0.2786812994137406  1.0000
  H   H24       1.0  0.4487207743603037  0.2426396353490645  0.7786786165021198  1.0000
  H   H25       1.0  0.32647616254251943  0.8926546544112668  0.7690817157403416  1.0000
  H   H26       1.0  0.6735287972630745  0.6073519143095538  0.2690838098002288  1.0000
  H   H27       1.0  0.6735220556349618  0.10734802252765263  0.2309214804773561  1.0000
  H   H28       1.0  0.3264727709339682  0.39264018243472526  0.7309251833705375  1.0000
  H   H29       1.0  0.7706052254583043  0.23990572504879992  0.9777258723611623  1.0000
  H   H30       1.0  0.2293926565561222  0.2600966168625334  0.4777274233989033  1.0000
  H   H31       1.0  0.22940270389676704  0.7600887730487071  0.022273700591299  1.0000
  H   H32       1.0  0.7705842912151085  0.73990708778652  0.522275048395862  1.0000
  H   H33       1.0  0.962370449850397  0.24012144709882932  0.9135444571039527  1.0000
  H   H34       1.0  0.03763338803188531  0.25987736098667824  0.413546013172386  1.0000
  H   H35       1.0  0.03763264698644519  0.7598777296188357  0.08644931888639461  1.0000
  H   H36       1.0  0.9623524743010777  0.7401299413337766  0.5864506615259302  1.0000
  H   H37       1.0  0.9930375461773763  0.13066793556033926  0.0766162040711578  1.0000
  H   H38       1.0  0.006955282429196099  0.3693373529339681  0.5766185264788533  1.0000
  H   H39       1.0  0.0069716829501160925  0.8693277498957102  0.9233775718474887  1.0000
  H   H40       1.0  0.9930269096736807  0.6306722798515593  0.4233781482633105  1.0000
  H   H41       1.0  0.8335848734314768  0.9833933795310443  0.0558872595374567  1.0000
  H   H42       1.0  0.16640434970878457  0.5166113832723126  0.5558867032131402  1.0000
  H   H43       1.0  0.16642565522866448  0.0166034933644568  0.9441094148866114  1.0000
  H   H44       1.0  0.8335739892779086  0.483395865816277  0.4441099715561734  1.0000
  C   C1        1.0  0.6418841895817521  0.6843732044639238  0.0325157442536721  1.0000
  C   C2        1.0  0.3581134795599965  0.8156217484402359  0.5325327383522307  1.0000
  C   C3        1.0  0.35812271462977213  0.3156271774169213  0.9674787563336196  1.0000
  C   C4        1.0  0.6418830273513407  0.18436913427562726  0.467476254861687  1.0000
  C   C5        1.0  0.8286610804191669  0.07074082886384761  0.7702983701028643  1.0000
  C   C6        1.0  0.1713446621022925  0.42926234016210435  0.2703030678342415  1.0000
  C   C7        1.0  0.17134080812827085  0.9292595175627979  0.22969975367310272  1.0000
  C   C8        1.0  0.8286509569499572  0.5707379619181409  0.7296965052574295  1.0000
  C   C9        1.0  0.9842728114240629  0.15178942562549483  0.7326911810274552  1.0000
  C   C10       1.0  0.0157391783722289  0.34822367692935075  0.2326916687069343  1.0000
  C   C11       1.0  0.01572048289204281  0.8482155728188517  0.2673025950784336  1.0000
  C   C12       1.0  0.9842678630038649  0.6517802405729967  0.7673028318928843  1.0000
  C   C13       1.0  0.7097862007842365  0.9730909693153792  0.723175375538993  1.0000
  C   C14       1.0  0.2902239814268412  0.5269194769231691  0.22317540054539362  1.0000
  C   C15       1.0  0.29021058073598743  0.026906984549093203  0.2768234729042192  1.0000
  C   C16       1.0  0.7097856133130022  0.47308563691083794  0.7768241724328177  1.0000
  C   C17       1.0  0.591260086415538  0.9244927975099555  0.7937710424649254  1.0000
  C   C18       1.0  0.40874839013117276  0.5755107305976992  0.293775725661888  1.0000
  C   C19       1.0  0.4087418020319902  0.0755075489504051  0.2062307044523877  1.0000
  C   C20       1.0  0.5912509445729626  0.4244884196591272  0.7062347168141443  1.0000
  C   C21       1.0  0.4361454251584362  0.8218422961073911  0.783316447797553  1.0000
  C   C22       1.0  0.5638612573281352  0.6781645553063386  0.2833211716640704  1.0000
  C   C23       1.0  0.5638539554670386  0.1781580326224983  0.2166867483999653  1.0000
  C   C24       1.0  0.43614295583554963  0.3218310947966642  0.7166870968672897  1.0000
  C   C25       1.0  0.8620557761768594  0.1631872116309765  0.9446338322614096  1.0000
  C   C26       1.0  0.1379438850984869  0.336813335860974  0.4446355405472957  1.0000
  C   C27       1.0  0.13795099079015927  0.8368096346553314  0.05536356682642919  1.0000
  C   C28       1.0  0.8620418856915251  0.6631916094121948  0.5553647572840106  1.0000
  C   C29       1.0  0.9351922136252285  0.054392721228950294  0.020415733970828895  1.0000
  C   C30       1.0  0.0647998612681988  0.445609137609388  0.5204175580354189  1.0000
  C   C31       1.0  0.06481943184130048  0.9456006248900478  0.9795780419158078  1.0000
  C   C32       1.0  0.9351798230525931  0.554400477432182  0.4795791167304131  1.0000
  S   S1        1.0  0.7810985656086232  0.5552443189031422  0.04648403003226059  1.0000
  S   S2        1.0  0.2189192186021244  0.9447722495935759  0.546495249087279  1.0000
  S   S3        1.0  0.21891800387913923  0.4447467056564848  0.9535133689400368  1.0000
  S   S4        1.0  0.7810903759379002  0.05523286430786101  0.4535115701736245  1.0000
  N   N1        1.0  0.6356192545099191  0.9905331328442062  0.8792965815856064  1.0000
  N   N2        1.0  0.3643855307791242  0.5094661031293412  0.3792979647726682  1.0000
  N   N3        1.0  0.36438505029663304  0.0094648742723606  0.12070444067141749  1.0000
  N   N4        1.0  0.6356074888681603  0.4905318241866255  0.6207081299887349  1.0000
  N   N5        1.0  0.7792508915304879  0.07961991495371729  0.8645237355159381  1.0000
  N   N6        1.0  0.22075569552900023  0.42037915933406106  0.36452452997173884  1.0000
  N   N7        1.0  0.22075099699696923  0.9203804314796712  0.1354751128882938  1.0000
  N   N8        1.0  0.779234953600664  0.5796222858257493  0.6354779416845133  1.0000
  N   N9        1.0  0.5349970739607244  0.7774983432709063  0.0236983940665354  1.0000
  N   N10       1.0  0.46498293262889945  0.722481000286038  0.523714085840318  1.0000
  N   N11       1.0  0.4650241909406319  0.22248446702683106  0.9763026279705328  1.0000
  N   N12       1.0  0.5350100413168306  0.27751574848268495  0.4762912842886351  1.0000
