data_image0
_chemical_formula_structural       Ni9H21C15Cl3O33
_chemical_formula_sum              "Ni9 H21 C15 Cl3 O33"
_cell_length_a       7.425125495049598
_cell_length_b       11.895498011685513
_cell_length_c       11.907571441078607
_cell_angle_alpha    120.01484825468151
_cell_angle_beta     89.9589114263501
_cell_angle_gamma    90.0275150457179

_space_group_name_H-M_alt    "P 1"
_space_group_IT_number       1

loop_
  _space_group_symop_operation_xyz
  'x, y, z'

loop_
  _atom_site_type_symbol
  _atom_site_label
  _atom_site_symmetry_multiplicity
  _atom_site_fract_x
  _atom_site_fract_y
  _atom_site_fract_z
  _atom_site_occupancy
  Ni  Ni1       1.0  0.5360842871067888  0.3883890756493713  0.6158392037667326  1.0000
  Ni  Ni2       1.0  0.870001124405114  0.3843196777900886  0.7731267742691587  1.0000
  Ni  Ni3       1.0  0.20411938619342607  0.22734265095496656  0.6111091096670833  1.0000
  Ni  Ni4       1.0  0.5132077408839066  0.5625011619121807  0.3007894848161285  1.0000
  Ni  Ni5       1.0  0.8465203725787875  0.6988396629971376  0.261694718873393  1.0000
  Ni  Ni6       1.0  0.17972224744978857  0.7381133738773613  0.43713602426748815  1.0000
  Ni  Ni7       1.0  0.13563122588672633  0.045568923770474605  0.1147254212451543  1.0000
  Ni  Ni8       1.0  0.46956363406582113  0.8855693496335916  0.9303360385759234  1.0000
  Ni  Ni9       1.0  0.8023054228275727  0.06943989933076722  0.9545167207204344  1.0000
  H   H1        1.0  0.7096230589313351  0.3469460582149536  0.22716518408068959  1.0000
  H   H2        1.0  0.042665673157976904  0.7740132760717415  0.12096853687499028  1.0000
  H   H3        1.0  0.3749389343849075  0.8791601576150824  0.6531059216599715  1.0000
  H   H4        1.0  0.6355998904493348  0.3974676435547763  0.36855304135647776  1.0000
  H   H5        1.0  0.970539266627391  0.6321454488191947  0.029114983510488898  1.0000
  H   H6        1.0  0.30446860003394255  0.9709336102962212  0.6026675642552918  1.0000
  H   H7        1.0  0.23395681546157482  0.5955991271069933  0.603610543231909  1.0000
  H   H8        1.0  0.5683377657768744  0.39511621390333573  0.9922413460536532  1.0000
  H   H9        1.0  0.9008911593693795  0.0079765526432922  0.4044525842467408  1.0000
  H   H10       1.0  0.47225929932139377  0.20063587250241  0.308044546933921  1.0000
  H   H11       1.0  0.8034741491081123  0.6909941937712746  0.894290356463202  1.0000
  H   H12       1.0  0.1357529316353592  0.10403584750024923  0.7945979994772188  1.0000
  H   H13       1.0  0.7404491591149451  0.6319862374569638  0.5534975732564007  1.0000
  H   H14       1.0  0.07412437336383698  0.4464139250414618  0.07830008532042144  1.0000
  H   H15       1.0  0.40737947208346986  0.9213904892744367  0.36747780971363403  1.0000
  H   H16       1.0  0.9780105139685489  0.25350584652793623  0.3956388968493201  1.0000
  H   H17       1.0  0.31043020290646695  0.6052147226502812  0.858660903226067  1.0000
  H   H18       1.0  0.6440154807016114  0.14221685503957096  0.7470844481103712  1.0000
  H   H19       1.0  0.3403274919716638  0.2608872711831154  0.08933933801843352  1.0000
  H   H20       1.0  0.6733844590146704  0.9114557491034746  0.17177473717777061  1.0000
  H   H21       1.0  0.007690751229894498  0.8289820109837153  0.7394349300853095  1.0000
  C   C1        1.0  0.34763863966038855  0.5671935028739767  0.5352217265378557  1.0000
  C   C2        1.0  0.6814297709911658  0.4640681799112443  0.032114261138147464  1.0000
  C   C3        1.0  0.014823770468204604  0.9678421594965841  0.43238410026083335  1.0000
  C   C4        1.0  0.35573047633812394  0.19156797737958445  0.36057046454418906  1.0000
  C   C5        1.0  0.6880284943098971  0.6389442602340125  0.831143957046649  1.0000
  C   C6        1.0  0.021112518771445803  0.16827290421772287  0.8070438191154709  1.0000
  C   C7        1.0  0.8212133481154141  0.6651681983411992  0.4976883829654285  1.0000
  C   C8        1.0  0.15481369274525753  0.502128352537099  0.16725977927175964  1.0000
  C   C9        1.0  0.4882611284876646  0.8324723326740582  0.33457149102486744  1.0000
  C   C10       1.0  0.8960499636341481  0.29708398603113306  0.48479972502635604  1.0000
  C   C11       1.0  0.22855015656117675  0.5159266549553722  0.8129047736267411  1.0000
  C   C12       1.0  0.5621188495335119  0.18774059148564254  0.7034700993367552  1.0000
  C   C13       1.0  0.43099539140115445  0.17622558746040082  0.04432551137738022  1.0000
  C   C14       1.0  0.7642420713901359  0.9560622355706342  0.13178179992576838  1.0000
  C   C15       1.0  0.0981135982829215  0.8687684820944027  0.8241317385380996  1.0000
  Cl  Cl1       1.0  0.3008241564731265  0.8582197719348624  0.08879578965804306  1.0000
  Cl  Cl2       1.0  0.635095395417153  0.9118817255477722  0.7696453950071103  1.0000
  Cl  Cl3       1.0  0.9673737829661704  0.23118943075647988  0.142508224574172  1.0000
  O   O1        1.0  0.9712827833084249  0.30750810276734336  0.5867101721697949  1.0000
  O   O2        1.0  0.3036304908450164  0.41397568073016816  0.721250346112271  1.0000
  O   O3        1.0  0.6371353284182818  0.2795176996893645  0.6932201128578086  1.0000
  O   O4        1.0  0.3768862849405751  0.23736162522801146  0.4834454257189691  1.0000
  O   O5        1.0  0.70886009682485  0.5158047538058881  0.7541757853188643  1.0000
  O   O6        1.0  0.04141107673746092  0.24472492640170176  0.7602816566427748  1.0000
  O   O7        1.0  0.47433658320530725  0.49785129294547664  0.5360079624631311  1.0000
  O   O8        1.0  0.8075778173680846  0.4642717911702691  0.962080395045227  1.0000
  O   O9        1.0  0.1422038495596425  0.0377181287800497  0.5008842807674512  1.0000
  O   O10       1.0  0.9811892364648855  0.6998119555227404  0.5322763607086359  1.0000
  O   O11       1.0  0.3148974838855452  0.4676836254814845  0.16707476410856975  1.0000
  O   O12       1.0  0.6483174015150439  0.8325393668789757  0.30012151252586244  1.0000
  O   O13       1.0  0.737258130739832  0.33146668641942506  0.4795879536879326  1.0000
  O   O14       1.0  0.06976289464500951  0.5211901204670539  0.852650904032494  1.0000
  O   O15       1.0  0.4034580832523248  0.14785187739081357  0.6688903518841158  1.0000
  O   O16       1.0  0.606851745466358  0.39162234328504286  0.2849805310290705  1.0000
  O   O17       1.0  0.9408512899677391  0.7152824930889568  0.10728195808098223  1.0000
  O   O18       1.0  0.27369932451108536  0.8930946121983537  0.6079932602390842  1.0000
  O   O19       1.0  0.368562911550299  0.07053648222602503  0.03413480609902561  1.0000
  O   O20       1.0  0.7020448263308767  0.9660030468086306  0.03629831576903109  1.0000
  O   O21       1.0  0.0352702550645319  0.964015044795481  0.9296959902932473  1.0000
  O   O22       1.0  0.21189808764938087  0.13995334333655765  0.303559341901071  1.0000
  O   O23       1.0  0.5454219609038161  0.6965296219662207  0.8349316397611305  1.0000
  O   O24       1.0  0.8795216460846477  0.16635807748873083  0.8629138108648036  1.0000
  O   O25       1.0  0.740693176419839  0.6643394148014963  0.4020140029312032  1.0000
  O   O26       1.0  0.0740575981603868  0.5976662919054192  0.26238292685943077  1.0000
  O   O27       1.0  0.40766505729551744  0.7375129874025816  0.33550167594919594  1.0000
  O   O28       1.0  0.34537409138156516  0.6098221365585701  0.45510008503731564  1.0000
  O   O29       1.0  0.6793089753691393  0.5441203032445685  0.1549414894790715  1.0000
  O   O30       1.0  0.011952402000162001  0.8449978499523781  0.3900350737359446  1.0000
  O   O31       1.0  0.583971468500323  0.19089260136682643  0.008276493139881299  1.0000
  O   O32       1.0  0.9173648684997033  0.9917667965969983  0.18225901284915846  1.0000
  O   O33       1.0  0.25129333080118954  0.8182891276898658  0.8093827621307099  1.0000
