data_image0
_chemical_formula_structural       Zn16H48C104S16O52
_chemical_formula_sum              "Zn16 H48 C104 S16 O52"
_cell_length_a       19.64643150724947
_cell_length_b       19.654481511756728
_cell_length_c       33.36859218938904
_cell_angle_alpha    79.10237345417717
_cell_angle_beta     79.13776655144042
_cell_angle_gamma    63.9757534902126

_space_group_name_H-M_alt    "P 1"
_space_group_IT_number       1

loop_
  _space_group_symop_operation_xyz
  'x, y, z'

loop_
  _atom_site_type_symbol
  _atom_site_label
  _atom_site_symmetry_multiplicity
  _atom_site_fract_x
  _atom_site_fract_y
  _atom_site_fract_z
  _atom_site_occupancy
  Zn  Zn1       1.0  0.052163030043608685  0.402231633192457  0.4763688363716272  1.0000
  Zn  Zn2       1.0  0.9865419951047866  0.48169969805398694  0.5604488635983175  1.0000
  Zn  Zn3       1.0  0.06023386629309608  0.5584690247030651  0.4826546145481529  1.0000
  Zn  Zn4       1.0  0.8987566790919528  0.5546159953748669  0.47998596549319933  1.0000
  Zn  Zn5       1.0  0.6947736559694915  0.3469143806254137  0.273152303905441  1.0000
  Zn  Zn6       1.0  0.6893591952944718  0.18790130431637664  0.2658673887742681  1.0000
  Zn  Zn7       1.0  0.7621029816171824  0.2722667831881368  0.18998497986046917  1.0000
  Zn  Zn8       1.0  0.8485407765382077  0.19153220080909256  0.2703110043649275  1.0000
  Zn  Zn9       1.0  0.26831872399865375  0.7636321358869653  0.6895645781782066  1.0000
  Zn  Zn10      1.0  0.3477179531806839  0.6980860126445805  0.7737876278358087  1.0000
  Zn  Zn11      1.0  0.19567415658240608  0.8515343163520441  0.7699181967583685  1.0000
  Zn  Zn12      1.0  0.19095068614716834  0.6907209072373702  0.7674717032587639  1.0000
  Zn  Zn13      1.0  0.5619529111487437  0.060703846419286785  0.9840833416735538  1.0000
  Zn  Zn14      1.0  0.40297321243317435  0.055448985926560036  0.9768871122565914  1.0000
  Zn  Zn15      1.0  0.5587372797310762  0.901632591898519  0.9794127869996105  1.0000
  Zn  Zn16      1.0  0.4776835269152072  0.9872818461856879  0.059865376090371625  1.0000
  H   H1        1.0  0.7477870748759301  0.44013809432157575  0.3507138637446943  1.0000
  H   H2        1.0  0.9969995464849857  0.30163788394761337  0.40295679059212136  1.0000
  H   H3        1.0  0.20454039125951337  0.6960778953459298  0.602057507232317  1.0000
  H   H4        1.0  0.0563846508722463  0.5428690045243059  0.6483468752815896  1.0000
  H   H5        1.0  0.28767805032257593  0.5054001936687841  0.4113061751628494  1.0000
  H   H6        1.0  0.4587674539976091  0.24052819242420753  0.33567786132685035  1.0000
  H   H7        1.0  0.7747550495190652  0.5461765147105595  0.652777422005741  1.0000
  H   H8        1.0  0.4814862179192331  0.6975415656018171  0.6052069555313083  1.0000
  H   H9        1.0  0.0524203397259271  0.26836795837144933  0.6449395383199602  1.0000
  H   H10       1.0  0.20404458852198806  0.9755685017847779  0.5970439170368779  1.0000
  H   H11       1.0  0.7940481839185975  0.7847109102137608  0.40983188285071054  1.0000
  H   H12       1.0  0.9556554752854038  0.9592402312338775  0.3378393745440605  1.0000
  H   H13       1.0  0.6451579221733464  0.15111550243219105  0.04978609102742132  1.0000
  H   H14       1.0  0.5962353033772415  0.10635012474475766  0.20031783587326407  1.0000
  H   H15       1.0  0.7065866781748509  0.4837657788200787  0.10643166640005577  1.0000
  H   H16       1.0  0.5363680766661643  0.7775665018752422  0.15105102136554646  1.0000
  H   H17       1.0  0.08112722150760018  0.1044878081686491  0.20558107825241484  1.0000
  H   H18       1.0  0.1579493537719756  0.15295174846284  0.036060421359501015  1.0000
  H   H19       1.0  0.30844963544080156  0.002409735111477642  0.8996738122669898  1.0000
  H   H20       1.0  0.44898401645270514  0.7538883809745232  0.8470465778953199  1.0000
  H   H21       1.0  0.4435670029347562  0.48011505622288553  0.8553986725358699  1.0000
  H   H22       1.0  0.308862634829154  0.2743265149520795  0.8975161068224581  1.0000
  H   H23       1.0  0.9737440345480973  0.7359967828476429  0.8480741527396349  1.0000
  H   H24       1.0  0.7819701594954224  0.01709814107422149  0.903967953589394  1.0000
  H   H25       1.0  0.7870016324054416  0.5647038795025595  0.3909914714863732  1.0000
  H   H26       1.0  0.7472957332592001  0.5212238266488  0.433789380237073  1.0000
  H   H27       1.0  0.7126165850415375  0.5395554866751269  0.3853231731654959  1.0000
  H   H28       1.0  0.994778829735871  0.22016396719021725  0.3197260031679577  1.0000
  H   H29       1.0  0.9585200307163572  0.17642755544765285  0.3638883189686128  1.0000
  H   H30       1.0  0.03310942611737739  0.20318422685164708  0.36696841928662854  1.0000
  H   H31       1.0  0.11987530811727248  0.6975336788285917  0.5214992088094093  1.0000
  H   H32       1.0  0.20237291799839596  0.6115926294653776  0.5206710483302147  1.0000
  H   H33       1.0  0.20538839160469985  0.6929450893426862  0.5353559906045291  1.0000
  H   H34       1.0  0.0539219248452483  0.6272547620587757  0.7291839303781417  1.0000
  H   H35       1.0  0.14128067146341997  0.5463389195577334  0.7294938862325254  1.0000
  H   H36       1.0  0.060835519990448  0.540948554713239  0.7151567144775016  1.0000
  H   H37       1.0  0.7653900538177323  0.1932425960199993  0.09469773871777683  1.0000
  H   H38       1.0  0.6806557542750794  0.27662820834891033  0.09070483095676708  1.0000
  H   H39       1.0  0.714956528187514  0.21512609904704041  0.051373945336912655  1.0000
  H   H40       1.0  0.5517122099078121  0.9868185581161054  0.15380065357535955  1.0000
  H   H41       1.0  0.47095294272543947  0.07250513078550826  0.16131756030505787  1.0000
  H   H42       1.0  0.5370360804569356  0.03159251930507172  0.19847964380797123  1.0000
  H   H43       1.0  0.18491135436962478  0.9615288889465888  0.8590266582153064  1.0000
  H   H44       1.0  0.22760047324767638  0.0029704989200354053  0.816681129573233  1.0000
  H   H45       1.0  0.20861314414349857  0.03637238372869688  0.8655516786537234  1.0000
  H   H46       1.0  0.5302899813087834  0.756375890057413  0.9301971150258695  1.0000
  H   H47       1.0  0.5734013927239373  0.7937699582405461  0.8862273431034923  1.0000
  H   H48       1.0  0.5476465762532854  0.7187208708757568  0.8827466220015412  1.0000
  C   C1        1.0  0.06571317632887029  0.31430648736986205  0.5586583975544102  1.0000
  C   C2        1.0  0.07513687355524468  0.5663578584156783  0.5681513068943715  1.0000
  C   C3        1.0  0.18045060147429126  0.43926427605805446  0.435338386093676  1.0000
  C   C4        1.0  0.9365184206909729  0.6832203253804324  0.4395716200603844  1.0000
  C   C5        1.0  0.922473974549966  0.43204606645532095  0.43241717500884397  1.0000
  C   C6        1.0  0.8188714797831477  0.5589090833826517  0.5651359910649705  1.0000
  C   C7        1.0  0.565837399998159  0.307700816510753  0.31167320233718243  1.0000
  C   C8        1.0  0.6757122561821445  0.18729730228407257  0.1793356865418616  1.0000
  C   C9        1.0  0.6867739640299033  0.4391333892876476  0.19232383452412458  1.0000
  C   C10       1.0  0.9293513814774739  0.1917264085430688  0.18561050775797133  1.0000
  C   C11       1.0  0.8224203755212258  0.31050132374095085  0.32085973143241386  1.0000
  C   C12       1.0  0.8129877545293382  0.06119360539951653  0.30822996316919676  1.0000
  C   C13       1.0  0.43588357664402366  0.6850877049507106  0.6915312803435826  1.0000
  C   C14       1.0  0.31827855417146367  0.8274337531939934  0.8177578264082755  1.0000
  C   C15       1.0  0.19055914786034114  0.9311052162525609  0.6846819069923245  1.0000
  C   C16       1.0  0.0675079145564297  0.813743197397294  0.8112316194575513  1.0000
  C   C17       1.0  0.18275451611734178  0.6757331088551553  0.6821733311441136  1.0000
  C   C18       1.0  0.3105314798688852  0.5695970322012939  0.8143553659644028  1.0000
  C   C19       1.0  0.44172618562891586  0.1841998231913635  0.9381674717537579  1.0000
  C   C20       1.0  0.4384588987761687  0.9285752620466139  0.9293646621920219  1.0000
  C   C21       1.0  0.6882162618569508  0.9388075247428778  0.9411130727887527  1.0000
  C   C22       1.0  0.5569530955891294  0.8202324471797271  0.06396092299455353  1.0000
  C   C23       1.0  0.5635668462657719  0.07241939777983221  0.07072385619790819  1.0000
  C   C24       1.0  0.3106980363697289  0.06456076868440874  0.05757607974400972  1.0000
  C   C25       1.0  0.8934085470046964  0.40319712055161017  0.4039054684873947  1.0000
  C   C26       1.0  0.8511384770103303  0.3384535900261201  0.349973829609155  1.0000
  C   C27       1.0  0.8212024961117661  0.44450271750751824  0.3893849238412416  1.0000
  C   C28       1.0  0.9233075286518897  0.2971033373029783  0.36450054723322733  1.0000
  C   C29       1.0  0.80269762182089  0.41012506523237857  0.36267991919181247  1.0000
  C   C30       1.0  0.9418665425540663  0.331484276677891  0.3912053130323373  1.0000
  C   C31       1.0  0.10530483146055047  0.5949934520922396  0.5962108344022213  1.0000
  C   C32       1.0  0.15451038226896688  0.6450732205257026  0.6541832531200954  1.0000
  C   C33       1.0  0.14815476885764403  0.6388095406832264  0.5819037579315137  1.0000
  C   C34       1.0  0.11214394121427056  0.6007891496875858  0.6684992291792256  1.0000
  C   C35       1.0  0.17147602652272545  0.6622826292612417  0.6118022011562446  1.0000
  C   C36       1.0  0.08904136723234758  0.5770792946966241  0.6386024962214308  1.0000
  C   C37       1.0  0.3031240934217506  0.45055931460168364  0.4011177358729301  1.0000
  C   C38       1.0  0.44300918728620076  0.29563427943665493  0.3456330981752346  1.0000
  C   C39       1.0  0.25559209785956927  0.4131492398643388  0.41067939899266304  1.0000
  C   C40       1.0  0.4903086127180812  0.3333176338617321  0.3359818511703381  1.0000
  C   C41       1.0  0.3746585614129215  0.3383507348680935  0.3692270793417408  1.0000
  C   C42       1.0  0.371198934471586  0.40802267043932255  0.3773285482286966  1.0000
  C   C43       1.0  0.7295801971767943  0.5740344857901647  0.6329611897671868  1.0000
  C   C44       1.0  0.5266347338039097  0.6691361392613756  0.6250061485226298  1.0000
  C   C45       1.0  0.7443099185284793  0.58351124554401  0.5905036907430344  1.0000
  C   C46       1.0  0.5115865381915653  0.6594553420119594  0.6673930244076658  1.0000
  C   C47       1.0  0.6058410030525252  0.6377677409913859  0.612477872758312  1.0000
  C   C48       1.0  0.6502846506845613  0.6048466971244866  0.6456447341218025  1.0000
  C   C49       1.0  0.08091752604850198  0.2233398282348631  0.6251081181729036  1.0000
  C   C50       1.0  0.17593875299013453  0.02059587262429122  0.6169157400304854  1.0000
  C   C51       1.0  0.09108422124160138  0.23858971265699583  0.5827476987387429  1.0000
  C   C52       1.0  0.16604298416543628  0.005677511822611328  0.6593518676930614  1.0000
  C   C53       1.0  0.1452437749202815  0.0999023733670441  0.6043226044002453  1.0000
  C   C54       1.0  0.11202403655368437  0.1441205840242361  0.6375446148322724  1.0000
  C   C55       1.0  0.841030138656535  0.8017794218118869  0.4012441167593437  1.0000
  C   C56       1.0  0.9085732430469945  0.9423092667916536  0.3463718219873684  1.0000
  C   C57       1.0  0.912329464278123  0.7574858277825172  0.4139840178018234  1.0000
  C   C58       1.0  0.837239587896917  0.9866803475916514  0.33363201694117356  1.0000
  C   C59       1.0  0.9100559442654087  0.8750268860445517  0.3710021694901969  1.0000
  C   C60       1.0  0.839521497314763  0.8691116368902602  0.3766567186763013  1.0000
  C   C61       1.0  0.6478969321764507  0.15923883817080764  0.14990620419441572  1.0000
  C   C62       1.0  0.5910950382234502  0.10067414418771392  0.10017754303652282  1.0000
  C   C63       1.0  0.6630748217110991  0.17313379193922182  0.10666648467736912  1.0000
  C   C64       1.0  0.5760256663260107  0.08665471315600123  0.1434139248437418  1.0000
  C   C65       1.0  0.6340913177978461  0.14253286526842152  0.08317121629912805  1.0000
  C   C66       1.0  0.6057535785308232  0.11651772714557045  0.16692062422080778  1.0000
  C   C67       1.0  0.674107461853488  0.5291601952921708  0.12575333426866564  1.0000
  C   C68       1.0  0.5685457453422699  0.7319597524848261  0.13181513108758483  1.0000
  C   C69       1.0  0.6609314023117391  0.5147796750853928  0.1680605089680044  1.0000
  C   C70       1.0  0.5817058555225926  0.7458405921135453  0.08944743463425205  1.0000
  C   C71       1.0  0.6018815515223678  0.6530012101687532  0.14516512542488877  1.0000
  C   C72       1.0  0.6403054108940863  0.6080071446806556  0.11256826245721648  1.0000
  C   C73       1.0  0.07424699534141149  0.12432822433731157  0.17328729874511595  1.0000
  C   C74       1.0  0.16461692757139448  0.1325132095042463  0.06834400890138433  1.0000
  C   C75       1.0  0.0033813684407632996  0.16713654277568685  0.15978163232037454  1.0000
  C   C76       1.0  0.2353227081177138  0.08954150248342069  0.08208018152907211  1.0000
  C   C77       1.0  0.10571432273388127  0.1449056593075753  0.10148085280286523  1.0000
  C   C78       1.0  0.13279496146653708  0.11130912683525204  0.14004728885644374  1.0000
  C   C79       1.0  0.34679773033835903  0.8568152648240216  0.8462505322558089  1.0000
  C   C80       1.0  0.41083631340121934  0.8997333754648056  0.9001924367397365  1.0000
  C   C81       1.0  0.304874084769338  0.928840514439685  0.8608424656364521  1.0000
  C   C82       1.0  0.45286496966160433  0.8278066440533609  0.8855361407667746  1.0000
  C   C83       1.0  0.3389288118963662  0.947663873670237  0.887588841167201  1.0000
  C   C84       1.0  0.4187434110824099  0.8088827910395937  0.8588561931561075  1.0000
  C   C85       1.0  0.40245248835991276  0.45612374261241934  0.8573734846352039  1.0000
  C   C86       1.0  0.35013397720008027  0.29815047875763423  0.8954630531522769  1.0000
  C   C87       1.0  0.33592080632676863  0.49437636492687903  0.8389674417637425  1.0000
  C   C88       1.0  0.4167376145224537  0.25970122038451393  0.9137912613371457  1.0000
  C   C89       1.0  0.3449287216416649  0.3695455622903268  0.8748601892336654  1.0000
  C   C90       1.0  0.40782821375277206  0.38458461081921763  0.8778973897468063  1.0000
  C   C91       1.0  0.9526479615258692  0.7953844118186102  0.8529241034867284  1.0000
  C   C92       1.0  0.8030536732448893  0.9576292987870048  0.8992695717122461  1.0000
  C   C93       1.0  0.9929876570509318  0.8389572183985338  0.8365108987941811  1.0000
  C   C94       1.0  0.7628289936980862  0.9139885468407346  0.9158479042412895  1.0000
  C   C95       1.0  0.8722021950479684  0.9145518512060349  0.8763969478306849  1.0000
  C   C96       1.0  0.8835500667513826  0.8384394701742366  0.8758248349690166  1.0000
  C   C97       1.0  0.7638304015921447  0.5216603405685873  0.40044597726053155  1.0000
  C   C98       1.0  0.98066300593193  0.2201044146767118  0.3531657128042129  1.0000
  C   C99       1.0  0.1702395797436722  0.661476103366354  0.5374721105731127  1.0000
  C   C100      1.0  0.09086941016358446  0.5774802612460875  0.7129583318356865  1.0000
  C   C101      1.0  0.7084843644768525  0.21684576141199605  0.08460797600421441  1.0000
  C   C102      1.0  0.5317362217824522  0.04179636721156757  0.16548990077746592  1.0000
  C   C103      1.0  0.22731901153377984  0.985580771075398  0.8499623787331105  1.0000
  C   C104      1.0  0.5301733650902491  0.7710040174260728  0.8967704431693165  1.0000
  S   S1        1.0  0.29317397233872095  0.32636014308408073  0.3909407135207844  1.0000
  S   S2        1.0  0.45235546445618974  0.42038456169962773  0.3554366281167419  1.0000
  S   S3        1.0  0.6623638822028965  0.6298653084020315  0.5658832295897086  1.0000
  S   S4        1.0  0.5932706560648028  0.612398884294663  0.6922102777803831  1.0000
  S   S5        1.0  0.13828265887443789  0.15711660633113675  0.5578199925085415  1.0000
  S   S6        1.0  0.1194401417900153  0.08738816421344352  0.6840752327907894  1.0000
  S   S7        1.0  0.9776975849721407  0.7971765422687723  0.39631611451606125  1.0000
  S   S8        1.0  0.7718716181790056  0.9470169193358305  0.3513769537105845  1.0000
  S   S9        1.0  0.607663374832725  0.5968454139632084  0.19201898639957451  1.0000
  S   S10       1.0  0.6343402169901821  0.6635674476060202  0.06565878979375846  1.0000
  S   S11       1.0  0.0074714992968765  0.1917532155023949  0.10676202987009731  1.0000
  S   S12       1.0  0.23078185845315594  0.06410310425716406  0.13501626611943612  1.0000
  S   S13       1.0  0.2796848779882025  0.4440222245562994  0.8464821361872767  1.0000
  S   S14       1.0  0.47318879445840145  0.3098572801768713  0.9061491744739884  1.0000
  S   S15       1.0  0.9474553378556152  0.9320988733233975  0.8486493244068573  1.0000
  S   S16       1.0  0.8085270508414837  0.8207576027236457  0.903764734050256  1.0000
  O   O1        1.0  0.9990230989215829  0.4992551068679277  0.5000711156464207  1.0000
  O   O2        1.0  0.08459327030777078  0.31575743097869957  0.5197377226300689  1.0000
  O   O3        1.0  0.04019132966458729  0.5245284386651009  0.5849538815433206  1.0000
  O   O4        1.0  0.15765678824041623  0.5018001643310583  0.4504920699011309  1.0000
  O   O5        1.0  0.027126569814889496  0.3714532937166339  0.5787526590199761  1.0000
  O   O6        1.0  0.14476015543926476  0.39683108310874365  0.4394961961938933  1.0000
  O   O7        1.0  0.08587153796104727  0.5857880032111994  0.5295519040984972  1.0000
  O   O8        1.0  0.005498046896604998  0.6531191370265503  0.44792990503358965  1.0000
  O   O9        1.0  0.8820675795810968  0.4995285836604141  0.44211689856318515  1.0000
  O   O10       1.0  0.8870578399135451  0.6555298297922008  0.450976442354275  1.0000
  O   O11       1.0  0.9866193382997392  0.3864858080692102  0.4450378137918137  1.0000
  O   O12       1.0  0.8783466305680604  0.5262389045751806  0.5838303435406615  1.0000
  O   O13       1.0  0.8167784522782708  0.5727521993332163  0.5261802322580281  1.0000
  O   O14       1.0  0.7487202165115717  0.24940012606534628  0.25000949324414995  1.0000
  O   O15       1.0  0.5984398971865517  0.3532337403450042  0.30594942334001024  1.0000
  O   O16       1.0  0.6684849408459498  0.161131596952501  0.21726723324397315  1.0000
  O   O17       1.0  0.7264188363816685  0.3822073985588474  0.17217373640191622  1.0000
  O   O18       1.0  0.5918176498638984  0.2428903526817407  0.29852362564678714  1.0000
  O   O19       1.0  0.6673179988349033  0.4369006191436214  0.23121638705358558  1.0000
  O   O20       1.0  0.7044146499688323  0.23523097291271003  0.1647430643478387  1.0000
  O   O21       1.0  0.8698971498811118  0.22627815320992545  0.16675547150111925  1.0000
  O   O22       1.0  0.8623747964272395  0.2429317971859747  0.3111936416811433  1.0000
  O   O23       1.0  0.9311910517707813  0.17642145430468045  0.22444011950356216  1.0000
  O   O24       1.0  0.7591326354749411  0.35711783435666433  0.30765597869763894  1.0000
  O   O25       1.0  0.7436350268964702  0.09237173577662358  0.30044213980833223  1.0000
  O   O26       1.0  0.8629046706436226  0.08825087024344935  0.2963802495947619  1.0000
  O   O27       1.0  0.25084755186288976  0.7512311537728209  0.7499378382661064  1.0000
  O   O28       1.0  0.3786718088338857  0.7233331315481734  0.6714160547156212  1.0000
  O   O29       1.0  0.36288776945389134  0.7619130533125544  0.8065160347358074  1.0000
  O   O30       1.0  0.17638969024736886  0.933213094284206  0.7236170139920475  1.0000
  O   O31       1.0  0.43452871127194465  0.6667406566675922  0.7305033598397659  1.0000
  O   O32       1.0  0.223483349223592  0.8716340099743364  0.6660170518638823  1.0000
  O   O33       1.0  0.2519883800214514  0.8690232609191642  0.8066914161903825  1.0000
  O   O34       1.0  0.0955435992860174  0.8631125922417909  0.7998799836252246  1.0000
  O   O35       1.0  0.1613500571256168  0.6672390298566312  0.7206661175304562  1.0000
  O   O36       1.0  0.09743806207435309  0.7449385571584203  0.8029902321484316  1.0000
  O   O37       1.0  0.22625481825693333  0.7088570033902855  0.6653933639465779  1.0000
  O   O38       1.0  0.3530262550936242  0.6050082398104449  0.8102438659746057  1.0000
  O   O39       1.0  0.24780289717075013  0.5926298108249596  0.7991264056719559  1.0000
  O   O40       1.0  0.5005407643418563  0.0012801946182890642  0.9998962543435045  1.0000
  O   O41       1.0  0.5056167575107864  0.15923108576558317  0.952455283215926  1.0000
  O   O42       1.0  0.39080583713391787  0.9905222719283843  0.9436038267071823  1.0000
  O   O43       1.0  0.6617099113775777  0.8883487304555904  0.9534013584945314  1.0000
  O   O44       1.0  0.3973815248419256  0.15064571825419656  0.942890375410123  1.0000
  O   O45       1.0  0.6564821654496242  0.008199681753275512  0.9484575990073838  1.0000
  O   O46       1.0  0.5068705975253422  0.8900002354437788  0.9380195436115388  1.0000
  O   O47       1.0  0.5722319552311815  0.8186674959509758  0.025006429428906147  1.0000
  O   O48       1.0  0.5146236365797277  0.044913624604980384  0.08515750816062001  1.0000
  O   O49       1.0  0.5228177549169571  0.8794013673405985  0.08285540721207957  1.0000
  O   O50       1.0  0.5909858298701137  0.07828761760139723  0.032932545042946515  1.0000
  O   O51       1.0  0.3131127653165038  0.0855288158835705  0.018899600615156917  1.0000
  O   O52       1.0  0.36765273368237666  0.023557978248049904  0.07773158563389163  1.0000
