data_image0
_chemical_formula_structural       Cu8H80C130N24O40
_chemical_formula_sum              "Cu8 H80 C130 N24 O40"
_cell_length_a       13.942978810558618
_cell_length_b       21.114810256061173
_cell_length_c       25.588641964338326
_cell_angle_alpha    114.55198668885981
_cell_angle_beta     90.00149003782197
_cell_angle_gamma    89.99865573175867

_space_group_name_H-M_alt    "P 1"
_space_group_IT_number       1

loop_
  _space_group_symop_operation_xyz
  'x, y, z'

loop_
  _atom_site_type_symbol
  _atom_site_label
  _atom_site_symmetry_multiplicity
  _atom_site_fract_x
  _atom_site_fract_y
  _atom_site_fract_z
  _atom_site_occupancy
  Cu  Cu1       1.0  0.0016827918635797998  0.8071894146353029  0.6155874195706373  1.0000
  Cu  Cu2       1.0  0.0017520186863677996  0.1928350932936738  0.3844331544946158  1.0000
  Cu  Cu3       1.0  0.00022698612374229997  0.8625274415432639  0.7235980003172102  1.0000
  Cu  Cu4       1.0  0.0002407396113853  0.13748979113922385  0.2764149781266241  1.0000
  Cu  Cu5       1.0  0.5069041297485484  0.5503537344579071  0.4851808787240372  1.0000
  Cu  Cu6       1.0  0.506899425656961  0.449658369139314  0.5148267029147887  1.0000
  Cu  Cu7       1.0  0.49178222517340225  0.9345828826576007  0.48494370915125257  1.0000
  Cu  Cu8       1.0  0.4917910623449373  0.06537314430111252  0.5150690525796904  1.0000
  H   H1        1.0  0.010623998370533598  0.7901845591380263  0.5020532395045051  1.0000
  H   H2        1.0  0.009384032301305498  0.20923222199471064  0.49768527253675626  1.0000
  H   H3        1.0  0.9546206559985179  0.7260524926511279  0.5009841464305395  1.0000
  H   H4        1.0  0.9534494853482371  0.27334796273289896  0.49873971147579965  1.0000
  H   H5        1.0  0.9651636317475649  0.8875048933616438  0.8377801548567303  1.0000
  H   H6        1.0  0.964967073366246  0.11235418388030644  0.1622058054338495  1.0000
  H   H7        1.0  0.06012966256947289  0.9257403888408291  0.8375723883797476  1.0000
  H   H8        1.0  0.0599222679839144  0.0740648455888433  0.16238441376304277  1.0000
  H   H9        1.0  0.7553291866385691  0.6628793673195618  0.5858829001226127  1.0000
  H   H10       1.0  0.755338066308937  0.33712397559784774  0.41413581123008913  1.0000
  H   H11       1.0  0.245037659935619  0.9232771224395644  0.5858129418660026  1.0000
  H   H12       1.0  0.24512814878816158  0.07672825613796157  0.41417253761478184  1.0000
  H   H13       1.0  0.8479423792494102  0.7162420583224074  0.7598512920311504  1.0000
  H   H14       1.0  0.8478811474977945  0.2837327506936233  0.24015193844703475  1.0000
  H   H15       1.0  0.1515951160835911  0.0444671979213567  0.7597413566202036  1.0000
  H   H16       1.0  0.1516572616712821  0.9555662003735533  0.24024339208086323  1.0000
  H   H17       1.0  0.2544045839159779  0.6713387673717504  0.5888064142368135  1.0000
  H   H18       1.0  0.25440860293449663  0.32870348637334956  0.41120082832206606  1.0000
  H   H19       1.0  0.7461078794184671  0.9169522649622618  0.5855055511544406  1.0000
  H   H20       1.0  0.7462383264991957  0.08302306582403668  0.4145823672396602  1.0000
  H   H21       1.0  0.1458335929411945  0.701010574726311  0.7547497482276596  1.0000
  H   H22       1.0  0.14584593573948007  0.29898435442635923  0.2452385346863578  1.0000
  H   H23       1.0  0.8566672461158831  0.05123613467937819  0.7518794066834218  1.0000
  H   H24       1.0  0.8566747750900915  0.9488026316709294  0.24816267810702175  1.0000
  H   H25       1.0  0.647242413024955  0.5479494123723897  0.6782296754565066  1.0000
  H   H26       1.0  0.6472343084316989  0.4520581493523179  0.3217943950066554  1.0000
  H   H27       1.0  0.350613699307246  0.13195788436727438  0.6782792856290099  1.0000
  H   H28       1.0  0.3505708632442007  0.8680032131217601  0.3217124665486395  1.0000
  H   H29       1.0  0.35440319562805195  0.5398851533411598  0.6691088633118766  1.0000
  H   H30       1.0  0.3543966681224049  0.46013369678551186  0.3308749938966215  1.0000
  H   H31       1.0  0.6449825062155768  0.12857764828934384  0.6697370090473668  1.0000
  H   H32       1.0  0.6449743772884062  0.8714408690357374  0.3302806235130689  1.0000
  H   H33       1.0  0.6004305413356406  0.5844047183659952  0.7761425311682898  1.0000
  H   H34       1.0  0.6004055010219176  0.41560019106042023  0.22386627725335012  1.0000
  H   H35       1.0  0.39879259266760414  0.19209665995145997  0.7763076502043872  1.0000
  H   H36       1.0  0.39880106612531563  0.8078904993488861  0.22366051262833497  1.0000
  H   H37       1.0  0.10221830768577432  0.616566155329984  0.7922868156765758  1.0000
  H   H38       1.0  0.10222878470718652  0.3834474353419211  0.2076830059178647  1.0000
  H   H39       1.0  0.8978810432959107  0.17446314953654243  0.7927083144578828  1.0000
  H   H40       1.0  0.8978321841922748  0.8255788374028084  0.20728622740985247  1.0000
  H   H41       1.0  0.4752014933665833  0.6182699211442608  0.41631739923532496  1.0000
  H   H42       1.0  0.47513786093094984  0.3817721790433167  0.5836785134949665  1.0000
  H   H43       1.0  0.5221273327352804  0.7970468984511851  0.41591568428574976  1.0000
  H   H44       1.0  0.5219150975991197  0.2029848355856814  0.5840832124185837  1.0000
  H   H45       1.0  0.4443506482319606  0.6696331701710108  0.47726725800018227  1.0000
  H   H46       1.0  0.4442092241926545  0.3304399616022095  0.5227318122872545  1.0000
  H   H47       1.0  0.5525331462634141  0.8064452930676324  0.47684244622309524  1.0000
  H   H48       1.0  0.5523936915870848  0.19358301028591282  0.5231654832799961  1.0000
  H   H49       1.0  0.7655639695340708  0.6082678243637856  0.9527616873216258  1.0000
  H   H50       1.0  0.765565912183895  0.3917447874613841  0.047261911968376945  1.0000
  H   H51       1.0  0.23558573351289167  0.3458933299224752  0.95361907636385  1.0000
  H   H52       1.0  0.23556620426754188  0.6540850681178085  0.046347247546876184  1.0000
  H   H53       1.0  0.5217450082548039  0.5482286223734716  0.8385334524428811  1.0000
  H   H54       1.0  0.5217315462435366  0.45179374412455064  0.16147434386642343  1.0000
  H   H55       1.0  0.4783592673168044  0.28945497416494687  0.8385695536578196  1.0000
  H   H56       1.0  0.4783510355974768  0.7105449169513278  0.16139943074072247  1.0000
  H   H57       1.0  0.0329977130395136  0.6150789557688793  0.8789960816477416  1.0000
  H   H58       1.0  0.032982554811482594  0.38498740661267306  0.12101232527611926  1.0000
  H   H59       1.0  0.9660792833043031  0.2630917726405285  0.8794801517779334  1.0000
  H   H60       1.0  0.966013696688762  0.7369599378512103  0.12051909696366166  1.0000
  H   H61       1.0  0.2631654039530673  0.47751872031700754  0.877374296975965  1.0000
  H   H62       1.0  0.26319855175754714  0.522496366881171  0.12260734622235246  1.0000
  H   H63       1.0  0.7368044439643098  0.39928364484208595  0.8770484835183864  1.0000
  H   H64       1.0  0.7367746068348994  0.600745913706639  0.12293908544748426  1.0000
  H   H65       1.0  0.6835136898248705  0.563574910650864  0.016010270457300507  1.0000
  H   H66       1.0  0.6835128082772214  0.4364145789739027  0.9839952316965607  1.0000
  H   H67       1.0  0.3193251756279096  0.45359385351301273  0.01682626903242116  1.0000
  H   H68       1.0  0.31930675595454977  0.5463795332332847  0.9831500957613597  1.0000
  H   H69       1.0  0.44182673014709906  0.5041365045160545  0.9006767967147056  1.0000
  H   H70       1.0  0.4418123871179773  0.495862718196008  0.09931292580650816  1.0000
  H   H71       1.0  0.5600293568162228  0.3953884020175238  0.900750816079629  1.0000
  H   H72       1.0  0.5600147670808511  0.6046064989011838  0.09922896814630627  1.0000
  H   H73       1.0  0.9491577492053621  0.5890952109380192  0.9511501278306793  1.0000
  H   H74       1.0  0.9491497672115442  0.41097801844532705  0.048857035382148674  1.0000
  H   H75       1.0  0.050118578362656804  0.36179308949360933  0.9514442685991182  1.0000
  H   H76       1.0  0.0500896697039011  0.6382699766761558  0.04857028950063105  1.0000
  H   H77       1.0  0.1779318402321479  0.4516698184901171  0.950416552772694  1.0000
  H   H78       1.0  0.17795419726476064  0.5483607109640402  0.04957345386713287  1.0000
  H   H79       1.0  0.8221161620876812  0.4986876201544204  0.9500809648223053  1.0000
  H   H80       1.0  0.8221107849677055  0.5013514894861898  0.049917751665979906  1.0000
  C   C1        1.0  0.8751605739056314  0.7486479321023365  0.6701345835707144  1.0000
  C   C2        1.0  0.8751599157107605  0.2513385767093154  0.32987265943480537  1.0000
  C   C3        1.0  0.12605504692694317  0.9216278826881276  0.6700531239175261  1.0000
  C   C4        1.0  0.1261200106898812  0.07840057054419698  0.3299514462468167  1.0000
  C   C5        1.0  0.12607323074426796  0.7466427818376359  0.6718350952016579  1.0000
  C   C6        1.0  0.12607242161297447  0.25338359011518446  0.3281773588806515  1.0000
  C   C7        1.0  0.875975770888445  0.9233528000285316  0.667563672667164  1.0000
  C   C8        1.0  0.8760495203332396  0.07666338643419118  0.3325045595166216  1.0000
  C   C9        1.0  0.8098835692512978  0.6937416451827542  0.6720596804070664  1.0000
  C   C10       1.0  0.8098708466136842  0.3062444832828603  0.32794883594169016  1.0000
  C   C11       1.0  0.1902484001939158  0.9788995487569775  0.6719581478229484  1.0000
  C   C12       1.0  0.19031098779949224  0.021108987409384397  0.32802488844759375  1.0000
  C   C13       1.0  0.19299462685805932  0.6907993600959799  0.6715289035212919  1.0000
  C   C14       1.0  0.19298325896861002  0.3092268530102231  0.32846882878575906  1.0000
  C   C15       1.0  0.8090364482948758  0.9793352750709726  0.6681316873391621  1.0000
  C   C16       1.0  0.8090949291394125  0.020676901497807893  0.3319256076869053  1.0000
  C   C17       1.0  0.753551584629143  0.6537159781717603  0.6246748585778474  1.0000
  C   C18       1.0  0.7535504331250493  0.3462769691558306  0.37533987281109654  1.0000
  C   C19       1.0  0.24627418319114006  0.9715754573796503  0.6245741356514927  1.0000
  C   C20       1.0  0.2463329977672686  0.02843147158175441  0.3754165824571912  1.0000
  C   C21       1.0  0.8058786147475344  0.6836392063513799  0.7225987558482672  1.0000
  C   C22       1.0  0.8058337607500049  0.3163407150146255  0.27740991961655226  1.0000
  C   C23       1.0  0.19347418308427683  0.03990779510387198  0.7225031622718703  1.0000
  C   C24       1.0  0.19351568161479796  0.960103312268025  0.277483146512111  1.0000
  C   C25       1.0  0.25405497394778814  0.656551911004996  0.6247918283880904  1.0000
  C   C26       1.0  0.2540582190894368  0.34347732902558886  0.37520899420704257  1.0000
  C   C27       1.0  0.7470703377809896  0.9675000046331305  0.6220376494539364  1.0000
  C   C28       1.0  0.747167142054728  0.03249197572559839  0.3780387946923653  1.0000
  C   C29       1.0  0.19207443389301193  0.6724216060433362  0.7181941553810844  1.0000
  C   C30       1.0  0.19207816064819383  0.32758743390605355  0.28179767704251896  1.0000
  C   C31       1.0  0.8099519737890047  0.04402878615129419  0.7157244021553381  1.0000
  C   C32       1.0  0.8099767235059687  0.9560005614361484  0.2843235506824654  1.0000
  C   C33       1.0  0.6940279798161056  0.6021232486791631  0.62765650778217  1.0000
  C   C34       1.0  0.6940133964865896  0.3978703009163026  0.3723563995180328  1.0000
  C   C35       1.0  0.3049067721037346  0.0266075594105502  0.6275762129717747  1.0000
  C   C36       1.0  0.30492643558440596  0.9733685780274967  0.37241143870866716  1.0000
  C   C37       1.0  0.7471826615964615  0.6313674341672096  0.7248552383348466  1.0000
  C   C38       1.0  0.7471459020147647  0.3686266190338968  0.2751589984697986  1.0000
  C   C39       1.0  0.2514278872468836  0.09474861858679158  0.7247386786243197  1.0000
  C   C40       1.0  0.25144539269287947  0.9052457616167543  0.2752442947473027  1.0000
  C   C41       1.0  0.3131573432719747  0.6028640295497423  0.6244987579956599  1.0000
  C   C42       1.0  0.3131709041377063  0.3971562798809315  0.3754893038015155  1.0000
  C   C43       1.0  0.6871385725117775  0.021205809686541992  0.6231941655508065  1.0000
  C   C44       1.0  0.6872012849451608  0.9787852116906921  0.3768568561938536  1.0000
  C   C45       1.0  0.25014975272816287  0.6178474152668726  0.7167976891526563  1.0000
  C   C46       1.0  0.25014803718620726  0.3821615565592964  0.2831875318793209  1.0000
  C   C47       1.0  0.7509055451053114  0.09746671682671598  0.7157660946643389  1.0000
  C   C48       1.0  0.7509092233947283  0.9025632257247693  0.28426323407387594  1.0000
  C   C49       1.0  0.6301215417920218  0.560976848551334  0.5780745453744132  1.0000
  C   C50       1.0  0.6301171586584999  0.43902203377044896  0.42193887796225465  1.0000
  C   C51       1.0  0.3687579714021112  0.018070517287284798  0.5780999488914985  1.0000
  C   C52       1.0  0.36877678599750396  0.9819080987576354  0.42189416242597827  1.0000
  C   C53       1.0  0.6919831715685661  0.5897636476413909  0.677350356363732  1.0000
  C   C54       1.0  0.6919593676224025  0.4102299231616938  0.32266565505045003  1.0000
  C   C55       1.0  0.3063893065055581  0.0889692967056135  0.6772878266706428  1.0000
  C   C56       1.0  0.306386600860101  0.9110125533067045  0.32270180441336277  1.0000
  C   C57       1.0  0.380257311562552  0.5647129264617661  0.5757803520951725  1.0000
  C   C58       1.0  0.38025818706393005  0.4353124316835418  0.42421197069675287  1.0000
  C   C59       1.0  0.6190244894801965  0.0111556055189652  0.5752272839317171  1.0000
  C   C60       1.0  0.619066863945683  0.9888444347842267  0.42481685899030447  1.0000
  C   C61       1.0  0.310328667299423  0.5827992119494424  0.6700866438360435  1.0000
  C   C62       1.0  0.3103293428173401  0.41721487838036336  0.3299015900583697  1.0000
  C   C63       1.0  0.68990047512046  0.08644832979123147  0.6695749599168366  1.0000
  C   C64       1.0  0.6899217107153959  0.9135645283706069  0.3304570124082601  1.0000
  C   C65       1.0  0.6690775399017639  0.5982553720865127  0.7976932207270976  1.0000
  C   C66       1.0  0.6690562798212767  0.40176290175699586  0.20232662960373196  1.0000
  C   C67       1.0  0.33014478306887435  0.20027498878483388  0.7978790601208559  1.0000
  C   C68       1.0  0.33014392619234917  0.7997185925048311  0.2020887512491852  1.0000
  C   C69       1.0  0.17219733948029867  0.596731636881131  0.7962278441205298  1.0000
  C   C70       1.0  0.1722083678349691  0.40329530550400244  0.20375811458573165  1.0000
  C   C71       1.0  0.8279042715198911  0.19817192367099773  0.7962984716670007  1.0000
  C   C72       1.0  0.8278610995641528  0.8018707733292202  0.203708201257072  1.0000
  C   C73       1.0  0.702149844427872  0.6002429878899135  0.8494701133022318  1.0000
  C   C74       1.0  0.7021362668130281  0.3997864062119517  0.15055441650221008  1.0000
  C   C75       1.0  0.2974921296972326  0.250171790402021  0.8498552815404563  1.0000
  C   C76       1.0  0.2974898747364917  0.7498299313991976  0.1501140679854202  1.0000
  C   C77       1.0  0.20627176188530427  0.5647096783935764  0.830143185093398  1.0000
  C   C78       1.0  0.20628222380523198  0.4353262924297142  0.1698533939975349  1.0000
  C   C79       1.0  0.7934880132282699  0.26428224660338634  0.8301500752838749  1.0000
  C   C80       1.0  0.7934362574134396  0.7357644416686283  0.16984535486454175  1.0000
  C   C81       1.0  0.6523605105136809  0.5789519885525394  0.8896765472873936  1.0000
  C   C82       1.0  0.6523514695879911  0.4210690572712252  0.11034049516387509  1.0000
  C   C83       1.0  0.3482229108635764  0.31120942109105687  0.8901957357993878  1.0000
  C   C84       1.0  0.34820800340427377  0.6887834558816761  0.10976701426019982  1.0000
  C   C85       1.0  0.1561359877161763  0.549438946621322  0.873618114862772  1.0000
  C   C86       1.0  0.15614100405873194  0.4506032590063142  0.12637948787928363  1.0000
  C   C87       1.0  0.8433546693732551  0.32340853011466913  0.8737140131921207  1.0000
  C   C88       1.0  0.8433079727874143  0.6766340086173273  0.12627993182842087  1.0000
  C   C89       1.0  0.6949751821968562  0.5842997736676168  0.9409882058059578  1.0000
  C   C90       1.0  0.694972529727643  0.41570730345697626  0.05902622590252798  1.0000
  C   C91       1.0  0.3063140372673985  0.3575860752061357  0.9417237709021434  1.0000
  C   C92       1.0  0.30629476040585496  0.6423957724952627  0.05824475507222354  1.0000
  C   C93       1.0  0.5594042382412141  0.5508660418869765  0.8767430192984235  1.0000
  C   C94       1.0  0.559392663293508  0.44914188540485617  0.12326193351836419  1.0000
  C   C95       1.0  0.44138321752922843  0.3254707532910641  0.8769906441362421  1.0000
  C   C96       1.0  0.44137086599420877  0.6745279501226448  0.12297818168286051  1.0000
  C   C97       1.0  0.0665202374657596  0.5796955635908176  0.8947840546943551  1.0000
  C   C98       1.0  0.0665109822021321  0.4203668145896201  0.10522229738096195  1.0000
  C   C99       1.0  0.9327551633282597  0.3144289884159689  0.8950880649112987  1.0000
  C   C100      1.0  0.9327042793573527  0.6856209771097139  0.10491401339458396  1.0000
  C   C101      1.0  0.19497189178385102  0.5030220986594713  0.8943954756309438  1.0000
  C   C102      1.0  0.19499222946330969  0.4970092995423909  0.10559390203035687  1.0000
  C   C103      1.0  0.8048062460699298  0.39084974715611753  0.8942230993202428  1.0000
  C   C104      1.0  0.8047767410228204  0.6091858930319062  0.1057741781860884  1.0000
  C   C105      1.0  0.6484110944101004  0.5586173965059372  0.9764859833145676  1.0000
  C   C106      1.0  0.6484065900159094  0.44137765498361137  0.023519746938781252  1.0000
  C   C107      1.0  0.35382086004527485  0.41854384980073434  0.9771612276228083  1.0000
  C   C108      1.0  0.3538113914279322  0.5814338732117007  0.022812431331608676  1.0000
  C   C109      1.0  0.5137093972118407  0.5255819530102881  0.9122006900738879  1.0000
  C   C110      1.0  0.5136974205626784  0.4744191463358475  0.08779540153474125  1.0000
  C   C111      1.0  0.4880537852373621  0.38597296239468176  0.91243255123711  1.0000
  C   C112      1.0  0.4880411848805153  0.614019021801674  0.08754285085560544  1.0000
  C   C113      1.0  0.018820753311111094  0.5650888524599436  0.9361273695030333  1.0000
  C   C114      1.0  0.018818368290936898  0.4349792147781173  0.06387750956685774  1.0000
  C   C115      1.0  0.9805519563454296  0.37070436686391156  0.9363350790646904  1.0000
  C   C116      1.0  0.9805226357262313  0.6293498018943778  0.06367538198399095  1.0000
  C   C117      1.0  0.146545875188437  0.4886996869636205  0.9358714110852445  1.0000
  C   C118      1.0  0.14656448049517928  0.5113400117276823  0.06412167698153572  1.0000
  C   C119      1.0  0.8532614429180756  0.4469507349345319  0.9356776455386181  1.0000
  C   C120      1.0  0.8532470303092979  0.5530885800082004  0.06432002703199656  1.0000
  C   C121      1.0  0.5586370958058566  0.5265596264856355  0.9617153889325819  1.0000
  C   C122      1.0  0.5586278519343679  0.4734295633110506  0.03827765870340731  1.0000
  C   C123      1.0  0.4437500659035506  0.43503538615555454  0.9620518344951137  1.0000
  C   C124      1.0  0.44374475544334757  0.5649481958713807  0.03792708322232131  1.0000
  C   C125      1.0  0.058707370688068694  0.5203200809990703  0.9583665586325907  1.0000
  C   C126      1.0  0.0587088212721056  0.4797423760175689  0.041638535524484155  1.0000
  C   C127      1.0  0.9408639315363773  0.4378922600958999  0.9583678011424652  1.0000
  C   C128      1.0  0.9408445497547716  0.5621576236193135  0.04163710182538685  1.0000
  C   C129      1.0  0.5013917270851208  0.49999052823078216  0.9999921418689651  1.0000
  C   C130      1.0  0.9998126976991416  0.5000310817003066  1.8898934825440467e-06  1.0000
  N   N1        1.0  0.7433907300874977  0.6218805539918079  0.7763919977071366  1.0000
  N   N2        1.0  0.7433648462503584  0.37812811693745363  0.22362993086392172  1.0000
  N   N3        1.0  0.25523208611038223  0.15590011274257876  0.7763505436248649  1.0000
  N   N4        1.0  0.25524573792091587  0.8440968312059806  0.2236255474069181  1.0000
  N   N5        1.0  0.2473784797237499  0.5957634511918641  0.7619963078714987  1.0000
  N   N6        1.0  0.24738032159783066  0.404249714089964  0.23799031069786736  1.0000
  N   N7        1.0  0.7531302164315151  0.16458768606455007  0.7617086715466357  1.0000
  N   N8        1.0  0.7531011113823922  0.8354542072328356  0.23830798124883756  1.0000
  N   N9        1.0  0.820222809410346  0.6380961662514223  0.8131985031413577  1.0000
  N   N10       1.0  0.8202058111578622  0.36192682712608354  0.18683178737855843  1.0000
  N   N11       1.0  0.17847638557721973  0.17685860154304578  0.8131704746628897  1.0000
  N   N12       1.0  0.17847757315143298  0.8231448469881283  0.18680869350394141  1.0000
  N   N13       1.0  0.3255225816306719  0.56470276384492  0.7740234164886957  1.0000
  N   N14       1.0  0.3255206142725128  0.4353262739934748  0.22598071177199583  1.0000
  N   N15       1.0  0.6748401521346566  0.2076784809869778  0.7735453293856904  1.0000
  N   N16       1.0  0.6748077059149225  0.7923673287478791  0.22647192811744074  1.0000
  N   N17       1.0  0.7949661909706193  0.6247965079812445  0.8567497850186214  1.0000
  N   N18       1.0  0.7949574398784094  0.37523611316419897  0.14328344175044083  1.0000
  N   N19       1.0  0.20435826018294992  0.23352601140691584  0.857027030962783  1.0000
  N   N20       1.0  0.20435364844279746  0.7664782159447441  0.14294847844217873  1.0000
  N   N21       1.0  0.3004359668816363  0.5464435024129981  0.8149456864817635  1.0000
  N   N22       1.0  0.3004400437144524  0.4535998477665259  0.18506415866676917  1.0000
  N   N23       1.0  0.6994868829962615  0.2671153518900979  0.8146394077218773  1.0000
  N   N24       1.0  0.6994445611189021  0.7329343723216084  0.18536899527178005  1.0000
  O   O1        1.0  0.9054636891809337  0.7413075493856666  0.620869750876153  1.0000
  O   O2        1.0  0.9054485872630734  0.258666676291078  0.37912746558358623  1.0000
  O   O3        1.0  0.09569957203945019  0.8794223562830934  0.6208016254148205  1.0000
  O   O4        1.0  0.0958471208912925  0.12062670966497539  0.3792060563403439  1.0000
  O   O5        1.0  0.10658199017024832  0.74696154615453  0.6232788810202621  1.0000
  O   O6        1.0  0.10658131753682909  0.25308532834284136  0.3767325041214917  1.0000
  O   O7        1.0  0.8957503286600357  0.8739642072432827  0.6189844799042133  1.0000
  O   O8        1.0  0.8958748223665011  0.1260184561184516  0.3810772360119898  1.0000
  O   O9        1.0  0.010567600322993097  0.7550652435097618  0.5174140753536065  1.0000
  O   O10       1.0  0.0097846918579378  0.24464366853155176  0.48263834443897474  1.0000
  O   O11       1.0  0.8964224413863845  0.7977650306171568  0.7185334686803556  1.0000
  O   O12       1.0  0.8964219597402092  0.20222126162191498  0.2814646274215065  1.0000
  O   O13       1.0  0.10553116824662821  0.9208787118382414  0.7184091451237294  1.0000
  O   O14       1.0  0.1055314410411441  0.07912547799676868  0.2815899379384987  1.0000
  O   O15       1.0  0.09265108309207191  0.7882826008027166  0.7205408893571458  1.0000
  O   O16       1.0  0.09267814447331088  0.21171443114535282  0.27946493376271053  1.0000
  O   O17       1.0  0.9088865363593895  0.9307505699996453  0.7162589177933043  1.0000
  O   O18       1.0  0.9089188158023019  0.06926996797146498  0.28379955619457314  1.0000
  O   O19       1.0  0.9953765109015505  0.9172992901588158  0.8220214214394446  1.0000
  O   O20       1.0  0.9952262076141807  0.08263081897045049  0.1780221505513921  1.0000
  O   O21       1.0  0.6094058798371406  0.5889240783709796  0.5438950721696827  1.0000
  O   O22       1.0  0.6094055180861914  0.41107865802940313  0.45611741970949277  1.0000
  O   O23       1.0  0.38968166687487127  0.9557515089664502  0.5438972312990342  1.0000
  O   O24       1.0  0.38971645471054467  0.044217522277008876  0.45608881583307687  1.0000
  O   O25       1.0  0.6004373144117848  0.502457911559773  0.5752666208407291  1.0000
  O   O26       1.0  0.6004503670097421  0.49755793360888123  0.42475766053031083  1.0000
  O   O27       1.0  0.3982434509665751  0.07384999889788448  0.575374988422908  1.0000
  O   O28       1.0  0.3982579026954766  0.9261194675929185  0.42461875634900526  1.0000
  O   O29       1.0  0.40871983649161336  0.5963842187921741  0.5456739544239682  1.0000
  O   O30       1.0  0.40870674335783963  0.40364501675487924  0.45431971688378775  1.0000
  O   O31       1.0  0.5904975721899461  0.9492393638899583  0.5448568809021166  1.0000
  O   O32       1.0  0.5905485823648674  0.05075419635573299  0.45518541118036626  1.0000
  O   O33       1.0  0.40471642877302116  0.5037034526940473  0.569592583669106  1.0000
  O   O34       1.0  0.4047233356946975  0.4963279072078421  0.43040996503925294  1.0000
  O   O35       1.0  0.5940430769207552  0.06628830993889778  0.5698064705503185  1.0000
  O   O36       1.0  0.594048200397431  0.9337057341681854  0.4302282222040785  1.0000
  O   O37       1.0  0.4974555293835792  0.6402633822914934  0.45592866487455536  1.0000
  O   O38       1.0  0.49737216680107815  0.3597430881636042  0.5440655158749053  1.0000
  O   O39       1.0  0.5002136844939428  0.8154189403072606  0.4556045930596396  1.0000
  O   O40       1.0  0.500089169222761  0.18454584809983735  0.5443749483081248  1.0000
