data_image0
_chemical_formula_structural       Li4H24C20N12O12
_chemical_formula_sum              "Li4 H24 C20 N12 O12"
_cell_length_a       3.5254647240422696
_cell_length_b       13.127218375192891
_cell_length_c       14.248049505184836
_cell_angle_alpha    106.23275608039012
_cell_angle_beta     90.00036183599381
_cell_angle_gamma    89.99951838654421

_space_group_name_H-M_alt    "P 1"
_space_group_IT_number       1

loop_
  _space_group_symop_operation_xyz
  'x, y, z'

loop_
  _atom_site_type_symbol
  _atom_site_label
  _atom_site_symmetry_multiplicity
  _atom_site_fract_x
  _atom_site_fract_y
  _atom_site_fract_z
  _atom_site_occupancy
  Li  Li1       1.0  0.6039055685264503  0.5597983639867437  0.4319864967619366  1.0000
  Li  Li2       1.0  0.10390204105757313  0.940203461594983  0.5680150840697634  1.0000
  Li  Li3       1.0  0.39609240478827  0.440201800682388  0.5680135364445461  1.0000
  Li  Li4       1.0  0.8960987687626273  0.0597967030713704  0.4319849491384033  1.0000
  H   H1        1.0  0.20137238768749915  0.2022256120921355  0.050863964576137684  1.0000
  H   H2        1.0  0.7013750933271156  0.2977764336464759  0.949138622014736  1.0000
  H   H3        1.0  0.7986227491396392  0.797773756545972  0.9491365631283272  1.0000
  H   H4        1.0  0.2986257165013201  0.7022237283876082  0.05086211236208266  1.0000
  H   H5        1.0  0.18075237142982561  0.2093753411277248  0.17807682119286028  1.0000
  H   H6        1.0  0.680757992913435  0.29063070938652663  0.821927475397487  1.0000
  H   H7        1.0  0.8192427654055482  0.7906240248781202  0.8219244076802568  1.0000
  H   H8        1.0  0.31924848989840643  0.7093710420773435  0.1780729711520195  1.0000
  H   H9        1.0  0.8283124687769502  0.6161588821306694  0.22901780528898286  1.0000
  H   H10       1.0  0.3283040564521543  0.8838417235103934  0.7709803298323834  1.0000
  H   H11       1.0  0.17169117755980076  0.3838396983620883  0.7709811134142583  1.0000
  H   H12       1.0  0.6716995898735194  0.116158441153182  0.22901970337747457  1.0000
  H   H13       1.0  0.7766194778824201  0.5133271088313975  0.05114417838229458  1.0000
  H   H14       1.0  0.27661493225654965  0.9866704218552513  0.9488537697745727  1.0000
  H   H15       1.0  0.22338416848187856  0.48666988222602475  0.9488550281516265  1.0000
  H   H16       1.0  0.7233830410499351  0.0133297454461427  0.051145562263258185  1.0000
  H   H17       1.0  0.12398200437413462  0.6841980713623028  0.5066405387850705  1.0000
  H   H18       1.0  0.6239820132736045  0.8158021280748997  0.4933606525802999  1.0000
  H   H19       1.0  0.8760159689502417  0.3158012999052886  0.4933592877524261  1.0000
  H   H20       1.0  0.376018796546596  0.18419803659144662  0.5066393806278668  1.0000
  H   H21       1.0  0.15841858804272851  0.6935505513000563  0.3965603753087804  1.0000
  H   H22       1.0  0.6584157825977357  0.8064495806645056  0.6034408569977144  1.0000
  H   H23       1.0  0.8415822217678085  0.30645040676783714  0.603439864568365  1.0000
  H   H24       1.0  0.3415821907155633  0.19355137477389667  0.3965600840463991  1.0000
  C   C1        1.0  0.4722807942907963  0.3929854542369071  0.2513363900441162  1.0000
  C   C2        1.0  0.972281780438955  0.10701845141628749  0.7486643339700689  1.0000
  C   C3        1.0  0.5277171790156886  0.607014713064487  0.7486629419937145  1.0000
  C   C4        1.0  0.027716192875765003  0.8929817132528441  0.2513356992364137  1.0000
  C   C5        1.0  0.372233215519799  0.3499322433871229  0.3357864499927031  1.0000
  C   C6        1.0  0.8722365897899851  0.15007423850261864  0.6642147750799623  1.0000
  C   C7        1.0  0.6277619212894407  0.6500679212847872  0.6642135832120954  1.0000
  C   C8        1.0  0.12776422001089574  0.8499275129668079  0.33578567146616917  1.0000
  C   C9        1.0  0.4298747393589011  0.3347846204828287  0.1501054254788201  1.0000
  C   C10       1.0  0.9298763216209239  0.16521856959458603  0.8498964437860719  1.0000
  C   C11       1.0  0.570120397460002  0.6652147507875411  0.8498944010569927  1.0000
  C   C12       1.0  0.07012732471299192  0.8347815924367269  0.15010429059243074  1.0000
  C   C13       1.0  0.7153439224424931  0.53575058438463  0.20625828248365957  1.0000
  C   C14       1.0  0.2153477780302779  0.964249446562363  0.7937402128326096  1.0000
  C   C15       1.0  0.284659723903907  0.4642472027065878  0.7937404295505956  1.0000
  C   C16       1.0  0.7846587047926408  0.0357507207306966  0.20625911921028003  1.0000
  C   C17       1.0  0.6851433819665688  0.478081866866134  0.10840429225341808  1.0000
  C   C18       1.0  0.18514313034069835  0.021919427802174596  0.8915952636969064  1.0000
  C   C19       1.0  0.3148602643784174  0.5219167109943683  0.8915953276184749  1.0000
  C   C20       1.0  0.81486051597674  0.978080739493656  0.10840406834429217  1.0000
  N   N1        1.0  0.6106925454083696  0.4915186957053876  0.27635580238348467  1.0000
  N   N2        1.0  0.11069444833613325  0.008485125045169198  0.7236442850580005  1.0000
  N   N3        1.0  0.38930826441324473  0.5084806781916883  0.7236433229870514  1.0000
  N   N4        1.0  0.889309197979884  0.9915158330199388  0.2763559548208362  1.0000
  N   N5        1.0  0.5461699592283865  0.37953408555732426  0.07964231409082598  1.0000
  N   N6        1.0  0.046173054363166016  0.1204666880121437  0.92035686996239  1.0000
  N   N7        1.0  0.453830850601463  0.6204652857074892  0.9203575124483546  1.0000
  N   N8        1.0  0.9538305919900553  0.8795318872160891  0.0796434510781481  1.0000
  N   N9        1.0  0.28099340675471746  0.23683628575880528  0.12244568519481895  1.0000
  N   N10       1.0  0.7810011647382639  0.2631679868014701  0.8775569149014258  1.0000
  N   N11       1.0  0.7190017300724209  0.7631630828793023  0.8775548425096459  1.0000
  N   N12       1.0  0.2190024815695182  0.7368329738959005  0.12244262380875877  1.0000
  O   O1        1.0  0.23179052561931712  0.25666594753518984  0.3175474841706674  1.0000
  O   O2        1.0  0.731788651809808  0.24333921747696513  0.6824545629212506  1.0000
  O   O3        1.0  0.7682046112064003  0.7433342118721955  0.6824539513714356  1.0000
  O   O4        1.0  0.2682093215199686  0.7566617326969125  0.31754778046017407  1.0000
  O   O5        1.0  0.438630213780435  0.41009852844703704  0.42075859611396976  1.0000
  O   O6        1.0  0.9386362684593694  0.08990782597336282  0.5792420067332387  1.0000
  O   O7        1.0  0.5613677595342851  0.5899016362220878  0.5792414370925129  1.0000
  O   O8        1.0  0.061367377837342516  0.9100947188948183  0.42075864648356287  1.0000
  O   O9        1.0  0.09211082715558663  0.644775964689849  0.43808967267209187  1.0000
  O   O10       1.0  0.5921140759149638  0.8552250853299131  0.5619130898087974  1.0000
  O   O11       1.0  0.9078899826646137  0.35522419997650456  0.5619103605360749  1.0000
  O   O12       1.0  0.4078867338955732  0.14477587273797354  0.4380871500683554  1.0000
