data_image0
_chemical_formula_structural       Sm2H24C36N6O12
_chemical_formula_sum              "Sm2 H24 C36 N6 O12"
_cell_length_a       7.6673068630006895
_cell_length_b       10.908433352823126
_cell_length_c       11.264627903208078
_cell_angle_alpha    117.98067835448781
_cell_angle_beta     89.99998712499428
_cell_angle_gamma    89.9999638629294

_space_group_name_H-M_alt    "P 1"
_space_group_IT_number       1

loop_
  _space_group_symop_operation_xyz
  'x, y, z'

loop_
  _atom_site_type_symbol
  _atom_site_label
  _atom_site_symmetry_multiplicity
  _atom_site_fract_x
  _atom_site_fract_y
  _atom_site_fract_z
  _atom_site_occupancy
  Sm  Sm1       1.0  0.8068055699675583  0.9845059701945476  0.5324520005291901  1.0000
  Sm  Sm2       1.0  0.3068051565318796  0.015494110766503902  0.46754812716506655  1.0000
  H   H1        1.0  0.05699106593484519  0.44305887317198517  0.3497265656884351  1.0000
  H   H2        1.0  0.5569905119678467  0.5569382614785141  0.6502740373603968  1.0000
  H   H3        1.0  0.7719396877127592  0.31608735092527246  0.3207368887986631  1.0000
  H   H4        1.0  0.2719399050843094  0.6839117226845063  0.6792663384971289  1.0000
  H   H5        1.0  0.49187126721930946  0.45439561351064833  0.3563565832363194  1.0000
  H   H6        1.0  0.9918694215612048  0.5456033157467883  0.6436465489918458  1.0000
  H   H7        1.0  0.5104943706488854  0.7037843185458783  0.42692605741581946  1.0000
  H   H8        1.0  0.010492363987189899  0.2962138807730526  0.573073258446058  1.0000
  H   H9        1.0  0.5033978561403103  0.8449960245142732  0.8999082206785967  1.0000
  H   H10       1.0  0.0033974548401615994  0.15500010137709816  0.10008926971145365  1.0000
  H   H11       1.0  0.7769491088883099  0.8083003600149965  0.005132288856763996  1.0000
  H   H12       1.0  0.27694703879300425  0.19169869856491323  0.9948656045408337  1.0000
  H   H13       1.0  0.06732427197398749  0.8347155453638849  0.9137819528157533  1.0000
  H   H14       1.0  0.567325580045768  0.16528676499470413  0.08621744106918067  1.0000
  H   H15       1.0  0.07291815899879589  0.8978395706461484  0.7283000079751855  1.0000
  H   H16       1.0  0.5729194544528582  0.10216065991311751  0.27169844357491246  1.0000
  H   H17       1.0  0.062375043793565496  0.399272930729481  0.025543184882607796  1.0000
  H   H18       1.0  0.5623808517989913  0.6007325029390458  0.9744602868825746  1.0000
  H   H19       1.0  0.7770131282276581  0.49998216723266614  0.1430097132753544  1.0000
  H   H20       1.0  0.27701735606144956  0.5000168991316086  0.8569917345820739  1.0000
  H   H21       1.0  0.4981943095125487  0.38724840606739974  0.021290683632393795  1.0000
  H   H22       1.0  0.9982001052415299  0.6127515512299126  0.9787102499526621  1.0000
  H   H23       1.0  0.5146289669152111  0.19549354196507102  0.7897668261969029  1.0000
  H   H24       1.0  0.014630555171585497  0.8045056907456926  0.21023206921314835  1.0000
  C   C1        1.0  0.9310814573590774  0.6376178063759211  0.4053633930178148  1.0000
  C   C2        1.0  0.4310780795714493  0.3623801168893408  0.5946357410405337  1.0000
  C   C3        1.0  0.9319045024119176  0.4958481476748062  0.36649972012015286  1.0000
  C   C4        1.0  0.43190228827072724  0.5041497770069796  0.6335003022043889  1.0000
  C   C5        1.0  0.7737016598737795  0.42660995432775195  0.3500296025352369  1.0000
  C   C6        1.0  0.27370068223905963  0.573388078104962  0.6499722654185545  1.0000
  C   C7        1.0  0.6200844501005135  0.5022104890776687  0.3702971694079052  1.0000
  C   C8        1.0  0.1200835472683721  0.49778868224619544  0.6297052349071561  1.0000
  C   C9        1.0  0.6300018123542583  0.6439894402255817  0.4100856309326344  1.0000
  C   C10       1.0  0.12999844198856889  0.35600971676134924  0.5899132146071862  1.0000
  C   C11       1.0  0.09976996826647877  0.7146372583897647  0.4214112551985492  1.0000
  C   C12       1.0  0.5997670741200378  0.2853598423120545  0.5785866634924444  1.0000
  C   C13       1.0  0.6470180427754357  0.8900432072591614  0.7618253495459795  1.0000
  C   C14       1.0  0.1470189345861641  0.10995697662157511  0.23817395859585833  1.0000
  C   C15       1.0  0.632954431108935  0.8545375584846866  0.8654782271237946  1.0000
  C   C16       1.0  0.13295532976794527  0.1454605565418916  0.13451925855818556  1.0000
  C   C17       1.0  0.7844261289463218  0.8341260543219209  0.9226267506851681  1.0000
  C   C18       1.0  0.28442572639710306  0.16587300130697713  0.07737202810225337  1.0000
  C   C19       1.0  0.9449988100830495  0.8490714909536127  0.8726381764830645  1.0000
  C   C20       1.0  0.4449997065307513  0.15093057347393568  0.1273619427698164  1.0000
  C   C21       1.0  0.9490028272170931  0.8842762403406397  0.7684398282583158  1.0000
  C   C22       1.0  0.4490037163483578  0.11572478143786921  0.2315589306831568  1.0000
  C   C23       1.0  0.4850080930064421  0.9156847763974554  0.7001158316713254  1.0000
  C   C24       1.0  0.9850093938898254  0.0843131095141914  0.2998823904533551  1.0000
  C   C25       1.0  0.9349251403051397  0.24957817362842152  0.8465446027928676  1.0000
  C   C26       1.0  0.4349267977558071  0.7504249354746477  0.15345599077271999  1.0000
  C   C27       1.0  0.9372583512176221  0.35771774043447385  0.9780394570505064  1.0000
  C   C28       1.0  0.43726276216562354  0.6422864091143766  0.021963382708762004  1.0000
  C   C29       1.0  0.7794977613177494  0.4114267833933382  0.04301484728633643  1.0000
  C   C30       1.0  0.27950317748346265  0.5885743555103886  0.9569866507914068  1.0000
  C   C31       1.0  0.625438306052814  0.3507141013206621  0.9753738711741275  1.0000
  C   C32       1.0  0.12544140554136618  0.6492871387014034  0.024627693498175028  1.0000
  C   C33       1.0  0.6342772058842029  0.24195242564378822  0.8444007726077271  1.0000
  C   C34       1.0  0.1342801599923931  0.7580488066197617  0.15559989962166298  1.0000
  C   C35       1.0  0.10252077468958021  0.194792220506173  0.7707394198645756  1.0000
  C   C36       1.0  0.6025214601618033  0.8052121487503288  0.22926356458983568  1.0000
  N   N1        1.0  0.782278193541849  0.7116304379494663  0.42883142991461626  1.0000
  N   N2        1.0  0.28227489033140063  0.2883675810263214  0.5711668798434955  1.0000
  N   N3        1.0  0.8028902464980091  0.9047648834969096  0.714298367894443  1.0000
  N   N4        1.0  0.30288852530375004  0.09523623809829472  0.2857022314509549  1.0000
  N   N5        1.0  0.7858558867323426  0.19266851773073063  0.7798475099663943  1.0000
  N   N6        1.0  0.2858574687933667  0.8073336531078324  0.22015356669999148  1.0000
  O   O1        1.0  0.08254873068725031  0.8474882297400724  0.4634598300164467  1.0000
  O   O2        1.0  0.5825459703758538  0.1525099242430343  0.5365403433214408  1.0000
  O   O3        1.0  0.24021305697440448  0.650643108738457  0.39358905499179986  1.0000
  O   O4        1.0  0.7402100955529959  0.3493528617190905  0.6064083330325898  1.0000
  O   O5        1.0  0.5120867023301727  0.9524505824409105  0.6068997589824574  1.0000
  O   O6        1.0  0.0120875922192738  0.0475476158319381  0.3930995561904849  1.0000
  O   O7        1.0  0.34000802595421215  0.9014240989036395  0.740834851873309  1.0000
  O   O8        1.0  0.8400093292489146  0.09857388413652052  0.25916432155160857  1.0000
  O   O9        1.0  0.24451714666282953  0.24252676616762162  0.8268421771137323  1.0000
  O   O10       1.0  0.7445231123855648  0.7574775040158954  0.17315808009325187  1.0000
  O   O11       1.0  0.08376979698982007  0.09986776567784972  0.6468910078023382  1.0000
  O   O12       1.0  0.5837755689981137  0.9001314236077747  0.35310874634207307  1.0000
