data_image0
_chemical_formula_structural       Zn2H40C50N2O8
_chemical_formula_sum              "Zn2 H40 C50 N2 O8"
_cell_length_a       10.967104244146498
_cell_length_b       14.754841054263663
_cell_length_c       16.18750645566304
_cell_angle_alpha    90.16602171351195
_cell_angle_beta     90.03906006601453
_cell_angle_gamma    91.37316999013235

_space_group_name_H-M_alt    "P 1"
_space_group_IT_number       1

loop_
  _space_group_symop_operation_xyz
  'x, y, z'

loop_
  _atom_site_type_symbol
  _atom_site_label
  _atom_site_symmetry_multiplicity
  _atom_site_fract_x
  _atom_site_fract_y
  _atom_site_fract_z
  _atom_site_occupancy
  Zn  Zn1       1.0  0.5051720499167303  0.595335084422942  0.5002127124649365  1.0000
  Zn  Zn2       1.0  0.49481833445589973  0.4046485023070049  0.49979127750191327  1.0000
  H   H1        1.0  0.7178131145700988  0.12835249040340102  0.6667779206428934  1.0000
  H   H2        1.0  0.282188274977024  0.8716372886809509  0.3332180329722051  1.0000
  H   H3        1.0  0.5718336670098196  0.9175320945581762  0.3757421812994083  1.0000
  H   H4        1.0  0.42818046468161  0.0824571193887635  0.6242463517217305  1.0000
  H   H5        1.0  0.8162353468933077  0.41200872552418133  0.6734530649528313  1.0000
  H   H6        1.0  0.18374608538590556  0.5879876440992009  0.32655093207583974  1.0000
  H   H7        1.0  0.8134326621009507  0.11602433430183373  0.528818841505519  1.0000
  H   H8        1.0  0.1865779732460382  0.883975033470321  0.47117772596564594  1.0000
  H   H9        1.0  0.11088743400071618  0.3674623893792699  0.5507329582849537  1.0000
  H   H10       1.0  0.8891031230110045  0.6325340825140771  0.4492728867871279  1.0000
  H   H11       1.0  0.4660652248557681  0.6422987138117126  0.07772415228372152  1.0000
  H   H12       1.0  0.5339538149974246  0.3577149893494963  0.9222767368147304  1.0000
  H   H13       1.0  0.6650450657213156  0.2155738077481217  0.7866495086515004  1.0000
  H   H14       1.0  0.7617583929242498  0.3107963471270311  0.8092526196517726  1.0000
  H   H15       1.0  0.6205188806914776  0.3267895258004643  0.7588948251474792  1.0000
  H   H16       1.0  0.33493714013206943  0.784413729161912  0.21334460240322536  1.0000
  H   H17       1.0  0.3794652154945339  0.6732021145686958  0.24110484529799697  1.0000
  H   H18       1.0  0.23822744471253546  0.6891892079820041  0.19074581335836885  1.0000
  H   H19       1.0  0.9598696647426478  0.31093785962762877  0.4126194936817102  1.0000
  H   H20       1.0  0.9957310286576585  0.19711071041865583  0.4351018506001837  1.0000
  H   H21       1.0  0.8517184934758716  0.2226206856977129  0.39251112052095766  1.0000
  H   H22       1.0  0.04023928040709989  0.6890409802158218  0.5874165509068308  1.0000
  H   H23       1.0  0.1482144086475401  0.7775052151131592  0.6074638888564581  1.0000
  H   H24       1.0  0.004138066201640799  0.8028091258707447  0.5648657517975411  1.0000
  H   H25       1.0  0.4568407635665181  0.7273678558539345  0.9530215202265571  1.0000
  H   H26       1.0  0.5441723940967121  0.6845496517475597  0.8690027081933639  1.0000
  H   H27       1.0  0.3850767171683813  0.6655240702976641  0.8707589749967684  1.0000
  H   H28       1.0  0.5431919791217794  0.2726486868199061  0.046973801520160015  1.0000
  H   H29       1.0  0.6149477936528029  0.3344910221505303  0.12923388022788634  1.0000
  H   H30       1.0  0.4558574515120242  0.31545399180818384  0.13099570212499156  1.0000
  H   H31       1.0  0.43109026213221574  0.07580418324822351  0.2777790734600246  1.0000
  H   H32       1.0  0.4276173444925533  0.1803744393937592  0.3329894542866399  1.0000
  H   H33       1.0  0.524248018978092  0.16998221471227742  0.24613394503174396  1.0000
  H   H34       1.0  0.6461748770705852  0.161254323233905  0.3765216233526162  1.0000
  H   H35       1.0  0.6528309824229837  0.05893797833460471  0.3198925922598975  1.0000
  H   H36       1.0  0.572376668347701  0.8196138258331515  0.6669799395284104  1.0000
  H   H37       1.0  0.5689309403878653  0.9241701554031181  0.7221964802404488  1.0000
  H   H38       1.0  0.4757687295293564  0.8299995434665632  0.7538453189205117  1.0000
  H   H39       1.0  0.3471906373638731  0.9410655557001205  0.6800984096243357  1.0000
  H   H40       1.0  0.3538175663224337  0.8387489128549107  0.6234731018940851  1.0000
  C   C1        1.0  0.4921031477351363  0.4941876143665525  0.3382220796052807  1.0000
  C   C2        1.0  0.507902558291761  0.5057825717251065  0.6617794284807916  1.0000
  C   C3        1.0  0.12784270962338704  0.5008965221037229  0.49986709418455194  1.0000
  C   C4        1.0  0.8721415324218568  0.4991046366323744  0.5001418440430359  1.0000
  C   C5        1.0  0.0667023372938687  0.5775891266960329  0.47073245490822313  1.0000
  C   C6        1.0  0.933276454623936  0.4224133354385132  0.529278339946494  1.0000
  C   C7        1.0  0.483828013823782  0.5833429444932817  0.9567529158699987  1.0000
  C   C8        1.0  0.5161873970567754  0.4166720776340328  0.04324859328070832  1.0000
  C   C9        1.0  0.5034360477223174  0.5010450141109858  0.9135928109291884  1.0000
  C   C10       1.0  0.4965802544593599  0.49896799158769783  0.08641116846180102  1.0000
  C   C11       1.0  0.5191438834477465  0.4197015390246506  0.9574118693872723  1.0000
  C   C12       1.0  0.48087149346714136  0.5803107735030082  0.04259025714392101  1.0000
  C   C13       1.0  0.5065998046337583  0.5008016426615783  0.8263120915430878  1.0000
  C   C14       1.0  0.49341640013189186  0.49920390646980206  0.17369188679624875  1.0000
  C   C15       1.0  0.4920777805298542  0.496449474265127  0.24894572451731295  1.0000
  C   C16       1.0  0.5079480005978282  0.5035216041658117  0.7510563898875734  1.0000
  C   C17       1.0  0.5407446139566546  0.9550650717551225  0.42960439084670565  1.0000
  C   C18       1.0  0.4592778160748808  0.0449310097374251  0.5703847561726081  1.0000
  C   C19       1.0  0.49587610908428564  0.9069143341898995  0.4983919243059704  1.0000
  C   C20       1.0  0.5041363373150034  0.09308570258801303  0.5015953757681049  1.0000
  C   C21       1.0  0.45369978144853457  0.9505397416040041  0.5704965751424285  1.0000
  C   C22       1.0  0.5463098521621106  0.0494548357088718  0.42948825468876367  1.0000
  C   C23       1.0  0.7356975177893971  0.5024658364820453  0.49642302034376967  1.0000
  C   C24       1.0  0.26428771901823467  0.49754210309734503  0.5035834472637009  1.0000
  C   C25       1.0  0.49592194339100376  0.8108820201792214  0.49565391100614437  1.0000
  C   C26       1.0  0.5040777066933231  0.18911717901262648  0.5043253653979465  1.0000
  C   C27       1.0  0.7590326431311354  0.27151328819737597  0.6802698444606963  1.0000
  C   C28       1.0  0.24094961585826263  0.7284783159311772  0.3197242671676649  1.0000
  C   C29       1.0  0.8153703460689528  0.3463583450270846  0.6420033558895712  1.0000
  C   C30       1.0  0.18460835614825302  0.6536393363113719  0.3579957008006361  1.0000
  C   C31       1.0  0.8701333510522177  0.3403912468910806  0.5640190219132466  1.0000
  C   C32       1.0  0.1298444569471755  0.6596084471172929  0.435976329010849  1.0000
  C   C33       1.0  0.8695015441282833  0.2566858284297028  0.5217167160526586  1.0000
  C   C34       1.0  0.1304973673821834  0.7433222485800998  0.4782872726351998  1.0000
  C   C35       1.0  0.8140711009741466  0.18159319044318784  0.5605516047836263  1.0000
  C   C36       1.0  0.18593405767738597  0.8184054471181597  0.43944681902785043  1.0000
  C   C37       1.0  0.7599822917260751  0.18840025370852234  0.638256445660389  1.0000
  C   C38       1.0  0.24002093355931456  0.8115895597370726  0.3617444490089242  1.0000
  C   C39       1.0  0.06074211341319821  0.4253340267963922  0.528194926728361  1.0000
  C   C40       1.0  0.9392411900282907  0.5746650886672597  0.471814011736946  1.0000
  C   C41       1.0  0.6984245185470428  0.281375818518363  0.7631434015758531  1.0000
  C   C42       1.0  0.3015550012065731  0.718614419674701  0.2368568890639794  1.0000
  C   C43       1.0  0.9223057887321175  0.24666716674622793  0.4362944197829678  1.0000
  C   C44       1.0  0.0776657368081146  0.7533399218251873  0.56370278915324  1.0000
  C   C45       1.0  0.46660654850273886  0.6701079082609172  0.9103749062112814  1.0000
  C   C46       1.0  0.5334170369457353  0.329905824422653  0.08961980263542564  1.0000
  C   C47       1.0  0.5914818530839271  0.10199077522847232  0.3555892050011878  1.0000
  C   C48       1.0  0.4871367365021229  0.13366801305124204  0.2999861848902158  1.0000
  C   C49       1.0  0.4085259771898392  0.8980058088498596  0.6443931551142443  1.0000
  C   C50       1.0  0.5128790438109405  0.866308997893569  0.6999955499689607  1.0000
  N   N1        1.0  0.5003424686441136  0.2675736315197241  0.505491304809766  1.0000
  N   N2        1.0  0.49965354496399067  0.7324255440542304  0.494492915795732  1.0000
  O   O1        1.0  0.49707296867251216  0.5710953610403707  0.374412428604707  1.0000
  O   O2        1.0  0.5029198550782964  0.4288652127455919  0.6255934098266993  1.0000
  O   O3        1.0  0.4869886076773327  0.4161987822792882  0.3714929781182265  1.0000
  O   O4        1.0  0.5130178421212506  0.5837585339502315  0.6285085276268064  1.0000
  O   O5        1.0  0.6890290426416569  0.5807119032377984  0.49935207433839696  1.0000
  O   O6        1.0  0.3109624972538398  0.41929000127677807  0.5006537709739975  1.0000
  O   O7        1.0  0.6774891151459742  0.4272794890956462  0.4896951168645459  1.0000
  O   O8        1.0  0.32249236130733283  0.5727196032829057  0.5103125871239983  1.0000
