data_image0
_chemical_formula_structural       CoH20C28N8O12
_chemical_formula_sum              "Co1 H20 C28 N8 O12"
_cell_length_a       6.417900578199161
_cell_length_b       11.081412915454735
_cell_length_c       11.26179696028689
_cell_angle_alpha    99.66483539765943
_cell_angle_beta     107.8771635654267
_cell_angle_gamma    90.30290986736213

_space_group_name_H-M_alt    "P 1"
_space_group_IT_number       1

loop_
  _space_group_symop_operation_xyz
  'x, y, z'

loop_
  _atom_site_type_symbol
  _atom_site_label
  _atom_site_symmetry_multiplicity
  _atom_site_fract_x
  _atom_site_fract_y
  _atom_site_fract_z
  _atom_site_occupancy
  Co  Co1       1.0  0.9035816968283613  0.4906763684354161  0.9977437615325684  1.0000
  H   H1        1.0  0.3130785292034517  0.6157399118550657  0.9728115345299955  1.0000
  H   H2        1.0  0.37068371378068576  0.38938565287615035  0.01641695822137021  1.0000
  H   H3        1.0  0.4434203765590611  0.8250751704637338  0.34036853126470856  1.0000
  H   H4        1.0  0.0891351079089375  0.1642426549772793  0.6580028665942025  1.0000
  H   H5        1.0  0.0681093283230538  0.6682777213684686  0.28430465040442243  1.0000
  H   H6        1.0  0.7786034704413823  0.32145399364123506  0.7130596591142933  1.0000
  H   H7        1.0  0.7022737310270771  0.7203855777680487  0.09091651871494123  1.0000
  H   H8        1.0  0.6268058518063384  0.2694438332319394  0.9092982958988216  1.0000
  H   H9        1.0  0.7395988151129488  0.8244671297172489  0.23222541117816328  1.0000
  H   H10       1.0  0.5109727723803986  0.1719201207700038  0.7622496632988175  1.0000
  H   H11       1.0  0.24166680910092714  0.916263092508295  0.05806156104404893  1.0000
  H   H12       1.0  0.1856655463496466  0.08794073805487558  0.9386871351321633  1.0000
  H   H13       1.0  0.9052392449257881  0.9008422862490449  0.048616031962858124  1.0000
  H   H14       1.0  0.8505168204295189  0.07514744043834301  0.9312379051208098  1.0000
  H   H15       1.0  0.7157492485159836  0.817773284324744  0.753725075175865  1.0000
  H   H16       1.0  0.9145527062755506  0.1942855462547115  0.221623447729698  1.0000
  H   H17       1.0  0.042993887223694585  0.8428093956465684  0.5259359176556657  1.0000
  H   H18       1.0  0.5613272434310731  0.14960325234861213  0.48453534960152217  1.0000
  H   H19       1.0  0.22759023702003847  0.5319183510708002  0.7137620326751134  1.0000
  H   H20       1.0  0.4996591656589261  0.47538158310980083  0.31408710398012835  1.0000
  C   C1        1.0  0.29300331286966513  0.6507497773919653  0.06417693791210165  1.0000
  C   C2        1.0  0.2487787969206181  0.34974174850986367  0.9276249130747801  1.0000
  C   C3        1.0  0.357046052698422  0.7590707631981743  0.25690307338811647  1.0000
  C   C4        1.0  0.0971450026934804  0.2336283382593436  0.7395687490942748  1.0000
  C   C5        1.0  0.17402736709333064  0.6815844560399354  0.22840750137815752  1.0000
  C   C6        1.0  0.946444552461827  0.31115519092232796  0.7684053961032549  1.0000
  C   C7        1.0  0.6235945241745213  0.7934223959895591  0.13708610342342817  1.0000
  C   C8        1.0  0.4929183040248051  0.20031464743654226  0.8565501496817166  1.0000
  C   C9        1.0  0.37631296013284304  0.9506055692279672  0.030555828305004685  1.0000
  C   C10       1.0  0.3445269173981842  0.047617021811149095  0.962860986543433  1.0000
  C   C11       1.0  0.5780160572777008  0.8973378998153835  0.06276104688560487  1.0000
  C   C12       1.0  0.5143090461665311  0.09367497600395318  0.9269002734101122  1.0000
  C   C13       1.0  0.7478352664540111  0.9428057679668029  0.025202852991306212  1.0000
  C   C14       1.0  0.7169299770560116  0.03992819070413128  0.9591091886424222  1.0000
  C   C15       1.0  0.49075979085512256  0.6686852815732749  0.7436944796452352  1.0000
  C   C16       1.0  0.7142364710120007  0.34281632111276394  0.2596424665298614  1.0000
  C   C17       1.0  0.5472286314693806  0.779661121562569  0.7149522816112468  1.0000
  C   C18       1.0  0.8034640742300639  0.2294151868844523  0.2734746097384218  1.0000
  C   C19       1.0  0.3856687509495628  0.8409477045921038  0.6386455400075093  1.0000
  C   C20       1.0  0.7468533937637079  0.1621696304009035  0.3540685534882543  1.0000
  C   C21       1.0  0.16846520483489513  0.7941653458949034  0.5857957827764579  1.0000
  C   C22       1.0  0.6035684798804866  0.20316983377099262  0.42159294682885223  1.0000
  C   C23       1.0  0.1194810577982111  0.6817694212563267  0.6139767813178878  1.0000
  C   C24       1.0  0.5161131065199812  0.3157817529499525  0.4035932852446821  1.0000
  C   C25       1.0  0.274726008226672  0.6186827454148014  0.6931859266940492  1.0000
  C   C26       1.0  0.567700691045964  0.38642542819388137  0.3240546040129432  1.0000
  C   C27       1.0  0.6688876701865497  0.6092552915903015  0.8308977445600192  1.0000
  C   C28       1.0  0.7743621014490571  0.4187286446508196  0.17558686508986912  1.0000
  N   N1        1.0  0.13564175410774482  0.6146969640671641  0.10738544516126317  1.0000
  N   N2        1.0  0.04345027568393789  0.3829721131547357  0.8862989409749744  1.0000
  N   N3        1.0  0.4299264383814929  0.7378249359148867  0.152131293040128  1.0000
  N   N4        1.0  0.2876141853184748  0.2598611315158834  0.840878271067588  1.0000
  N   N5        1.0  0.8929792553246473  0.6274308134720029  0.5577801072056803  1.0000
  N   N6        1.0  0.36857510374620267  0.3653573989305201  0.4747375632411562  1.0000
  N   N7        1.0  0.44866479598196923  0.9602355916428638  0.615692930190008  1.0000
  N   N8        1.0  0.8413493752637823  0.042824777760373  0.36695346290639463  1.0000
  O   O1        1.0  0.6110797281635315  0.5273916780280672  0.8864077773477065  1.0000
  O   O2        1.0  0.7228079538715735  0.5278422721765993  0.17896167532084212  1.0000
  O   O3        1.0  0.8653873403093615  0.6430327201449586  0.8512356878659804  1.0000
  O   O4        1.0  0.8739660596622374  0.36426200831567  0.09943431809034563  1.0000
  O   O5        1.0  0.8537444790048809  0.525041131136753  0.5790303115160855  1.0000
  O   O6        1.0  0.24055554929792322  0.4417446433869046  0.4305987097533476  1.0000
  O   O7        1.0  0.6458809644107292  0.995093495503532  0.6554173803869007  1.0000
  O   O8        1.0  0.9883364149841114  0.014901826550556099  0.3191324271889968  1.0000
  O   O9        1.0  0.7548316163503443  0.6876411641522893  0.492454151984461  1.0000
  O   O10       1.0  0.3827716321444115  0.32841455419415405  0.5749725177324977  1.0000
  O   O11       1.0  0.3007351373852529  0.021749706998036796  0.5596181235013448  1.0000
  O   O12       1.0  0.7662810031860519  0.9753315739058194  0.42393309837136434  1.0000
