data_image0
_chemical_formula_structural       Cu2H16C18N4Cl2
_chemical_formula_sum              "Cu2 H16 C18 N4 Cl2"
_cell_length_a       3.7194221200378963
_cell_length_b       7.379656284923023
_cell_length_c       15.352368070582225
_cell_angle_alpha    94.21028547884197
_cell_angle_beta     89.99952254811029
_cell_angle_gamma    89.99998752334946

_space_group_name_H-M_alt    "P 1"
_space_group_IT_number       1

loop_
  _space_group_symop_operation_xyz
  'x, y, z'

loop_
  _atom_site_type_symbol
  _atom_site_label
  _atom_site_symmetry_multiplicity
  _atom_site_fract_x
  _atom_site_fract_y
  _atom_site_fract_z
  _atom_site_occupancy
  Cu  Cu1       1.0  0.024639332016086306  0.5543695215057767  0.5957596766707101  1.0000
  Cu  Cu2       1.0  0.5246394336642767  0.44563447909252557  0.4042382120915776  1.0000
  H   H1        1.0  0.2734098714797711  0.8431887487347893  0.5429507796082191  1.0000
  H   H2        1.0  0.7734139267865389  0.15682057149409448  0.4570487282473864  1.0000
  H   H3        1.0  0.3642436674277009  0.07184342064009286  0.5768809976424338  1.0000
  H   H4        1.0  0.8642427596515037  0.928163141118908  0.4231188560977657  1.0000
  H   H5        1.0  0.23973278537587817  0.1997739203167228  0.7184247360833852  1.0000
  H   H6        1.0  0.7397149549632049  0.8002299139864844  0.28157853976355807  1.0000
  H   H7        1.0  0.0244389158377203  0.15143139374512057  0.8690108785800563  1.0000
  H   H8        1.0  0.5244258069462193  0.8485630022797107  0.1309924988549653  1.0000
  H   H9        1.0  0.7719777972229025  0.9384751905191134  0.9726899556322409  1.0000
  H   H10       1.0  0.2719799644037765  0.06151370798703938  0.027311365160542805  1.0000
  H   H11       1.0  0.5486790256214251  0.6295506094248038  0.0016145480893427974  1.0000
  H   H12       1.0  0.04868516683070822  0.37043841649499837  0.998384007544793  1.0000
  H   H13       1.0  0.5482753687393684  0.3841659079292582  0.881591635451713  1.0000
  H   H14       1.0  0.048284935439788505  0.615827246302622  0.11840382499458003  1.0000
  H   H15       1.0  0.7728018006504486  0.44378035604952965  0.7341570538246034  1.0000
  H   H16       1.0  0.27279868936251733  0.5562208642299635  0.26583888283079926  1.0000
  C   C1        1.0  0.14004840301343796  0.9203135330727362  0.6700031100470484  1.0000
  C   C2        1.0  0.640045788323306  0.07969037651736949  0.32999778049635614  1.0000
  C   C3        1.0  0.14070105428400842  0.06823325330928037  0.7357695697608905  1.0000
  C   C4        1.0  0.640680971561409  0.9317693390125256  0.2642286625141211  1.0000
  C   C5        1.0  0.023275612141930007  0.04047620982036899  0.8179025173873955  1.0000
  C   C6        1.0  0.5232527262211236  0.95952093524523  0.18209901555635352  1.0000
  C   C7        1.0  0.8977495019098429  0.8661094719684852  0.8376084594736923  1.0000
  C   C8        1.0  0.3977392690527495  0.13388617761800956  0.1623928501968379  1.0000
  C   C9        1.0  0.7718657382414236  0.8285939299918181  0.921164212278903  1.0000
  C   C10       1.0  0.2718608046742901  0.17140177248439406  0.07883672249557352  1.0000
  C   C11       1.0  0.6489405457583717  0.6576639911818773  0.937342967641243  1.0000
  C   C12       1.0  0.148941355040634  0.3423304044820767  0.0626575328065755  1.0000
  C   C13       1.0  0.6496245813788664  0.5186123968987957  0.8694023904445985  1.0000
  C   C14       1.0  0.1496177458567374  0.48138476800848906  0.1305949595006339  1.0000
  C   C15       1.0  0.7739892743752252  0.550846503731698  0.7870953916442505  1.0000
  C   C16       1.0  0.2739798631527678  0.4491547057350189  0.21290119339238345  1.0000
  C   C17       1.0  0.9001596244852126  0.7246330251260102  0.7689513247999715  1.0000
  C   C18       1.0  0.40015516500904624  0.27537216581073654  0.23104839723182383  1.0000
  N   N1        1.0  0.021758338217893008  0.7534181575576325  0.6861332280938728  1.0000
  N   N2        1.0  0.5217507139026198  0.24658849894244378  0.3138686787504028  1.0000
  N   N3        1.0  0.2589901875700917  0.9489172639333672  0.5892495632562175  1.0000
  N   N4        1.0  0.7589877317903984  0.051090681632444984  0.4107512252478287  1.0000
  Cl  Cl1       1.0  0.5207438165466769  0.3663205011031607  0.5669466131673746  1.0000
  Cl  Cl2       1.0  0.020743416179719504  0.6336780555822441  0.4330517233523424  1.0000
