data_image0
_chemical_formula_structural       Cd2H36C44N4O8
_chemical_formula_sum              "Cd2 H36 C44 N4 O8"
_cell_length_a       9.53831343036787
_cell_length_b       10.404304695267022
_cell_length_c       10.678415511014997
_cell_angle_alpha    83.3556723459707
_cell_angle_beta     90.13026510336577
_cell_angle_gamma    62.71615466143254

_space_group_name_H-M_alt    "P 1"
_space_group_IT_number       1

loop_
  _space_group_symop_operation_xyz
  'x, y, z'

loop_
  _atom_site_type_symbol
  _atom_site_label
  _atom_site_symmetry_multiplicity
  _atom_site_fract_x
  _atom_site_fract_y
  _atom_site_fract_z
  _atom_site_occupancy
  Cd  Cd1       1.0  0.8982296626790286  0.43204977607005907  0.3654206574236198  1.0000
  Cd  Cd2       1.0  0.10176935085441843  0.5679503803507657  0.6345786250290217  1.0000
  H   H1        1.0  0.37349125240800873  0.49953761799110197  0.2452841187344461  1.0000
  H   H2        1.0  0.6265067395069578  0.5004603634866953  0.7547144818489071  1.0000
  H   H3        1.0  0.46075655549540073  0.4905641542157256  0.09878746526487699  1.0000
  H   H4        1.0  0.539238760170946  0.5094371039594847  0.9012107622947382  1.0000
  H   H5        1.0  0.5962089537227226  0.27125588058417094  0.009029154000941696  1.0000
  H   H6        1.0  0.40378846270870383  0.7287453696080206  0.9909690692181738  1.0000
  H   H7        1.0  0.663092975301666  0.011683748335954596  0.0055864354183085985  1.0000
  H   H8        1.0  0.336909731334764  0.9883153052083741  0.994412965588239  1.0000
  H   H9        1.0  0.6240321427651309  0.8695682663435635  0.19544693160503357  1.0000
  H   H10       1.0  0.37596792115085975  0.1304318860857592  0.8045523486773544  1.0000
  H   H11       1.0  0.5104921362219488  0.9933825224632854  0.38309808349993085  1.0000
  H   H12       1.0  0.4895063784125639  0.006616549291301498  0.6169031988658631  1.0000
  H   H13       1.0  0.4302254146812101  0.3655167862714777  0.4318434134887139  1.0000
  H   H14       1.0  0.5697741455717276  0.6344822803694965  0.5681569303677065  1.0000
  H   H15       1.0  0.4653825154686829  0.1940480951661314  0.5041603364225367  1.0000
  H   H16       1.0  0.5346186323580256  0.8059498754592481  0.4958391939891769  1.0000
  H   H17       1.0  0.6514587639148104  0.3720547320795404  0.5231744764644759  1.0000
  H   H18       1.0  0.34854130476530554  0.6279454214718925  0.4768257401570252  1.0000
  H   H19       1.0  0.6261395091108921  0.1941748981417248  0.6839394549370964  1.0000
  H   H20       1.0  0.37386004161379555  0.8058241662550287  0.3160590162410912  1.0000
  H   H21       1.0  0.13618690629152047  0.9372639165752188  0.6990578790773795  1.0000
  H   H22       1.0  0.8638125916691805  0.0627395068127186  0.3009428965190111  1.0000
  H   H23       1.0  0.13909947963347952  0.12817991870269904  0.5363241849775021  1.0000
  H   H24       1.0  0.8608989727088101  0.8718235097988585  0.46367752912826177  1.0000
  H   H25       1.0  0.09867948623858082  0.5985355763195981  0.2937682263403474  1.0000
  H   H26       1.0  0.9013242707803928  0.4014634732332283  0.7062311724959471  1.0000
  H   H27       1.0  0.14503065954727407  0.7506951905378186  0.1169590400383456  1.0000
  H   H28       1.0  0.8549709727066883  0.2493060470546737  0.8830419835171099  1.0000
  H   H29       1.0  0.7746036791856951  0.7341214929711768  0.8960606480134528  1.0000
  H   H30       1.0  0.22539637025861484  0.2658808417590137  0.10394212532583678  1.0000
  H   H31       1.0  0.7467352084775243  0.5799628299032022  0.08179461152158748  1.0000
  H   H32       1.0  0.2532653446298454  0.4200405906153364  0.9182070982436699  1.0000
  H   H33       1.0  0.09035290737000418  0.8633376779028765  0.8970646095063586  1.0000
  H   H34       1.0  0.9096486818275409  0.1366657352578216  0.10293428907128539  1.0000
  H   H35       1.0  0.7506204598391548  0.9449783082668473  0.8015377465426636  1.0000
  H   H36       1.0  0.24937855369429937  0.05502184815397731  0.19846153590997767  1.0000
  C   C1        1.0  0.6195102247013863  0.4485984097626599  0.2574623007170729  1.0000
  C   C2        1.0  0.380485608920388  0.5514039375672295  0.7425376722858628  1.0000
  C   C3        1.0  0.48014139029208275  0.43688653530711014  0.1968751201403691  1.0000
  C   C4        1.0  0.5198549757568074  0.5631147188765907  0.8031231052489929  1.0000
  C   C5        1.0  0.514301108072864  0.2803271422932525  0.19709953561429217  1.0000
  C   C6        1.0  0.48569898937130773  0.7196708323236365  0.8028999969676676  1.0000
  C   C7        1.0  0.5772594714554203  0.20960905989772266  0.09136593127784207  1.0000
  C   C8        1.0  0.42273794974013157  0.7903921914165791  0.9086332282803937  1.0000
  C   C9        1.0  0.6157303128919692  0.063529484399993  0.0892721760202662  1.0000
  C   C10       1.0  0.3842697510240215  0.9364706680293292  0.9107271042621221  1.0000
  C   C11       1.0  0.5932669170742887  0.9842896019800945  0.1951479084674119  1.0000
  C   C12       1.0  0.40673264317864266  0.015709464660872596  0.8048524353890087  1.0000
  C   C13       1.0  0.5307711145033025  0.05368661024347431  0.3005455366545319  1.0000
  C   C14       1.0  0.46923109323419976  0.9463113586346168  0.699455864265161  1.0000
  C   C15       1.0  0.4902349262742901  0.20092403435346276  0.3035544637605837  1.0000
  C   C16       1.0  0.5097635693037291  0.7990750329126894  0.69644307324873  1.0000
  C   C17       1.0  0.4133472499777469  0.27080949777961644  0.41720350437512366  1.0000
  C   C18       1.0  0.5866533558936026  0.7291895637477381  0.5827959009719237  1.0000
  C   C19       1.0  0.23583257529779192  0.3180618563663202  0.41427109623888464  1.0000
  C   C20       1.0  0.76416752214638  0.6819361182505687  0.5857284363430821  1.0000
  C   C21       1.0  0.7559276297952238  0.2735556773908385  0.5633266119553184  1.0000
  C   C22       1.0  0.24407088007516367  0.7264433932416381  0.4366737340713556  1.0000
  C   C23       1.0  0.7428794385084956  0.1725718266280154  0.6530804344818505  1.0000
  C   C24       1.0  0.25712116736285406  0.8274272348993391  0.3469189708651967  1.0000
  C   C25       1.0  0.8798234469042469  0.04853181578813799  0.7062690857842637  1.0000
  C   C26       1.0  0.12017611334869127  0.9514672508528292  0.2937312580721638  1.0000
  C   C27       1.0  0.0258532245557603  0.032494168879303204  0.6633823109738157  1.0000
  C   C28       1.0  0.9741483981699516  0.9675070664689684  0.3366168399034066  1.0000
  C   C29       1.0  0.028244888556699328  0.13775278173446986  0.5720669298183765  1.0000
  C   C30       1.0  0.9717546429321756  0.8622484638410411  0.4279340980775927  1.0000
  C   C31       1.0  0.029708891029152147  0.630886400505851  0.20389246936306898  1.0000
  C   C32       1.0  0.9702937868432286  0.36911483197302897  0.7961076156830201  1.0000
  C   C33       1.0  0.05478399736480108  0.7156715530205132  0.1052405611247522  1.0000
  C   C34       1.0  0.9452181720803948  0.2843285925479009  0.8947596511562492  1.0000
  C   C35       1.0  0.9596430390943451  0.7605169696718336  0.9923068559410169  1.0000
  C   C36       1.0  0.040358597923742016  0.2394842690427623  0.007695103953565808  1.0000
  C   C37       1.0  0.8467388566485424  0.7095396462063662  0.9833499628617942  1.0000
  C   C38       1.0  0.15326172998700124  0.29046159649973896  0.0166519992030345  1.0000
  C   C39       1.0  0.8311669216002572  0.6231407787573886  0.0860347983041407  1.0000
  C   C40       1.0  0.16883417346247143  0.3768615508591822  0.9139670365257754  1.0000
  C   C41       1.0  0.9785500960255505  0.8584699744418457  0.8929619522849774  1.0000
  C   C42       1.0  0.021448409080711932  0.14152909506852038  0.1070374574025763  1.0000
  C   C43       1.0  0.8648197774518921  0.9456525849023193  0.8027962825482219  1.0000
  C   C44       1.0  0.13518508729841727  0.05434428845711639  0.1972080481129908  1.0000
  N   N1        1.0  0.9191797920834615  0.5855255291444904  0.19576723208040656  1.0000
  N   N2        1.0  0.08082396969963673  0.4144735215304464  0.8042331030950081  1.0000
  N   N3        1.0  0.8960167234726127  0.2567618202884389  0.5222846419573699  1.0000
  N   N4        1.0  0.1039817528696077  0.7432394281564711  0.4777154517697254  1.0000
  O   O1        1.0  0.59313637725527  0.5385492856567923  0.3360155159760226  1.0000
  O   O2        1.0  0.4068605402772222  0.46145087986916167  0.6639847071562386  1.0000
  O   O3        1.0  0.7572189938882798  0.36506259138418773  0.2245579970077003  1.0000
  O   O4        1.0  0.24277733863242917  0.6349408406119393  0.775439976082083  1.0000
  O   O5        1.0  0.17372064148931096  0.2818069216087906  0.32871957443481387  1.0000
  O   O6        1.0  0.8262789187636201  0.7181921450321764  0.6712807694216139  1.0000
  O   O7        1.0  0.15500404359523418  0.39167008706276357  0.4991138463460842  1.0000
  O   O8        1.0  0.8449981593781429  0.608327880693224  0.500886618234496  1.0000
