data_image0
_chemical_formula_structural       Zn10H24C72N36Cl8O12
_chemical_formula_sum              "Zn10 H24 C72 N36 Cl8 O12"
_cell_length_a       22.09088639003908
_cell_length_b       22.0908786141355
_cell_length_c       22.090849122535907
_cell_angle_alpha    59.99997044460048
_cell_angle_beta     60.00000092876205
_cell_angle_gamma    59.99989166909281

_space_group_name_H-M_alt    "P 1"
_space_group_IT_number       1

loop_
  _space_group_symop_operation_xyz
  'x, y, z'

loop_
  _atom_site_type_symbol
  _atom_site_label
  _atom_site_symmetry_multiplicity
  _atom_site_fract_x
  _atom_site_fract_y
  _atom_site_fract_z
  _atom_site_occupancy
  Zn  Zn1       1.0  0.5511409166294  0.8162871861949835  0.8162861854314657  1.0000
  Zn  Zn2       1.0  0.8162865034827151  0.8162877509308114  0.8162874507377893  1.0000
  Zn  Zn3       1.0  0.8162858645939934  0.8162862821849469  0.5511412285921439  1.0000
  Zn  Zn4       1.0  0.8162866104990981  0.5511408385098732  0.8162868114499772  1.0000
  Zn  Zn5       1.0  0.1837140116497338  0.18371408864219058  0.18371343714611751  1.0000
  Zn  Zn6       1.0  0.44885859793637195  0.18371365281070234  0.1837144859390634  1.0000
  Zn  Zn7       1.0  0.1837132038160475  0.18371411066459584  0.44885978067893023  1.0000
  Zn  Zn8       1.0  0.1837138094188261  0.44885909514322003  0.18371385992089984  1.0000
  Zn  Zn9       1.0  0.7500002143626288  0.750000528678278  0.7500011344899138  1.0000
  Zn  Zn10      1.0  0.24999919846828075  0.24999930323994587  0.24999898246684887  1.0000
  H   H1        1.0  0.45994841582916707  0.6898084693232533  0.9251298379884434  1.0000
  H   H2        1.0  0.9251135697565473  0.9251294154547903  0.6898098673549955  1.0000
  H   H3        1.0  0.9251276350233514  0.9251154802471144  0.45994976276968896  1.0000
  H   H4        1.0  0.6898080811496285  0.4599501207571349  0.9251157456467426  1.0000
  H   H5        1.0  0.6898081675687989  0.9251296026915197  0.4599483486314214  1.0000
  H   H6        1.0  0.925129271957708  0.6898094844413477  0.9251138352130186  1.0000
  H   H7        1.0  0.9251160644813796  0.45994986405423066  0.9251269752394151  1.0000
  H   H8        1.0  0.4599499352567947  0.9251157453439304  0.6898085519995334  1.0000
  H   H9        1.0  0.9251305428255563  0.45994811306336897  0.6898082794132564  1.0000
  H   H10       1.0  0.6898092774535127  0.9251142837760395  0.9251296094847703  1.0000
  H   H11       1.0  0.45994981133956964  0.9251273240116757  0.9251158171775633  1.0000
  H   H12       1.0  0.925116090493134  0.6898082050002043  0.4599496016708002  1.0000
  H   H13       1.0  0.07488400618682792  0.3101924432191083  0.07487309272900694  1.0000
  H   H14       1.0  0.5400499385603511  0.07487368332849088  0.31019208221675143  1.0000
  H   H15       1.0  0.3101915225955381  0.07488589755592996  0.540051900605107  1.0000
  H   H16       1.0  0.0748710249728433  0.5400512247651292  0.07488642585796869  1.0000
  H   H17       1.0  0.07488512192402648  0.07487144056859306  0.5400521388211601  1.0000
  H   H18       1.0  0.5400522129010881  0.3101916731380284  0.0748859393112015  1.0000
  H   H19       1.0  0.31019184894859114  0.5400502284317381  0.07487391175832403  1.0000
  H   H20       1.0  0.0748726706266041  0.07488349923360717  0.31019255693082215  1.0000
  H   H21       1.0  0.07488633598881479  0.5400519831497518  0.3101912940285203  1.0000
  H   H22       1.0  0.5400520733547367  0.07488584400745421  0.07487181826989094  1.0000
  H   H23       1.0  0.3101926672422834  0.07487268900932516  0.07488416122754414  1.0000
  H   H24       1.0  0.07487389447856439  0.3101921579318512  0.5400499871310346  1.0000
  C   C1        1.0  0.5814786765631087  0.6455750874482502  0.8864781728984924  1.0000
  C   C2        1.0  0.886469881307242  0.8864793749336427  0.6455748147988061  1.0000
  C   C3        1.0  0.8864731287446048  0.8864717763906284  0.5814813198004458  1.0000
  C   C4        1.0  0.6455747905571486  0.5814796438324374  0.8864730604996822  1.0000
  C   C5        1.0  0.6455746650740295  0.8864775337635179  0.5814782421484567  1.0000
  C   C6        1.0  0.886478461333411  0.6455753476089042  0.8864694537044643  1.0000
  C   C7        1.0  0.88647181885041  0.5814815046092079  0.8864721730217371  1.0000
  C   C8        1.0  0.5814793480912214  0.8864720699878177  0.6455752286825743  1.0000
  C   C9        1.0  0.886477998380073  0.5814777938550861  0.6455752578450671  1.0000
  C   C10       1.0  0.6455755738145755  0.8864702074867452  0.8864786154365731  1.0000
  C   C11       1.0  0.5814806718358697  0.8864733251421694  0.8864715314775683  1.0000
  C   C12       1.0  0.8864729508850003  0.6455744507609822  0.5814791332029189  1.0000
  C   C13       1.0  0.11352814215196352  0.3544244321481358  0.11352796004931781  1.0000
  C   C14       1.0  0.41851996300482597  0.11352675484294383  0.354424333860436  1.0000
  C   C15       1.0  0.35442494381135964  0.11352973703060332  0.4185225560557982  1.0000
  C   C16       1.0  0.11352193874264323  0.41852263094600767  0.11353040436315352  1.0000
  C   C17       1.0  0.11352908311724254  0.11352270638513316  0.4185230105082097  1.0000
  C   C18       1.0  0.4185219018885816  0.35442500473644867  0.11353049759401303  1.0000
  C   C19       1.0  0.35442578245766754  0.41852044291806567  0.11352619585151288  1.0000
  C   C20       1.0  0.11352636189624822  0.11352815158717522  0.35442521247741615  1.0000
  C   C21       1.0  0.11353083578971725  0.4185224058817453  0.3544250493659079  1.0000
  C   C22       1.0  0.418522508179521  0.11353027396501142  0.11352215992095435  1.0000
  C   C23       1.0  0.35442424675644457  0.11352731611185614  0.11352839181447649  1.0000
  C   C24       1.0  0.11352653849435497  0.3544254577059433  0.4185202762440099  1.0000
  C   C25       1.0  0.5097419352413792  0.6409547953609689  0.9246573558787078  1.0000
  C   C26       1.0  0.9246448324353833  0.9246570703033539  0.6409558384677112  1.0000
  C   C27       1.0  0.9246551143185469  0.9246483771494379  0.5097381182485917  1.0000
  C   C28       1.0  0.6409608571767933  0.5097383215077185  0.9246476866741562  1.0000
  C   C29       1.0  0.6409544304837669  0.924657864529493  0.5097412602492285  1.0000
  C   C30       1.0  0.9246570580203228  0.640957938878216  0.924644761344503  1.0000
  C   C31       1.0  0.9246480687960952  0.509738901069646  0.9246546029025923  1.0000
  C   C32       1.0  0.509738502014322  0.9246482335096714  0.6409597897907489  1.0000
  C   C33       1.0  0.9246586516224087  0.5097414165082412  0.6409541754424026  1.0000
  C   C34       1.0  0.6409565113970572  0.9246453416609625  0.9246568261194242  1.0000
  C   C35       1.0  0.5097382004252252  0.9246550939660801  0.9246488762805285  1.0000
  C   C36       1.0  0.9246484508142674  0.6409603140361141  0.5097381077242745  1.0000
  C   C37       1.0  0.07535103801834711  0.3590406173770758  0.07534573040730663  1.0000
  C   C38       1.0  0.49026207841573927  0.07534642853985216  0.35903989414048004  1.0000
  C   C39       1.0  0.3590448078994157  0.07535356252571289  0.4902590786664264  1.0000
  C   C40       1.0  0.07534336922980599  0.4902583881515383  0.07535436833268959  1.0000
  C   C41       1.0  0.07535455053904634  0.0753435997499778  0.4902584928712486  1.0000
  C   C42       1.0  0.49026021122858754  0.3590450541373328  0.0753527613425717  1.0000
  C   C43       1.0  0.35904051954955923  0.49026166360366813  0.07534643230369654  1.0000
  C   C44       1.0  0.07534583958821627  0.07535122250313006  0.35904178634689293  1.0000
  C   C45       1.0  0.07535433880588742  0.4902584127267246  0.3590456724817345  1.0000
  C   C46       1.0  0.49025789639024714  0.07535500222677884  0.07534373799621363  1.0000
  C   C47       1.0  0.3590413406422854  0.0753456866407944  0.07535143760848942  1.0000
  C   C48       1.0  0.0753466975029369  0.35903978012894555  0.4902615762048441  1.0000
  C   C49       1.0  0.5055764481320183  0.5702712221944991  0.96207812245315  1.0000
  C   C50       1.0  0.9620745386282722  0.9620777694390197  0.5702728545845093  1.0000
  C   C51       1.0  0.9620778703255651  0.9620765927966556  0.5055757511611463  1.0000
  C   C52       1.0  0.5702696165833602  0.5055759572057283  0.9620763313233385  1.0000
  C   C53       1.0  0.5702716062331138  0.9620786290658853  0.5055766446079633  1.0000
  C   C54       1.0  0.9620790811277755  0.5702718135534607  0.9620758654305633  1.0000
  C   C55       1.0  0.9620771042732201  0.5055742391814202  0.9620777769196069  1.0000
  C   C56       1.0  0.5055761515744029  0.9620768972629603  0.5702700376519376  1.0000
  C   C57       1.0  0.9620783744348955  0.5055756209040894  0.5702723697646732  1.0000
  C   C58       1.0  0.5702716263493882  0.9620758031425396  0.9620793717010515  1.0000
  C   C59       1.0  0.505575722362174  0.9620772618426443  0.9620767384392082  1.0000
  C   C60       1.0  0.9620775573016473  0.5702704197073202  0.5055749809366574  1.0000
  C   C61       1.0  0.03792237767817141  0.42973006434177546  0.03792237721881257  1.0000
  C   C62       1.0  0.4944250589201218  0.03792292161497083  0.4297294035040836  1.0000
  C   C63       1.0  0.4297283601138134  0.03792628313203739  0.4944239370834325  1.0000
  C   C64       1.0  0.03792219368789063  0.4944245725132814  0.037925692781897204  1.0000
  C   C65       1.0  0.03792465987582013  0.03792092437755901  0.4944263352302941  1.0000
  C   C66       1.0  0.4944243030718313  0.4297281373912155  0.03792556376190966  1.0000
  C   C67       1.0  0.42973101993922574  0.4944260037583559  0.03792154171656391  1.0000
  C   C68       1.0  0.0379232865290859  0.03792319086198148  0.4297293849012505  1.0000
  C   C69       1.0  0.03792710057333416  0.49442393572699916  0.4297275044189988  1.0000
  C   C70       1.0  0.49442502241561936  0.037924807376455844  0.03792202691519011  1.0000
  C   C71       1.0  0.42972982021654355  0.03792153574810443  0.037922867786114936  1.0000
  C   C72       1.0  0.03792346186889965  0.42973011319932636  0.49442393751399294  1.0000
  N   N1        1.0  0.6055928262522627  0.705071354294219  0.8446731236886508  1.0000
  N   N2        1.0  0.8446630274782193  0.8446733800917838  0.7050724918685634  1.0000
  N   N3        1.0  0.8446704962788585  0.8446654862273205  0.6055924654406157  1.0000
  N   N4        1.0  0.7050725950020296  0.6055926977175116  0.8446659025473623  1.0000
  N   N5        1.0  0.7050734859747295  0.8446710456367795  0.6055924640248521  1.0000
  N   N6        1.0  0.8446714681049273  0.7050736808972076  0.844663370114411  1.0000
  N   N7        1.0  0.8446647144693032  0.6055931116987024  0.844670365533439  1.0000
  N   N8        1.0  0.6055921774167531  0.84466435964503  0.7050733857182507  1.0000
  N   N9        1.0  0.8446715128741004  0.6055918016819246  0.7050737905130473  1.0000
  N   N10       1.0  0.7050739404749818  0.8446632838892894  0.8446718638099854  1.0000
  N   N11       1.0  0.6055934358965657  0.8446701051426969  0.8446652301316464  1.0000
  N   N12       1.0  0.844664397722795  0.7050730160502425  0.6055929142876338  1.0000
  N   N13       1.0  0.15533544157423052  0.2949264050546319  0.15533121360000732  1.0000
  N   N14       1.0  0.39440743415338625  0.15532933354349146  0.294927681523923  1.0000
  N   N15       1.0  0.29492683693882793  0.15533603383347835  0.3944078114743804  1.0000
  N   N16       1.0  0.15532887778682888  0.39440633175452416  0.15533762370893098  1.0000
  N   N17       1.0  0.15533543230036173  0.15532909185893837  0.3944074984225381  1.0000
  N   N18       1.0  0.3944084027198115  0.2949266723530286  0.1553364074101324  1.0000
  N   N19       1.0  0.29492754499197826  0.3944069560129008  0.15532978454589141  1.0000
  N   N20       1.0  0.15533021313033396  0.1553356705956261  0.2949267961882001  1.0000
  N   N21       1.0  0.15533740436447366  0.39440757577116853  0.2949261470888089  1.0000
  N   N22       1.0  0.3944072063457114  0.1553372936584267  0.15532830816973586  1.0000
  N   N23       1.0  0.29492598272582166  0.1553307209282409  0.1553357875341348  1.0000
  N   N24       1.0  0.1553296604386176  0.29492779866368574  0.3944065848364815  1.0000
  N   N25       1.0  0.6795581143257151  0.6795592643583316  0.8204426936540088  1.0000
  N   N26       1.0  0.8204404019603972  0.8204425966159332  0.6795590209113557  1.0000
  N   N27       1.0  0.6795602554134986  0.8204406608126716  0.6795589804086292  1.0000
  N   N28       1.0  0.8204411235055955  0.6795595360336717  0.8204409812373898  1.0000
  N   N29       1.0  0.8204411269322025  0.6795586742210985  0.6795600807130242  1.0000
  N   N30       1.0  0.6795596527342694  0.8204409233716985  0.8204416338532213  1.0000
  N   N31       1.0  0.1795593029326596  0.3204394987869748  0.17956002803421717  1.0000
  N   N32       1.0  0.3204402410528644  0.1795593493891302  0.3204409834524143  1.0000
  N   N33       1.0  0.17955854515377467  0.17955948564346605  0.32044042024377734  1.0000
  N   N34       1.0  0.3204415980843791  0.3204399617861924  0.1795588383226203  1.0000
  N   N35       1.0  0.17955910818207582  0.32044107462827737  0.320440405853212  1.0000
  N   N36       1.0  0.32043940915543356  0.17956036831028394  0.1795590375171301  1.0000
  Cl  Cl1       1.0  0.43077337822514045  0.8564168542317034  0.856405217166291  1.0000
  Cl  Cl2       1.0  0.8564065012139394  0.8564077654737685  0.8564147219855728  1.0000
  Cl  Cl3       1.0  0.856405936324236  0.8564064164255354  0.4307725420103878  1.0000
  Cl  Cl4       1.0  0.8564144743298671  0.43077413263676295  0.8564062436220754  1.0000
  Cl  Cl5       1.0  0.14359345298723267  0.14359441852050733  0.1435852735836747  1.0000
  Cl  Cl6       1.0  0.5692280170730372  0.14358314944994524  0.143594408794371  1.0000
  Cl  Cl7       1.0  0.14359381440721114  0.14359375339381578  0.5692263447313479  1.0000
  Cl  Cl8       1.0  0.14358448582497363  0.5692261519577498  0.14359387333451673  1.0000
  O   O1        1.0  0.4358057014677998  0.5641931671001428  1.4162291534656145e-06  1.0000
  O   O2        1.0  6.98320967102554e-07  0.9999996976905264  0.5641933739369449  1.0000
  O   O3        1.0  3.0674560467927956e-07  0.9999993426713728  0.43580493835374057  1.0000
  O   O4        1.0  0.5641948489837458  0.4358053711143341  6.056495748728258e-07  1.0000
  O   O5        1.0  0.5641945705986872  2.589496659678696e-06  0.4358047635770178  1.0000
  O   O6        1.0  0.9999989716230289  0.5641945802410216  0.9999999640236441  1.0000
  O   O7        1.0  0.9999993177548774  0.4358050514113856  6.79075895811702e-07  1.0000
  O   O8        1.0  0.43580517888934633  2.0404758699083736e-06  0.5641954323015383  1.0000
  O   O9        1.0  2.499925990519909e-06  0.43580471842717117  0.5641943701779015  1.0000
  O   O10       1.0  0.564194389648847  0.9999995972100063  0.9999994891165117  1.0000
  O   O11       1.0  0.4358053231097328  0.9999996946498726  6.440439860073891e-07  1.0000
  O   O12       1.0  1.9339817640025694e-06  0.5641958747062643  0.4358047285456408  1.0000
