data_image0
_chemical_formula_structural       Cd4H48C40N20O24
_chemical_formula_sum              "Cd4 H48 C40 N20 O24"
_cell_length_a       7.6024194416474575
_cell_length_b       7.32714762222433
_cell_length_c       26.218013533286037
_cell_angle_alpha    90.00042605748503
_cell_angle_beta     89.99955888217193
_cell_angle_gamma    109.25565944346891

_space_group_name_H-M_alt    "P 1"
_space_group_IT_number       1

loop_
  _space_group_symop_operation_xyz
  'x, y, z'

loop_
  _atom_site_type_symbol
  _atom_site_label
  _atom_site_symmetry_multiplicity
  _atom_site_fract_x
  _atom_site_fract_y
  _atom_site_fract_z
  _atom_site_occupancy
  Cd  Cd1       1.0  0.3109371085997523  0.0062932203380939  0.1508482350635276  1.0000
  Cd  Cd2       1.0  0.18905644221913312  0.9937039249396448  0.6508468367677623  1.0000
  Cd  Cd3       1.0  0.6890622867554016  0.9937040858295917  0.8491519203618766  1.0000
  Cd  Cd4       1.0  0.8109447545283854  0.006294779798530201  0.3491533186570662  1.0000
  H   H1        1.0  0.7496830845931298  0.3603113997526819  0.2161825774664905  1.0000
  H   H2        1.0  0.7503177433593322  0.6396895036393246  0.716184130740899  1.0000
  H   H3        1.0  0.25031751793235907  0.6396931773792147  0.7838191036336184  1.0000
  H   H4        1.0  0.2496904546235967  0.36031041427937543  0.283816787511654  1.0000
  H   H5        1.0  0.2427695695933565  0.3468556087436312  0.18054999517249834  1.0000
  H   H6        1.0  0.25721797793678985  0.653137936742226  0.6805492721032139  1.0000
  H   H7        1.0  0.7572360284680427  0.6531444018700581  0.8194505416659015  1.0000
  H   H8        1.0  0.7427770161198595  0.3468580635346471  0.319448976240011  1.0000
  H   H9        1.0  0.0421761163547245  0.188047237344513  0.16818260522074982  1.0000
  H   H10       1.0  0.45781097489087585  0.8119402339700131  0.6681806156213314  1.0000
  H   H11       1.0  0.957830187478109  0.8119585992828817  0.8318164059542357  1.0000
  H   H12       1.0  0.542185616247167  0.18805278375293713  0.3318161070484607  1.0000
  H   H13       1.0  0.6147040349704297  0.3554994094998563  0.12929627787087844  1.0000
  H   H14       1.0  0.8852922500501988  0.6445043635306149  0.629297921063241  1.0000
  H   H15       1.0  0.38529456184787125  0.6444993879409536  0.8707042589740936  1.0000
  H   H16       1.0  0.11470835249836847  0.35550021357832406  0.37070147153396255  1.0000
  H   H17       1.0  0.6853712536004294  0.1735501879180106  0.14116189999364082  1.0000
  H   H18       1.0  0.8146234921067544  0.8264538695373815  0.6411648368488017  1.0000
  H   H19       1.0  0.314626841788197  0.8264471646029036  0.8588386368504147  1.0000
  H   H20       1.0  0.18537581047143448  0.17355075392861613  0.35883531858420525  1.0000
  H   H21       1.0  0.28857996912259404  0.7835321688092945  0.030506987554197503  1.0000
  H   H22       1.0  0.21142182184263447  0.21647552001429907  0.5305104298844157  1.0000
  H   H23       1.0  0.7114210232985627  0.21646215481978  0.969493167866368  1.0000
  H   H24       1.0  0.7885848906313767  0.7835390788427857  0.4694897255505453  1.0000
  H   H25       1.0  0.9655955609419349  0.5873375089710322  0.1513790325441065  1.0000
  H   H26       1.0  0.5343955802187139  0.4126683374425966  0.6513821281145908  1.0000
  H   H27       1.0  0.03439783603332101  0.41266147385974966  0.8486207414725655  1.0000
  H   H28       1.0  0.4656055237326057  0.5873376846130256  0.34861993440358663  1.0000
  H   H29       1.0  0.8662112573341288  0.9405097491663739  0.1028632440649559  1.0000
  H   H30       1.0  0.6337834623657912  0.059495031148578896  0.6028646307984076  1.0000
  H   H31       1.0  0.13378453522475547  0.05948475987180052  0.8971380556130555  1.0000
  H   H32       1.0  0.36621333309091847  0.9405023676911314  0.3971328547099375  1.0000
  H   H33       1.0  0.6873933437539249  0.8256176571712646  0.9776420337317973  1.0000
  H   H34       1.0  0.8126062958224196  0.17437371829524304  0.477643772923777  1.0000
  H   H35       1.0  0.31260705447597553  0.17438253882091465  0.0223565960268459  1.0000
  H   H36       1.0  0.18739599656911574  0.8256205589767732  0.5223556196609849  1.0000
  H   H37       1.0  0.6104721704548837  0.7932908484958788  0.0426254053138493  1.0000
  H   H38       1.0  0.8895305611990876  0.2067095553192075  0.5426269042906711  1.0000
  H   H39       1.0  0.3895248292935705  0.2067109314873719  0.9573755129531136  1.0000
  H   H40       1.0  0.11047583538377381  0.7932889640366555  0.45737477679675465  1.0000
  H   H41       1.0  0.6354941127843219  0.4525540885987454  0.0371345282049518  1.0000
  H   H42       1.0  0.8645043283105948  0.5474448991760996  0.5371356374034165  1.0000
  H   H43       1.0  0.3645031840636009  0.5474447551991305  0.9628667714758166  1.0000
  H   H44       1.0  0.13549686842922878  0.45255380556973535  0.4628652808557092  1.0000
  H   H45       1.0  0.6711924082750755  0.49133440968974895  0.9702769253835797  1.0000
  H   H46       1.0  0.8288049842819161  0.5086612917966491  0.47027664386080664  1.0000
  H   H47       1.0  0.3288074884982207  0.5086643414093146  0.029724374294190198  1.0000
  H   H48       1.0  0.17119621248868094  0.4913374129185755  0.5297212230611167  1.0000
  C   C1        1.0  0.8637381192014928  0.4884614126894107  0.2276411155297566  1.0000
  C   C2        1.0  0.6362598776875856  0.5115398133079267  0.7276438049722174  1.0000
  C   C3        1.0  0.1362541821335981  0.5115419976037145  0.7723590399098228  1.0000
  C   C4        1.0  0.3637444204034423  0.4884602436628144  0.2723574947019785  1.0000
  C   C5        1.0  0.04384429326753999  0.6925188282820828  0.3513007313829064  1.0000
  C   C6        1.0  0.4561612036861219  0.3074715290704263  0.851302669610611  1.0000
  C   C7        1.0  0.956160004835027  0.3074812286771902  0.6486994240398404  1.0000
  C   C8        1.0  0.5438381916651877  0.6925257771010821  0.1486978672319381  1.0000
  C   C9        1.0  0.1379849956478624  0.8113928051514991  0.2583158239886174  1.0000
  C   C10       1.0  0.3620169914707105  0.1886105066186587  0.7583177287014847  1.0000
  C   C11       1.0  0.8620150126940658  0.1886176443358494  0.7416835686152724  1.0000
  C   C12       1.0  0.6379847066987948  0.8113896430470718  0.2416831895585645  1.0000
  C   C13       1.0  0.15627999247998048  0.8036496593446216  0.0382018654568199  1.0000
  C   C14       1.0  0.3437178361512069  0.1963510056247983  0.538206496815171  1.0000
  C   C15       1.0  0.8437171000531265  0.19634480333267126  0.9617982899682361  1.0000
  C   C16       1.0  0.6562853662996486  0.8036534788082861  0.4617951842819394  1.0000
  C   C17       1.0  0.9801978010138084  0.6135308887861015  0.1922753527499381  1.0000
  C   C18       1.0  0.5197980121943431  0.3864726565521864  0.6922784272123579  1.0000
  C   C19       1.0  0.01979529885812779  0.386471030233885  0.8077244212700663  1.0000
  C   C20       1.0  0.4802007889387809  0.6135305220092135  0.3077232538883266  1.0000
  C   C21       1.0  0.02382657914487406  0.6808040592887823  0.2937811284175211  1.0000
  C   C22       1.0  0.47617259411072155  0.3192015016559183  0.7937838088262552  1.0000
  C   C23       1.0  0.9761734291932028  0.3192063902023961  0.7062186456035208  1.0000
  C   C24       1.0  0.5238291040549399  0.6807986480136352  0.20621749085093913  1.0000
  C   C25       1.0  0.9456198165457437  0.8862886648851641  0.0760445157648775  1.0000
  C   C26       1.0  0.5543750354583492  0.11370681513688653  0.5760454281208496  1.0000
  C   C27       1.0  0.054375177480139314  0.11370733542231193  0.9239567839155498  1.0000
  C   C28       1.0  0.44562545555235983  0.8862860635531573  0.4239528202130459  1.0000
  C   C29       1.0  0.6883519636970873  0.7460754611904364  0.0130402673133929  1.0000
  C   C30       1.0  0.8116408534480752  0.25391302144984  0.5130427998129506  1.0000
  C   C31       1.0  0.3116520373060041  0.25392753195421136  0.9869595066955412  1.0000
  C   C32       1.0  0.1883511319958657  0.7460743093420633  0.4869588812791009  1.0000
  C   C33       1.0  0.604822014015447  0.5290999518316611  0.0040253437946802  1.0000
  C   C34       1.0  0.8951858975521245  0.47090098340758146  0.5040262275620863  1.0000
  C   C35       1.0  0.3951683743894208  0.47089036147207264  0.9959736673821595  1.0000
  C   C36       1.0  0.10483851296977786  0.5291115216379227  0.4959739278509688  1.0000
  C   C37       1.0  0.295873467591008  0.9946297718307878  0.2726601717458905  1.0000
  C   C38       1.0  0.20413213004976427  0.005373688715273802  0.7726651046307325  1.0000
  C   C39       1.0  0.7041313319643264  0.005371730025423494  0.7273376951748816  1.0000
  C   C40       1.0  0.7958682681647459  0.9946265072922102  0.2273350507965191  1.0000
  N   N1        1.0  0.8870404594513914  0.5218824817088361  0.2775999049160376  1.0000
  N   N2        1.0  0.612956826834349  0.4781168104369299  0.7776029592803155  1.0000
  N   N3        1.0  0.11295594610965048  0.4781251706337031  0.7223991062718583  1.0000
  N   N4        1.0  0.38704516843848313  0.5218804030395958  0.22239795897638712  1.0000
  N   N5        1.0  0.12234775280133191  0.8914912024542402  0.08145050260672092  1.0000
  N   N6        1.0  0.37765590762144535  0.10851447957760033  0.5814544966858364  1.0000
  N   N7        1.0  0.8776444369766664  0.10850050943911783  0.9185504156552895  1.0000
  N   N8        1.0  0.6223548902906939  0.8914853456384649  0.41854604014657326  1.0000
  N   N9        1.0  0.11351048074967458  0.7727357520061918  0.20816594055118293  1.0000
  N   N10       1.0  0.38648471815002944  0.22726683169271675  0.7081678698830417  1.0000
  N   N11       1.0  0.8864831205634828  0.22726761192222258  0.7918326892182961  1.0000
  N   N12       1.0  0.6135130801314261  0.7727334570212252  0.2918330483814984  1.0000
  N   N13       1.0  0.011748081449916051  0.7458203222799186  0.006849477796329501  1.0000
  N   N14       1.0  0.48825167954898757  0.25417966730450564  0.5068535235982808  1.0000
  N   N15       1.0  0.9882494197397589  0.25418290261175963  0.993150296220101  1.0000
  N   N16       1.0  0.5117536213975598  0.7458232795098709  0.4931481574949076  1.0000
  N   N17       1.0  0.8790195331140608  0.7991761584705869  0.0318157495183584  1.0000
  N   N18       1.0  0.6209782167175605  0.20082421387538574  0.5318182174477499  1.0000
  N   N19       1.0  0.1209808650966053  0.20082403754071984  0.9681847873260381  1.0000
  N   N20       1.0  0.37902088153427377  0.7991760284815045  0.4681819379809938  1.0000
  O   O1        1.0  0.4040441009879671  0.0842532955094626  0.2374588917910572  1.0000
  O   O2        1.0  0.09595670975755864  0.9157525803477853  0.7374613557121279  1.0000
  O   O3        1.0  0.5959557030545284  0.915752772841998  0.7625378308885261  1.0000
  O   O4        1.0  0.9040444869861091  0.08424612439421961  0.26253918112984564  1.0000
  O   O5        1.0  0.1724797791917467  0.24577492433515155  0.1555007801125186  1.0000
  O   O6        1.0  0.327507976479005  0.7542210547879122  0.6555016330179555  1.0000
  O   O7        1.0  0.8275260232037097  0.7542294673799861  0.8444989938958471  1.0000
  O   O8        1.0  0.67248621904465  0.2457764367582627  0.3444966153276923  1.0000
  O   O9        1.0  0.13330798089138088  0.5912193681417222  0.3701539773864511  1.0000
  O   O10       1.0  0.36669993999624506  0.4087756559125212  0.8701593743937721  1.0000
  O   O11       1.0  0.8666984157222543  0.40877915118353064  0.6298446523637793  1.0000
  O   O12       1.0  0.633298452488006  0.5912187604268411  0.1298419252812337  1.0000
  O   O13       1.0  0.9640098362683174  0.791301495443463  0.37601716239095856  1.0000
  O   O14       1.0  0.5359902560912032  0.20869082363400795  0.8760183105472806  1.0000
  O   O15       1.0  0.035997563185453885  0.20869991374072328  0.6239833744468656  1.0000
  O   O16       1.0  0.46401043922663376  0.7913064361842644  0.1239818448766172  1.0000
  O   O17       1.0  0.592139805031664  0.2154583481825014  0.1228387671506965  1.0000
  O   O18       1.0  0.9078571116532853  0.7845467402271141  0.6228421727542044  1.0000
  O   O19       1.0  0.4078574918162587  0.7845404956153673  0.877162532530072  1.0000
  O   O20       1.0  0.0921434908798986  0.21545783689712292  0.3771587455116007  1.0000
  O   O21       1.0  0.3118252368927088  0.04349432246605289  0.3194857623992391  1.0000
  O   O22       1.0  0.18817921194361983  0.9565056964168335  0.8194881039764184  1.0000
  O   O23       1.0  0.688167658675951  0.9565032154218757  0.6805117231136109  1.0000
  O   O24       1.0  0.8118201834115267  0.04349160975084491  0.1805120514489857  1.0000
