data_image0
_chemical_formula_structural       La8H48C32S4O56
_chemical_formula_sum              "La8 H48 C32 S4 O56"
_cell_length_a       9.564542420000532
_cell_length_b       12.898196805193697
_cell_length_c       13.122645438506911
_cell_angle_alpha    110.23818556881913
_cell_angle_beta     90.0000297595926
_cell_angle_gamma    89.99996765914987

_space_group_name_H-M_alt    "P 1"
_space_group_IT_number       1

loop_
  _space_group_symop_operation_xyz
  'x, y, z'

loop_
  _atom_site_type_symbol
  _atom_site_label
  _atom_site_symmetry_multiplicity
  _atom_site_fract_x
  _atom_site_fract_y
  _atom_site_fract_z
  _atom_site_occupancy
  La  La1       1.0  0.33739932700478187  0.5423969350437828  0.6153769733041657  1.0000
  La  La2       1.0  0.8373991421310049  0.957602974180716  0.8846230233161377  1.0000
  La  La3       1.0  0.6626004055489999  0.4576037941583947  0.384623588690161  1.0000
  La  La4       1.0  0.1626005904229899  0.042396928705386486  0.1153772567490066  1.0000
  La  La5       1.0  0.1362356218758407  0.4469583745302116  0.8683531342801842  1.0000
  La  La6       1.0  0.6362386940465684  0.053041804424516684  0.6316471593323955  1.0000
  La  La7       1.0  0.8637609740927631  0.55304318098856  0.13164770964291245  1.0000
  La  La8       1.0  0.3637641750919088  0.9469589258354317  0.3683526409813281  1.0000
  H   H1        1.0  0.045092627085729496  0.35563357625481723  0.47033873978472235  1.0000
  H   H2        1.0  0.5450924213067978  0.14436718589826109  0.02966207484166008  1.0000
  H   H3        1.0  0.9549112875819715  0.6443646739984458  0.5296609764226118  1.0000
  H   H4        1.0  0.4549073112470551  0.855634368561695  0.9703395307628639  1.0000
  H   H5        1.0  0.8985835732882419  0.2888713262810825  0.5057987225136956  1.0000
  H   H6        1.0  0.3985839040661929  0.21112876495694627  0.9942016398910596  1.0000
  H   H7        1.0  0.10141929585065408  0.711127751346723  0.49420051394166364  1.0000
  H   H8        1.0  0.6014158284877951  0.7888711379291565  0.005798640174084783  1.0000
  H   H9        1.0  0.37371800901360064  0.2602532269165962  0.7807204412446112  1.0000
  H   H10       1.0  0.8737189136406514  0.23974687263524425  0.7192799146400121  1.0000
  H   H11       1.0  0.6262806780116535  0.739748328601827  0.2192804026787627  1.0000
  H   H12       1.0  0.12628186444166536  0.7602530302506878  0.2807203654252747  1.0000
  H   H13       1.0  0.3425946699870011  0.30970740295242644  0.6875326324430517  1.0000
  H   H14       1.0  0.8425956784078181  0.19029435963775398  0.8124682791388196  1.0000
  H   H15       1.0  0.6574040170384591  0.6902933262499217  0.3124679295511399  1.0000
  H   H16       1.0  0.15740509967407953  0.809707195880321  0.18753256478482422  1.0000
  H   H17       1.0  0.04069941422155669  0.13229220236560477  0.5087629376892197  1.0000
  H   H18       1.0  0.540698327438264  0.36770800959104827  0.9912365691904198  1.0000
  H   H19       1.0  0.9593024093892238  0.8677060489463033  0.49123601683682955  1.0000
  H   H20       1.0  0.45930035958699017  0.632293545927368  0.008764274732953862  1.0000
  H   H21       1.0  0.19844138186179802  0.20337384260378139  0.5072101431620624  1.0000
  H   H22       1.0  0.6984403492562025  0.29662714081064223  0.9927912103716923  1.0000
  H   H23       1.0  0.8015614872777873  0.7966235813335839  0.49278929111595454  1.0000
  H   H24       1.0  0.30155833776967  0.7033752378489595  0.007212200523909457  1.0000
  H   H25       1.0  0.11887022151111643  0.4500709881659475  0.25724689087463304  1.0000
  H   H26       1.0  0.6188691936278018  0.04992892300334259  0.2427536611683294  1.0000
  H   H27       1.0  0.8811295110431486  0.5499289136618656  0.7427541508715336  1.0000
  H   H28       1.0  0.3811305389261861  0.95007097988276  0.7572466188968222  1.0000
  H   H29       1.0  0.2653675767280745  0.3622482032269403  0.2149575636680154  1.0000
  H   H30       1.0  0.7653686046904725  0.13775000632784182  0.2850424629311945  1.0000
  H   H31       1.0  0.734631110298281  0.6377500459689003  0.7850429142196518  1.0000
  H   H32       1.0  0.2346332189206493  0.862249069183548  0.7149582968860598  1.0000
  H   H33       1.0  0.27064532476249786  0.6125663350781992  0.2553401524353873  1.0000
  H   H34       1.0  0.7706430007700291  0.8874324954994536  0.2446605694167729  1.0000
  H   H35       1.0  0.7293554533205721  0.3874327393750647  0.7446613690627473  1.0000
  H   H36       1.0  0.22935673178389496  0.1125665821288777  0.7553386670381812  1.0000
  H   H37       1.0  0.41224751513964003  0.5200709401759056  0.2047628078126991  1.0000
  H   H38       1.0  0.9122462039232316  0.9799261946573237  0.2952343405879175  1.0000
  H   H39       1.0  0.58775221741422  0.479927312194647  0.7952353850320577  1.0000
  H   H40       1.0  0.0877556196868667  0.0200704082556271  0.7047610033557062  1.0000
  H   H41       1.0  0.0776273226516437  0.7228370906447449  0.6995865566398577  1.0000
  H   H42       1.0  0.5776272120446891  0.7771637306934022  0.8004144154735754  1.0000
  H   H43       1.0  0.9223724099023514  0.2771628122413645  0.30041372342528666  1.0000
  H   H44       1.0  0.4223714749805652  0.22283782482502093  0.19958642844979832  1.0000
  H   H45       1.0  0.1227826956574347  0.674603618383088  0.7894499930019805  1.0000
  H   H46       1.0  0.6227824845532338  0.8253963625994061  0.7105499473418249  1.0000
  H   H47       1.0  0.8772170368962832  0.32539628556131817  0.21054952538214883  1.0000
  H   H48       1.0  0.377217248000548  0.1746043666027717  0.2894506146525018  1.0000
  C   C1        1.0  0.0986791299690424  0.1402303111512495  0.3569871152134283  1.0000
  C   C2        1.0  0.5986798902644636  0.3597712615174515  0.14301247203161443  1.0000
  C   C3        1.0  0.9013206025846116  0.8597687675353779  0.6430113595605107  1.0000
  C   C4        1.0  0.4013198422889062  0.6402311203168692  0.8569886538210767  1.0000
  C   C5        1.0  0.011729854243924398  0.30294724325271005  0.5157395403475675  1.0000
  C   C6        1.0  0.5117288898488752  0.19705380470609404  0.9842602408649129  1.0000
  C   C7        1.0  0.9882751059516152  0.6970518343747473  0.4842596961080759  1.0000
  C   C8        1.0  0.48827084270457277  0.8029461002966014  0.015738515838208265  1.0000
  C   C9        1.0  0.2763268205865543  0.4748138850080252  0.3765645020779616  1.0000
  C   C10       1.0  0.7763257255458668  0.025185147198918404  0.12343580932387253  1.0000
  C   C11       1.0  0.7236739574959684  0.5251851915618386  0.6234354960581427  1.0000
  C   C12       1.0  0.22367400700812107  0.9748147556871914  0.876564470741279  1.0000
  C   C13       1.0  0.0440011521829362  0.36069446316400894  0.633526170501824  1.0000
  C   C14       1.0  0.5440011918955534  0.13930657294628188  0.8664743808539371  1.0000
  C   C15       1.0  0.956000671427631  0.6393046144639669  0.36647306595340007  1.0000
  C   C16       1.0  0.4559995861863442  0.8606949825717936  0.1335264630697068  1.0000
  C   C17       1.0  0.0898172557365058  0.1925789688681334  0.4778690833695833  1.0000
  C   C18       1.0  0.5898148317748594  0.30742260570580976  0.022131263232303362  1.0000
  C   C19       1.0  0.9101856134026678  0.8074201077013754  0.522130914766791  1.0000
  C   C20       1.0  0.4101828097221372  0.6925797750705627  0.9778706243011258  1.0000
  C   C21       1.0  0.2332426576098143  0.44769827482254937  0.2596577608089206  1.0000
  C   C22       1.0  0.7332416262255279  0.052299945473684786  0.24034225736627232  1.0000
  C   C23       1.0  0.7667581204731917  0.5522999743729428  0.740342717079024  1.0000
  C   C24       1.0  0.26675810632867336  0.9476991310963496  0.7596577407696969  1.0000
  C   C25       1.0  0.2981584175368113  0.5268292002819308  0.20780628077369556  1.0000
  C   C26       1.0  0.7981560636533445  0.9731654948077376  0.29218923024193083  1.0000
  C   C27       1.0  0.7018423605456546  0.473165748940758  0.7921892609924442  1.0000
  C   C28       1.0  0.2018415778442204  0.026830279673248504  0.7078073551339941  1.0000
  C   C29       1.0  0.24389964816553797  0.5016200980713776  0.0937896568793732  1.0000
  C   C30       1.0  0.7439015394004612  0.9983787435647  0.4062095345980977  1.0000
  C   C31       1.0  0.7560969478036909  0.4983789784991827  0.906210341256184  1.0000
  C   C32       1.0  0.25610132973837096  0.0016195088053337  0.593788658247071  1.0000
  S   S1        1.0  0.5020010996208839  0.2503523139440986  0.4970770268429234  1.0000
  S   S2        1.0  0.0019989580213888  0.2496476363010629  0.0029234945546221702  1.0000
  S   S3        1.0  0.49800072398975453  0.7496475889416558  0.5029232532224981  1.0000
  S   S4        1.0  0.9979986834765026  0.7503522644687948  0.9970783088722825  1.0000
  O   O1        1.0  0.1340054392594325  0.4393976163585407  0.663449031483495  1.0000
  O   O2        1.0  0.6340055162503831  0.06060338965843209  0.836551543473078  1.0000
  O   O3        1.0  0.8659953388228844  0.5606022865273913  0.33655124858179153  1.0000
  O   O4        1.0  0.36599526183151443  0.9393981658596429  0.16344930045056558  1.0000
  O   O5        1.0  0.3974555766315859  0.33531249057610063  0.5593892681260684  1.0000
  O   O6        1.0  0.8974556506008541  0.1646884273551876  0.940611375912056  1.0000
  O   O7        1.0  0.6025441559219261  0.6646882396843734  0.44061053218725016  1.0000
  O   O8        1.0  0.10254408195341111  0.8353114744726184  0.05938966583410375  1.0000
  O   O9        1.0  0.1656828780429507  0.04793329068390759  0.31655925644080446  1.0000
  O   O10       1.0  0.6656815073949147  0.452067432207798  0.18344082812542692  1.0000
  O   O11       1.0  0.8343168545109734  0.9520657869444235  0.6834399800141496  1.0000
  O   O12       1.0  0.3343161341020178  0.5479341233108029  0.816560015797805  1.0000
  O   O13       1.0  0.6008494905874997  0.29713248223239924  0.4375065543074896  1.0000
  O   O14       1.0  0.10084951771719369  0.20286743496202317  0.06249399301023568  1.0000
  O   O15       1.0  0.39915024196648824  0.7028674206537104  0.5624937257576548  1.0000
  O   O16       1.0  0.8991502148365882  0.7971332942401546  0.9375065689840909  1.0000
  O   O17       1.0  0.40679830887764007  0.4753609220241231  0.4017141440233233  1.0000
  O   O18       1.0  0.9067982417248075  0.024638892875010792  0.09828648351988532  1.0000
  O   O19       1.0  0.5932014236766251  0.5246389798036829  0.5982868977228364  1.0000
  O   O20       1.0  0.0932025363572961  0.9753618363269894  0.9017140784745763  1.0000
  O   O21       1.0  0.4248860732050588  0.1562430672919319  0.41626595049135773  1.0000
  O   O22       1.0  0.9248857573853327  0.34375674155953106  0.08373468179477328  1.0000
  O   O23       1.0  0.5751147048775351  0.8437568345357036  0.5837350912549439  1.0000
  O   O24       1.0  0.0751129296408166  0.6562423339523845  0.9162660780220693  1.0000
  O   O25       1.0  0.9878247001819956  0.32882680478845566  0.705805992574092  1.0000
  O   O26       1.0  0.48782596277951734  0.17117408398563325  0.7941939134796456  1.0000
  O   O27       1.0  0.012175032371239103  0.6711739265303152  0.29419304605821145  1.0000
  O   O28       1.0  0.5121758608309149  0.8288266452161964  0.20580664851495103  1.0000
  O   O29       1.0  0.32127605026000333  0.45678530664680755  0.012227681441167761  1.0000
  O   O30       1.0  0.82128043086842  0.0432128873890676  0.4877700747756819  1.0000
  O   O31       1.0  0.6787195001802858  0.5432129467827451  0.9877697497220268  1.0000
  O   O32       1.0  0.1787245293262316  0.9567853681555079  0.5122258330267117  1.0000
  O   O33       1.0  0.11555685015794379  0.5262530846994622  0.07983122647083722  1.0000
  O   O34       1.0  0.6155587697991578  0.9737466240480542  0.42016973664396307  1.0000
  O   O35       1.0  0.8844407913396707  0.47374681712869904  0.9201698152750524  1.0000
  O   O36       1.0  0.384445144867641  0.026254106211723596  0.5798300636698954  1.0000
  O   O37       1.0  0.044966118783079906  0.18348741071514496  0.2930109600163036  1.0000
  O   O38       1.0  0.5449648662265929  0.31651335253869917  0.2069890928957534  1.0000
  O   O39       1.0  0.9550336137713201  0.8165108395388216  0.7069887561904836  1.0000
  O   O40       1.0  0.4550317297423518  0.6834890271795475  0.793013556318556  1.0000
  O   O41       1.0  0.1836700276160599  0.49710297516698876  0.4501963933463101  1.0000
  O   O42       1.0  0.6836699419001917  0.0028969153943450006  0.049803414007477904  1.0000
  O   O43       1.0  0.8163297049377222  0.5028977540351889  0.5498041686480165  1.0000
  O   O44       1.0  0.3163297906535902  0.997103813807833  0.950197147986856  1.0000
  O   O45       1.0  0.5794758362415919  0.21177164499851384  0.5749191306075403  1.0000
  O   O46       1.0  0.0794739688026382  0.28823020556706075  0.9250817119792814  1.0000
  O   O47       1.0  0.4205259873686344  0.7882299105193837  0.4250817133162457  1.0000
  O   O48       1.0  0.9205205361089099  0.7117730025842023  0.07491969580190272  1.0000
  O   O49       1.0  0.304878307579358  0.3043800991405163  0.7553664222568273  1.0000
  O   O50       1.0  0.8048792633425491  0.1956208497442304  0.7446341975059241  1.0000
  O   O51       1.0  0.6951203794456192  0.6956214574362034  0.2446336599855313  1.0000
  O   O52       1.0  0.1951215147398386  0.804379878399473  0.2553671261695597  1.0000
  O   O53       1.0  0.15169257254591167  0.6779506089530329  0.7182977803104864  1.0000
  O   O54       1.0  0.6516934605310282  0.8220493623631382  0.7817021676141777  1.0000
  O   O55       1.0  0.8483061144795486  0.3220501202493153  0.2817027816837054  1.0000
  O   O56       1.0  0.3483062720224837  0.17795136789733584  0.21829763269913363  1.0000
