data_image0
_chemical_formula_structural       Zn3H36C46N6O20
_chemical_formula_sum              "Zn3 H36 C46 N6 O20"
_cell_length_a       8.677922460596394
_cell_length_b       10.974958315237172
_cell_length_c       12.852784815430034
_cell_angle_alpha    75.84196346188908
_cell_angle_beta     70.85823661489724
_cell_angle_gamma    77.96157859294239

_space_group_name_H-M_alt    "P 1"
_space_group_IT_number       1

loop_
  _space_group_symop_operation_xyz
  'x, y, z'

loop_
  _atom_site_type_symbol
  _atom_site_label
  _atom_site_symmetry_multiplicity
  _atom_site_fract_x
  _atom_site_fract_y
  _atom_site_fract_z
  _atom_site_occupancy
  Zn  Zn1       1.0  1.215339615624996e-06  0.9999991104667171  0.49999953568799077  1.0000
  Zn  Zn2       1.0  0.7929335070863597  0.8567710467085732  0.19521566430525902  1.0000
  Zn  Zn3       1.0  0.20706741281561847  0.14322882088707434  0.8047805692501981  1.0000
  H   H1        1.0  0.013575719703098305  0.5669394298138213  0.34435694771222813  1.0000
  H   H2        1.0  0.9864229370920652  0.4330594840600951  0.6556399854041787  1.0000
  H   H3        1.0  0.16994977062386596  0.19272266126257878  0.4014506928255415  1.0000
  H   H4        1.0  0.8300544283494345  0.8072791411402275  0.5985490777986158  1.0000
  H   H5        1.0  0.2859614197801789  0.051621943234707084  0.4142697584510487  1.0000
  H   H6        1.0  0.7140404975635374  0.9483789252434319  0.585733823809221  1.0000
  H   H7        1.0  0.7950988827183847  0.9398128398852632  0.3604506967470515  1.0000
  H   H8        1.0  0.20490047123723085  0.060188918545065875  0.6395447000570799  1.0000
  H   H9        1.0  0.5983487348048582  0.9347232021940002  0.38465429081372804  1.0000
  H   H10       1.0  0.40164939053124016  0.06527856380296976  0.6153429301058538  1.0000
  H   H11       1.0  0.36329156426292997  0.22486269883956564  0.4685057251111857  1.0000
  H   H12       1.0  0.6367116048537794  0.7751381373256121  0.5314921429396832  1.0000
  H   H13       1.0  0.38732981785775417  0.6197536131747511  0.32358283366841073  1.0000
  H   H14       1.0  0.6126674347084274  0.38024625732371925  0.6764157601582497  1.0000
  H   H15       1.0  0.8096456038868421  0.3794213238287937  0.4033807616991042  1.0000
  H   H16       1.0  0.19035372228461256  0.6205804642971342  0.5966193032177642  1.0000
  H   H17       1.0  0.9388437531572718  0.36786072964115124  0.8966884839139128  1.0000
  H   H18       1.0  0.06115227078938546  0.6321391484239527  0.10331193402820564  1.0000
  H   H19       1.0  0.8211063739777342  0.4492534636252186  0.07870745248131081  1.0000
  H   H20       1.0  0.17889209794658006  0.5507464092051534  0.9212908732674733  1.0000
  H   H21       1.0  0.12891372649007582  0.14093994043187758  0.2229867691737866  1.0000
  H   H22       1.0  0.8710826486754967  0.8590580395173785  0.7770139755787397  1.0000
  H   H23       1.0  0.5018933452045715  0.6888011424438857  0.14761637637798944  1.0000
  H   H24       1.0  0.4981045767379015  0.31120160230660326  0.8523853492491256  1.0000
  H   H25       1.0  0.5993989546424032  0.6350724112440315  0.808514738610434  1.0000
  H   H26       1.0  0.40059567433666377  0.3649284135470977  0.19148578400434962  1.0000
  H   H27       1.0  0.44588972694073437  0.850439613785063  0.7564922785555908  1.0000
  H   H28       1.0  0.5541099458189506  0.1495602811742813  0.24350889119048  1.0000
  H   H29       1.0  0.2826846949306017  0.9937274279143294  0.24772447854052618  1.0000
  H   H30       1.0  0.7173161971872087  0.0062724693769169  0.7522764231276684  1.0000
  H   H31       1.0  0.3405830829304079  0.8306366936507813  0.249056480798572  1.0000
  H   H32       1.0  0.659422344662417  0.16936510118539155  0.7509414657101345  1.0000
  H   H33       1.0  0.6234121335842672  0.5561422499703992  0.00020972564420425864  1.0000
  H   H34       1.0  0.37658931777677646  0.44385476550220193  0.9997862201080779  1.0000
  H   H35       1.0  0.9276528618614319  0.33180962446123624  0.24186628463940715  1.0000
  H   H36       1.0  0.072344908271738  0.6681874087619945  0.7581343554404468  1.0000
  C   C1        1.0  0.43248260791788323  0.30495098483291366  0.43686436968904735  1.0000
  C   C2        1.0  0.5675191569698441  0.695050807956825  0.5631351590720755  1.0000
  C   C3        1.0  0.35785614995967296  0.42404362092276654  0.3939379338840681  1.0000
  C   C4        1.0  0.6421419429615653  0.5759581797190592  0.6060647331670453  1.0000
  C   C5        1.0  0.44661750939573597  0.5271049573559023  0.35492816685108153  1.0000
  C   C6        1.0  0.5533805927868869  0.4728968333873949  0.6450729441624504  1.0000
  C   C7        1.0  0.6101848789111911  0.5116531023555664  0.35584690383502965  1.0000
  C   C8        1.0  0.3898121841534489  0.48834773204863763  0.6441538606427956  1.0000
  C   C9        1.0  0.6833295894948035  0.3925170864660783  0.3994492981297527  1.0000
  C   C10       1.0  0.3166714828631639  0.6074818568179693  0.6005509889248586  1.0000
  C   C11       1.0  0.5950770005025701  0.2888517367564701  0.4396329097618406  1.0000
  C   C12       1.0  0.4049251109733801  0.7111481628666779  0.5603677238284847  1.0000
  C   C13       1.0  0.18732521541880934  0.4394546410097888  0.3856192552958362  1.0000
  C   C14       1.0  0.812676032548616  0.5605433532163387  0.614381195163979  1.0000
  C   C15       1.0  0.7076162336572481  0.6207704612431967  0.3071452884027934  1.0000
  C   C16       1.0  0.29237838606043437  0.379230373446468  0.6928567902495715  1.0000
  C   C17       1.0  0.6800690327990535  0.1615162979135221  0.482179417436548  1.0000
  C   C18       1.0  0.3199308109393895  0.8384826529371591  0.517822693733514  1.0000
  C   C19       1.0  0.9761823439838934  0.32002426685322394  0.9714465396809545  1.0000
  C   C20       1.0  0.02381734729856079  0.679975608309057  0.028551517989953427  1.0000
  C   C21       1.0  0.9124938296612511  0.3646623148532483  0.07214431801827463  1.0000
  C   C22       1.0  0.08750342290493755  0.635337555645229  0.9278542758083859  1.0000
  C   C23       1.0  0.08494024842872247  0.18991002582751546  0.15159092439900954  1.0000
  C   C24       1.0  0.9150639598059699  0.8100917666767625  0.8484072901875735  1.0000
  C   C25       1.0  0.13943784648739668  0.14875324398352058  0.049110754370005325  1.0000
  C   C26       1.0  0.8605639276617152  0.8512485389076825  0.9508872183535362  1.0000
  C   C27       1.0  0.250987216324944  0.0322408119623177  0.02429307956078469  1.0000
  C   C28       1.0  0.7490155923114584  0.9677619322172503  0.9757060177172578  1.0000
  C   C29       1.0  0.4012208572344349  0.8416181201563117  0.03401774849345428  1.0000
  C   C30       1.0  0.5987749818413731  0.1583827168652547  0.9659840620810342  1.0000
  C   C31       1.0  0.48658557500529986  0.722364481335674  0.06416102923157758  1.0000
  C   C32       1.0  0.5134116590381124  0.27763540895986677  0.9358406766702458  1.0000
  C   C33       1.0  0.54294249155177  0.6953998531101033  0.8707661017987932  1.0000
  C   C34       1.0  0.457060659042163  0.3046010028521379  0.12923487832723887  1.0000
  C   C35       1.0  0.4594356736375217  0.8148203085671141  0.8403235596193427  1.0000
  C   C36       1.0  0.5405653940897536  0.185178639666205  0.1596775054540629  1.0000
  C   C37       1.0  0.38805345931164237  0.8882070105905268  0.9238448433488032  1.0000
  C   C38       1.0  0.6119451743300529  0.11179192802971727  0.07615597986155359  1.0000
  C   C39       1.0  0.2630759733035434  0.9147734654183209  0.21757612646324992  1.0000
  C   C40       1.0  0.736923523846684  0.08522737859894387  0.7824248798776168  1.0000
  C   C41       1.0  0.08048861492608232  0.8940869651768111  0.2634796128023141  1.0000
  C   C42       1.0  0.9195171685163569  0.10591292659425018  0.7365178824980207  1.0000
  C   C43       1.0  0.556523950023049  0.6502914637882282  0.9804522070939896  1.0000
  C   C44       1.0  0.44347571810593667  0.3497084361203803  0.01954974067086828  1.0000
  C   C45       1.0  0.970566176310882  0.29945859876053044  0.16232325693533767  1.0000
  C   C46       1.0  0.029433510340879838  0.7005412813510146  0.8376755787543575  1.0000
  N   N1        1.0  0.2953445210319927  0.006915970145499298  0.920988409724842  1.0000
  N   N2        1.0  0.7046563757165172  0.9930839221964827  0.0790117139245583  1.0000
  N   N3        1.0  0.08731003606178686  0.21606230965635123  0.9602293221407407  1.0000
  N   N4        1.0  0.9126894749805102  0.7839385195131212  0.039769350143757404  1.0000
  N   N5        1.0  0.315756859676398  0.9357343792776475  0.0954924948349145  1.0000
  N   N6        1.0  0.6842436812225045  0.06426741612944649  0.9045080800228719  1.0000
  O   O1        1.0  0.11228783856466856  0.3490899359115786  0.40100258454176446  1.0000
  O   O2        1.0  0.8877175943055419  0.6509052181364723  0.598997551900041  1.0000
  O   O3        1.0  0.12513369545438016  0.559554907413407  0.35707537805397027  1.0000
  O   O4        1.0  0.8748665365485309  0.4404421057272926  0.6429208357761809  1.0000
  O   O5        1.0  0.6326126016900133  0.7269424184157953  0.26710458602318  1.0000
  O   O6        1.0  0.3673844521132422  0.2730584258869371  0.7328977344922194  1.0000
  O   O7        1.0  0.8576646149618341  0.6051146408440855  0.3026407498708252  1.0000
  O   O8        1.0  0.1423314089848304  0.3948852372210181  0.697359668071293  1.0000
  O   O9        1.0  0.8364373123731564  0.14969561030300574  0.45250298326544697  1.0000
  O   O10       1.0  0.1635625267345944  0.8503033454969466  0.5474999059234095  1.0000
  O   O11       1.0  0.5942503855922538  0.07454423674156627  0.5428891305273211  1.0000
  O   O12       1.0  0.40575086237517166  0.9254537574845612  0.457111319932494  1.0000
  O   O13       1.0  0.9995586902849707  0.9090969076870505  0.36222871620935143  1.0000
  O   O14       1.0  0.0004480550508248008  0.09090083304560888  0.6377708977891602  1.0000
  O   O15       1.0  0.025294758749779933  0.864337299802301  0.19443019697517624  1.0000
  O   O16       1.0  0.9747050889726763  0.13566828193797414  0.8055681682242125  1.0000
  O   O17       1.0  0.18774742093608401  0.10302919821507564  0.3914056170845869  1.0000
  O   O18       1.0  0.8122555308949229  0.8969726315514276  0.6085990897301913  1.0000
  O   O19       1.0  0.7033659146524157  0.9564420438750498  0.3262962774193029  1.0000
  O   O20       1.0  0.2966336102819652  0.04355877044662289  0.6737000608088194  1.0000
