data_image0
_chemical_formula_structural       CuH30C24N4O4
_chemical_formula_sum              "Cu1 H30 C24 N4 O4"
_cell_length_a       5.356089460228325
_cell_length_b       9.411013644549389
_cell_length_c       10.595190166165454
_cell_angle_alpha    94.96378855204523
_cell_angle_beta     87.0503401012426
_cell_angle_gamma    89.7207742507614

_space_group_name_H-M_alt    "P 1"
_space_group_IT_number       1

loop_
  _space_group_symop_operation_xyz
  'x, y, z'

loop_
  _atom_site_type_symbol
  _atom_site_label
  _atom_site_symmetry_multiplicity
  _atom_site_fract_x
  _atom_site_fract_y
  _atom_site_fract_z
  _atom_site_occupancy
  Cu  Cu1       1.0  0.5000038817774026  0.9999946958666328  0.5000020782038632  1.0000
  H   H1        1.0  0.9194167279839152  0.30472199625940977  0.9262214544402742  1.0000
  H   H2        1.0  0.0805744630831313  0.6952821814455418  0.07377826920335911  1.0000
  H   H3        1.0  0.6136161518240187  0.3828443305568499  0.9411313903123004  1.0000
  H   H4        1.0  0.3863803505321854  0.6171640832591124  0.058866422324484816  1.0000
  H   H5        1.0  0.7518846726846109  0.1383805998339582  0.0757494906174827  1.0000
  H   H6        1.0  0.24811006145739609  0.8616249979122016  0.924253976413489  1.0000
  H   H7        1.0  0.2583673115730035  0.5201001137286665  0.5905324720523312  1.0000
  H   H8        1.0  0.7416436118850602  0.47989498640606604  0.4094534539413957  1.0000
  H   H9        1.0  0.7231243771844266  0.21987138514188587  0.7274745906482991  1.0000
  H   H10       1.0  0.2768973209953671  0.7801259169685223  0.27252346850320924  1.0000
  H   H11       1.0  0.8802971985292274  0.6113158284254111  0.7104401003437604  1.0000
  H   H12       1.0  0.1197137315484511  0.38867841546340287  0.2895486465342003  1.0000
  H   H13       1.0  0.6307207411567008  0.492761885497096  0.7443098882455956  1.0000
  H   H14       1.0  0.36929024844364733  0.5072313638833492  0.25567978400751207  1.0000
  H   H15       1.0  0.9956623450384186  0.025339391574277698  0.6290284762876227  1.0000
  H   H16       1.0  0.004342328061000018  0.9746589603865555  0.37097465906201427  1.0000
  H   H17       1.0  0.3136826984998963  0.231532040812418  0.09464816475474441  1.0000
  H   H18       1.0  0.6863119827390634  0.7684736951961852  0.905357197785314  1.0000
  H   H19       1.0  0.20169893840961362  0.0594528209042764  0.11946256659317102  1.0000
  H   H20       1.0  0.7982974449282169  0.9405542260759534  0.8805456265848054  1.0000
  H   H21       1.0  0.8456208881420296  0.8855016526332162  0.10441738085819452  1.0000
  H   H22       1.0  0.15436819743369773  0.11450310731437702  0.8955909075814363  1.0000
  H   H23       1.0  0.5235377460062126  0.8498623993190364  0.1226622225008072  1.0000
  H   H24       1.0  0.4764548694052382  0.1501454931616166  0.877344167557695  1.0000
  H   H25       1.0  0.20600758863009364  0.6460761100196636  0.8478008706697153  1.0000
  H   H26       1.0  0.7939852648450557  0.3539311602799771  0.152196989597897  1.0000
  H   H27       1.0  0.27958721287436117  0.4650481640443117  0.8712347061873373  1.0000
  H   H28       1.0  0.7204148322420281  0.5349613640951102  0.12876207605896184  1.0000
  H   H29       1.0  0.5018429091217128  0.3073420737296572  0.4824894159065636  1.0000
  H   H30       1.0  0.4981743705549989  0.69264278634914  0.5174999722960437  1.0000
  C   C1        1.0  0.8121096274876579  0.40435466716665047  0.9559405802662868  1.0000
  C   C2        1.0  0.18788720552605304  0.5956512045827935  0.0440515010844464  1.0000
  C   C3        1.0  0.6035687385936724  0.07288899385262232  0.11636079769500182  1.0000
  C   C4        1.0  0.3964314060509224  0.9271180638731167  0.8836463777182008  1.0000
  C   C5        1.0  0.1938954301533401  0.4115395654351132  0.5998042155239461  1.0000
  C   C6        1.0  0.8061085700635079  0.588424696853309  0.40018407975650677  1.0000
  C   C7        1.0  0.8968290621550853  0.2468990463897498  0.6775613732022592  1.0000
  C   C8        1.0  0.10313816320548604  0.7530979270827769  0.3224490741520469  1.0000
  C   C9        1.0  0.8334540958452124  0.5092439115915043  0.7488262593356795  1.0000
  C   C10       1.0  0.1665456230740929  0.49074759306057564  0.2511721079802101  1.0000
  C   C11       1.0  0.046248975639706216  0.13620362319084484  0.6201470726199503  1.0000
  C   C12       1.0  0.9537583031368799  0.8637627504510164  0.37985444359327397  1.0000
  C   C13       1.0  0.3500302491122156  0.11703188591624779  0.0696794706759434  1.0000
  C   C14       1.0  0.6499663061739939  0.8829730337848006  0.9303286777432336  1.0000
  C   C15       1.0  0.6608330517032358  0.9154379094282208  0.07358698507988491  1.0000
  C   C16       1.0  0.33915964968240087  0.08456891941283119  0.926419382599221  1.0000
  C   C17       1.0  0.15353791746561277  0.5565612474845169  0.9035204024420268  1.0000
  C   C18       1.0  0.8464551542413334  0.44344461351942505  0.09647269667348012  1.0000
  C   C19       1.0  0.607119442462114  0.0990634177314291  0.260633686576945  1.0000
  C   C20       1.0  0.39288098655656256  0.9009403799443021  0.7393724739435259  1.0000
  C   C21       1.0  0.33053140191861274  0.2959378349022116  0.5410230575939892  1.0000
  C   C22       1.0  0.6694417696215638  0.7040550038270367  0.45898719522739395  1.0000
  C   C23       1.0  0.9731102598036969  0.388393740481014  0.6717586428058482  1.0000
  C   C24       1.0  0.0269186104732455  0.611608693924694  0.3282346494494703  1.0000
  N   N1        1.0  0.26069150049303863  0.16039488176537017  0.5538993776120408  1.0000
  N   N2        1.0  0.7393190129529476  0.8396029678295561  0.4460951229313679  1.0000
  N   N3        1.0  0.8922828546128587  0.5223023929761794  0.8831879215080962  1.0000
  N   N4        1.0  0.10771777277875573  0.47770256414162304  0.1168050152075608  1.0000
  O   O1        1.0  0.7484572590918148  0.18872372483406963  0.31391753266228056  1.0000
  O   O2        1.0  0.2515389721295449  0.8112862365400487  0.6860869366357036  1.0000
  O   O3        1.0  0.4543750030196563  0.0176026524104032  0.31996307851581923  1.0000
  O   O4        1.0  0.5456387625345371  0.9823973776691799  0.6800455907149114  1.0000
