data_image0
_chemical_formula_structural       Cu2H36C36N12Cl4
_chemical_formula_sum              "Cu2 H36 C36 N12 Cl4"
_cell_length_a       7.8106711070491315
_cell_length_b       9.919947432335187
_cell_length_c       13.53306856249567
_cell_angle_alpha    72.63315202735556
_cell_angle_beta     77.6210534361012
_cell_angle_gamma    83.97040164944346

_space_group_name_H-M_alt    "P 1"
_space_group_IT_number       1

loop_
  _space_group_symop_operation_xyz
  'x, y, z'

loop_
  _atom_site_type_symbol
  _atom_site_label
  _atom_site_symmetry_multiplicity
  _atom_site_fract_x
  _atom_site_fract_y
  _atom_site_fract_z
  _atom_site_occupancy
  Cu  Cu1       1.0  0.1721322709091595  0.9566914789728784  0.2739157902932092  1.0000
  Cu  Cu2       1.0  0.8278773590661713  0.043315179351381496  0.7260750574278347  1.0000
  H   H1        1.0  0.640005925218105  0.5941225489002023  0.43395278009961674  1.0000
  H   H2        1.0  0.36000479340138  0.4058720690139951  0.5660499489756321  1.0000
  H   H3        1.0  0.8221342334543918  0.39655253085499004  0.37715594291668725  1.0000
  H   H4        1.0  0.1778813915693789  0.6034481649429253  0.6228487578629542  1.0000
  H   H5        1.0  0.14629662514206393  0.4205821529838829  0.3169842543283182  1.0000
  H   H6        1.0  0.8537155778577556  0.5794050421977772  0.6830197855532419  1.0000
  H   H7        1.0  0.27389227661768706  0.6490961397989565  0.3053931788575143  1.0000
  H   H8        1.0  0.7261144511228678  0.3508877550179649  0.6946180146780069  1.0000
  H   H9        1.0  0.8276680026717285  0.9438901938731519  0.38779548597393215  1.0000
  H   H10       1.0  0.17234304127001818  0.0560971494140929  0.6122056899138573  1.0000
  H   H11       1.0  0.7820077168702466  0.8324381655282237  0.5177757247579466  1.0000
  H   H12       1.0  0.21801105388497177  0.1675682699012668  0.48221493187463005  1.0000
  H   H13       1.0  0.588452623262995  0.9132642024421641  0.2661123352220543  1.0000
  H   H14       1.0  0.4115673388773118  0.08673242606007392  0.7338867914764224  1.0000
  H   H15       1.0  0.1571204932422745  0.8500057182692586  0.5217342128720122  1.0000
  H   H16       1.0  0.8429010484235632  0.14999432334827392  0.478257413727981  1.0000
  H   H17       1.0  0.4677169140151988  0.7975994031607955  0.6005533188009269  1.0000
  H   H18       1.0  0.5322898974588879  0.20239747055961738  0.3994479013242441  1.0000
  H   H19       1.0  0.7363413938620055  0.3866085426541446  0.9002623106080849  1.0000
  H   H20       1.0  0.2636149846758399  0.6133953544676558  0.09975177247753214  1.0000
  H   H21       1.0  0.8405602412265124  0.6352707479073063  0.8503021654018499  1.0000
  H   H22       1.0  0.15937135272230307  0.36473807908039657  0.14970914757728343  1.0000
  H   H23       1.0  0.8248004886639605  0.7494847140860869  0.9939336284140414  1.0000
  H   H24       1.0  0.17515604020544367  0.2505375949343147  0.006065701011706911  1.0000
  H   H25       1.0  0.7075611723278782  0.6136724438998159  0.18061375055872733  1.0000
  H   H26       1.0  0.29244990016102435  0.3863203022401506  0.8193833946737856  1.0000
  H   H27       1.0  0.5620436739316544  0.2009373330892573  0.035895996138805224  1.0000
  H   H28       1.0  0.4379442928515331  0.7990724529037153  0.9641083758552684  1.0000
  H   H29       1.0  0.504851369337679  0.20788387401724154  0.16931136690177348  1.0000
  H   H30       1.0  0.49514624807810764  0.7921088762018588  0.8306938685114745  1.0000
  H   H31       1.0  0.8790323997561058  0.21049794559682777  0.2152849589302122  1.0000
  H   H32       1.0  0.12096659933514077  0.78950666939069  0.784711124739353  1.0000
  H   H33       1.0  0.0017969959147378948  0.8304468829074098  0.1306592678401515  1.0000
  H   H34       1.0  0.9982127539370395  0.16956955480804234  0.8693229754317503  1.0000
  H   H35       1.0  0.7104006107203772  0.9696587900565987  0.04608051360308705  1.0000
  H   H36       1.0  0.289605100697905  0.03035226712952979  0.9539076626623173  1.0000
  C   C1        1.0  0.8636712927860868  0.7235686986487836  0.3990204166154073  1.0000
  C   C2        1.0  0.13633416746765187  0.2764249428106212  0.600983806042727  1.0000
  C   C3        1.0  0.7812439951546464  0.6019686923077785  0.40529061838250163  1.0000
  C   C4        1.0  0.21876918046485364  0.3980246633657672  0.5947157963531853  1.0000
  C   C5        1.0  0.8825917582976144  0.49203068713421083  0.3743095290921944  1.0000
  C   C6        1.0  0.11742285796356097  0.5079670476841259  0.62569142787212  1.0000
  C   C7        1.0  0.0631997428306192  0.5056166210462506  0.3401287728241159  1.0000
  C   C8        1.0  0.9368148943459146  0.494373598006078  0.6598766277067655  1.0000
  C   C9        1.0  0.1343545456231112  0.6308226272802814  0.3351597636924525  1.0000
  C   C10       1.0  0.8656507357879659  0.3691687204115581  0.6648493694425072  1.0000
  C   C11       1.0  0.7673330840147585  0.8443658299953046  0.43626538411268717  1.0000
  C   C12       1.0  0.2326716585636959  0.1556240050245492  0.5637300540259889  1.0000
  C   C13       1.0  0.5119448128537838  0.8920812303740036  0.34565957623593146  1.0000
  C   C14       1.0  0.4880659990029416  0.10792099373335155  0.6543364604899937  1.0000
  C   C15       1.0  0.2927432843182131  0.8544058811591814  0.4803224942978305  1.0000
  C   C16       1.0  0.7072742969238063  0.14559206986847784  0.5196714475517085  1.0000
  C   C17       1.0  0.4443417021561585  0.8295796071484888  0.5204379732718111  1.0000
  C   C18       1.0  0.5556729026933738  0.17042027072551488  0.47956182118694834  1.0000
  C   C19       1.0  0.6714384466855846  0.3727133930098532  0.0661788678889792  1.0000
  C   C20       1.0  0.3285499538485935  0.627279519819254  0.9338280578012361  1.0000
  C   C21       1.0  0.7348813148661079  0.4407200481617296  0.9598240552116554  1.0000
  C   C22       1.0  0.2650897025341975  0.5592826403187205  0.040185008142650164  1.0000
  C   C23       1.0  0.7923439043606564  0.5777811613282537  0.9324953967326483  1.0000
  C   C24       1.0  0.207598156857145  0.4222317314823343  0.06751251616941543  1.0000
  C   C25       1.0  0.783432908025361  0.6417622243797894  0.012381890011987194  1.0000
  C   C26       1.0  0.21653803899707919  0.35825009277994724  0.987622316864446  1.0000
  C   C27       1.0  0.718096790297821  0.5658238318256679  0.11640627763121357  1.0000
  C   C28       1.0  0.28189042835496986  0.4341735152203442  0.8835954590541208  1.0000
  C   C29       1.0  0.6105398475149784  0.2235131423085052  0.09926511616124155  1.0000
  C   C30       1.0  0.38945634639463117  0.7764827746741858  0.9007403838625552  1.0000
  C   C31       1.0  0.8743116168195113  0.12513236732502972  0.18155660087904846  1.0000
  C   C32       1.0  0.12569522129379607  0.8748666795934245  0.8184427071463178  1.0000
  C   C33       1.0  0.9304750550081733  0.9280769736193123  0.13715930701717854  1.0000
  C   C34       1.0  0.0695309246741047  0.0719375242181712  0.8628215035329918  1.0000
  C   C35       1.0  0.7886015229554885  0.994957443063086  0.09478035502356624  1.0000
  C   C36       1.0  0.21139748945536496  0.0050482585234518885  0.9052147725960896  1.0000
  N   N1        1.0  0.036762676936085384  0.7387358321170225  0.362225043383063  1.0000
  N   N2        1.0  0.9632440812595817  0.26125669520730815  0.6377800009417316  1.0000
  N   N3        1.0  0.5812193422498524  0.854812229071186  0.4342896294945363  1.0000
  N   N4        1.0  0.41878755864556877  0.1451857915330095  0.5657091353922254  1.0000
  N   N5        1.0  0.33775189142214396  0.8926955584577669  0.3715451591112356  1.0000
  N   N6        1.0  0.662263029245942  0.10730241749961782  0.6284498010990378  1.0000
  N   N7        1.0  0.6632786440363813  0.43343642728171256  0.14397377662410812  1.0000
  N   N8        1.0  0.33672293189527386  0.5665551838725805  0.8560312620950584  1.0000
  N   N9        1.0  0.7554069877832247  0.11913381122339935  0.12345325228523764  1.0000
  N   N10       1.0  0.24459981609512482  0.8808716648620418  0.8765425682234708  1.0000
  N   N11       1.0  0.9828140772840185  0.010304280066257793  0.19085401535016192  1.0000
  N   N12       1.0  0.017195815231445977  0.9896961299453014  0.8091358223220128  1.0000
  Cl  Cl1       1.0  0.11385148278198899  0.1614862914149811  0.3297195811857989  1.0000
  Cl  Cl2       1.0  0.8861594013605582  0.838509533667768  0.6702791934625338  1.0000
  Cl  Cl3       1.0  0.3660558541992599  0.8814892272963064  0.14091058405036702  1.0000
  Cl  Cl4       1.0  0.6339474515534106  0.11850268788811753  0.8590860747487598  1.0000
