data_image0
_chemical_formula_structural       Zn4H24C32N4O16
_chemical_formula_sum              "Zn4 H24 C32 N4 O16"
_cell_length_a       7.6262273394873885
_cell_length_b       8.622691493789555
_cell_length_c       14.691387395001845
_cell_angle_alpha    90.00005660493294
_cell_angle_beta     89.99997242313731
_cell_angle_gamma    110.6570482293264

_space_group_name_H-M_alt    "P 1"
_space_group_IT_number       1

loop_
  _space_group_symop_operation_xyz
  'x, y, z'

loop_
  _atom_site_type_symbol
  _atom_site_label
  _atom_site_symmetry_multiplicity
  _atom_site_fract_x
  _atom_site_fract_y
  _atom_site_fract_z
  _atom_site_occupancy
  Zn  Zn1       1.0  0.8528091735055909  0.956971384308034  0.9307788400270525  1.0000
  Zn  Zn2       1.0  0.14718958089781614  0.5430310554711612  0.43077769773876884  1.0000
  Zn  Zn3       1.0  0.1471878749331168  0.043030685624401606  0.0692221836348921  1.0000
  Zn  Zn4       1.0  0.8528067864486032  0.4569660535977605  0.5692185612254618  1.0000
  H   H1        1.0  0.3695884525892197  0.75293903365543  0.11326721446797451  1.0000
  H   H2        1.0  0.6304121537390728  0.7470542111951917  0.613268970950628  1.0000
  H   H3        1.0  0.6304253110919049  0.2470654764609962  0.8867344898635211  1.0000
  H   H4        1.0  0.3695932001106499  0.25293915388928684  0.3867313720368628  1.0000
  H   H5        1.0  0.14122075226226377  0.6356911160566983  0.23992849334009492  1.0000
  H   H6        1.0  0.858776881220237  0.8643048191995605  0.7399316226205245  1.0000
  H   H7        1.0  0.8587890814923327  0.36431340371614607  0.7600698076373433  1.0000
  H   H8        1.0  0.1412216083094293  0.1356910440248242  0.260070762381261  1.0000
  H   H9        1.0  0.5602171260284265  0.6127518410682671  0.41325379444045035  1.0000
  H   H10       1.0  0.4397773893272614  0.8872530624696894  0.9132509142409972  1.0000
  H   H11       1.0  0.4397817301527168  0.3872514650566218  0.5867499519052544  1.0000
  H   H12       1.0  0.5602129259081253  0.11274530210670972  0.086743983382533  1.0000
  H   H13       1.0  0.8082377269041955  0.7331560168137798  0.2937524913404416  1.0000
  H   H14       1.0  0.1917615668663544  0.7668474439239148  0.7937489220355047  1.0000
  H   H15       1.0  0.19176767915484313  0.2668472732152623  0.7062546583590006  1.0000
  H   H16       1.0  0.8082364248974869  0.23314717988341027  0.2062446142441843  1.0000
  H   H17       1.0  0.7897833692231729  0.4430045932043286  0.023532865954813097  1.0000
  H   H18       1.0  0.2102088694026421  0.056995801074244005  0.5235366582108227  1.0000
  H   H19       1.0  0.21020812487220294  0.5569999716428669  0.9764633930121746  1.0000
  H   H20       1.0  0.7897838824567173  0.9429988356211539  0.4764684494749503  1.0000
  H   H21       1.0  0.9781723016556682  0.49736397810838906  0.10421890721914912  1.0000
  H   H22       1.0  0.0218204102416664  0.0026377842127872  0.604224756519713  1.0000
  H   H23       1.0  0.021819323555504918  0.5026343832477594  0.8957753097333097  1.0000
  H   H24       1.0  0.9781709005264144  0.9973630591922954  0.3957810318389363  1.0000
  C   C1        1.0  0.75175188900927  0.8366940667830108  0.122972878038631  1.0000
  C   C2        1.0  0.24825337760413646  0.6633140696737669  0.62296651229115  1.0000
  C   C3        1.0  0.2482576303024402  0.1633129350376876  0.8770356330031817  1.0000
  C   C4        1.0  0.7517535217586937  0.3366929385733358  0.3770256626491956  1.0000
  C   C5        1.0  0.6074794852995495  0.7531235927851513  0.19465908970840928  1.0000
  C   C6        1.0  0.3925186596940051  0.746873509708692  0.6946581820516187  1.0000
  C   C7        1.0  0.39252935291966656  0.24687844817312055  0.80534601797752  1.0000
  C   C8        1.0  0.6074822664619147  0.25311862562275433  0.3053394382524317  1.0000
  C   C9        1.0  0.417534287068662  0.7224554984276567  0.17844211987502231  1.0000
  C   C10       1.0  0.5824641772892035  0.7775390961747348  0.678443225124063  1.0000
  C   C11       1.0  0.582476358893821  0.2775477787187343  0.8215602651274097  1.0000
  C   C12       1.0  0.4175367488666097  0.22245303915725156  0.3215550758508953  1.0000
  C   C13       1.0  0.2900289830492255  0.6574396666408546  0.24832591827443906  1.0000
  C   C14       1.0  0.709968019001458  0.8425612460810684  0.748327710333335  1.0000
  C   C15       1.0  0.7099756108022319  0.3425648660130137  0.7516751053872852  1.0000
  C   C16       1.0  0.2900296583203285  0.15743585976976962  0.2516705906434566  1.0000
  C   C17       1.0  0.5249061553046133  0.6450689919500052  0.34569041378905047  1.0000
  C   C18       1.0  0.4750900049792363  0.8549333186195299  0.8456895482200933  1.0000
  C   C19       1.0  0.4750953208277906  0.3549343077360022  0.6543140132272356  1.0000
  C   C20       1.0  0.5249050523912898  0.1450637936701895  0.154308072086117  1.0000
  C   C21       1.0  0.6613885045653944  0.7118579591921873  0.2796129265136996  1.0000
  C   C22       1.0  0.3386117890320079  0.7881479578245136  0.7796100139841259  1.0000
  C   C23       1.0  0.3386169014937436  0.2881453308363078  0.7203935425148275  1.0000
  C   C24       1.0  0.6613895037759007  0.2118516204047225  0.22038556430931072  1.0000
  C   C25       1.0  0.93874448504269  0.27262082982633024  0.030632876603768004  1.0000
  C   C26       1.0  0.06125168135497461  0.22737956611054247  0.5306347620342962  1.0000
  C   C27       1.0  0.06124059028955754  0.7273775476310933  0.9693647437040409  1.0000
  C   C28       1.0  0.938750423660508  0.7726187694938746  0.4693669422968512  1.0000
  C   C29       1.0  0.9328814837266107  0.4460100449796088  0.0363192521930173  1.0000
  C   C30       1.0  0.0671097554829529  0.053987890863794505  0.536323758661787  1.0000
  C   C31       1.0  0.06710571379014148  0.5539870866267622  0.9636763261014494  1.0000
  C   C32       1.0  0.932883991910863  0.946009224651057  0.46368066835366756  1.0000
  N   N1        1.0  0.34265915900475363  0.6199474590248503  0.33049513164247907  1.0000
  N   N2        1.0  0.657335198149049  0.8800535911314357  0.8304962776725873  1.0000
  N   N3        1.0  0.6573413215940249  0.38005336183735494  0.6695045306768607  1.0000
  N   N4        1.0  0.3426611691971573  0.11994351793856596  0.16950134263346678  1.0000
  O   O1        1.0  0.6908799872544762  0.8404613035015915  0.0428266098808834  1.0000
  O   O2        1.0  0.30913622905206495  0.6595379939011538  0.5428243109706017  1.0000
  O   O3        1.0  0.30914145295437817  0.15953946584956208  0.9571784978031274  1.0000
  O   O4        1.0  0.6908730547253155  0.34045536152093103  0.4571719479909575  1.0000
  O   O5        1.0  0.9207780871314527  0.8989467651042493  0.14976204012214106  1.0000
  O   O6        1.0  0.07922075258678522  0.6010552266661264  0.649751596044595  1.0000
  O   O7        1.0  0.07922731892716682  0.10105652492696043  0.8502478322609262  1.0000
  O   O8        1.0  0.9207812213148613  0.3989493124190276  0.3502392175538347  1.0000
  O   O9        1.0  0.8293443461433156  0.17486926201780056  0.9730584903943579  1.0000
  O   O10       1.0  0.1706456338281939  0.32513309474776264  0.47305818601693517  1.0000
  O   O11       1.0  0.17063617037933196  0.825134089177631  0.0269384492445397  1.0000
  O   O12       1.0  0.8293454936154916  0.6748640272000089  0.5269380729479494  1.0000
  O   O13       1.0  0.0567279808837213  0.2399790337971908  0.08093455600941718  1.0000
  O   O14       1.0  0.9432721001697075  0.2600214326737387  0.5809382848640895  1.0000
  O   O15       1.0  0.9432628321191526  0.7600205701875781  0.9190582996016872  1.0000
  O   O16       1.0  0.05674085130259948  0.7399843200740222  0.4190654614805851  1.0000
