data_image0
_chemical_formula_structural       Mg4H24C24O24
_chemical_formula_sum              "Mg4 H24 C24 O24"
_cell_length_a       8.766271097436462
_cell_length_b       13.360863230023277
_cell_length_c       13.360792969122661
_cell_angle_alpha    72.56281567043416
_cell_angle_beta     79.08295882175575
_cell_angle_gamma    79.08322849869981

_space_group_name_H-M_alt    "P 1"
_space_group_IT_number       1

loop_
  _space_group_symop_operation_xyz
  'x, y, z'

loop_
  _atom_site_type_symbol
  _atom_site_label
  _atom_site_symmetry_multiplicity
  _atom_site_fract_x
  _atom_site_fract_y
  _atom_site_fract_z
  _atom_site_occupancy
  Mg  Mg1       1.0  0.2526436430675716  0.1074640817753973  0.2588478397652807  1.0000
  Mg  Mg2       1.0  0.2473577907481826  0.7411528065115929  0.8925369258311094  1.0000
  Mg  Mg3       1.0  0.7473576293446911  0.8925361786496564  0.7411546394231935  1.0000
  Mg  Mg4       1.0  0.75264066722945  0.2588498509770502  0.10746370837397726  1.0000
  H   H1        1.0  0.6702063172002184  0.14811393200650969  0.4177901866822396  1.0000
  H   H2        1.0  0.8298038037125296  0.582214175942191  0.8518776323976383  1.0000
  H   H3        1.0  0.3298003865769771  0.851882363479099  0.5822105244200345  1.0000
  H   H4        1.0  0.1701947755265749  0.4177877258178881  0.14811796920454154  1.0000
  H   H5        1.0  0.5500349725185032  0.8746168427236538  0.0686503456101519  1.0000
  H   H6        1.0  0.9499692233124934  0.9313440757862138  0.12539453956546245  1.0000
  H   H7        1.0  0.44996369730457536  0.12539055966933424  0.9313496156488483  1.0000
  H   H8        1.0  0.050031880821684624  0.06865139775782579  0.8746146072296098  1.0000
  H   H9        1.0  0.41449429604585225  0.2188392994236352  0.07880314686702405  1.0000
  H   H10       1.0  0.08550369901875855  0.9211958242851349  0.7811618484812116  1.0000
  H   H11       1.0  0.5855053355206438  0.7811633429733572  0.9211988400747658  1.0000
  H   H12       1.0  0.9144965374038849  0.07880367976175509  0.21883649336534453  1.0000
  H   H13       1.0  0.2356442529738487  0.27725580018156387  0.07679053736088551  1.0000
  H   H14       1.0  0.2643503125887534  0.9232031156694162  0.7227446642144173  1.0000
  H   H15       1.0  0.7643524156655914  0.7227382065306995  0.923205381279253  1.0000
  H   H16       1.0  0.7356485656291767  0.07679163232936048  0.2772567445043421  1.0000
  H   H17       1.0  0.0044106183682685925  0.190556567678442  0.3740752308408233  1.0000
  H   H18       1.0  0.4955903627282083  0.6259200425881133  0.8094372512043649  1.0000
  H   H19       1.0  0.9955840961054823  0.809441400674977  0.6259205194351125  1.0000
  H   H20       1.0  0.5044111903284617  0.37407866965022407  0.1905604081062435  1.0000
  H   H21       1.0  0.010748261252622616  0.2590946300553084  0.2525938065015723  1.0000
  H   H22       1.0  0.48925378609243353  0.7474055654521549  0.7409052012373395  1.0000
  H   H23       1.0  0.9892519806159399  0.7409048687445007  0.747405284677548  1.0000
  H   H24       1.0  0.5107514362219021  0.2525923195472473  0.25909523034328436  1.0000
  C   C1        1.0  0.33975387857383055  0.9499915653569814  0.14552690866364767  1.0000
  C   C2        1.0  0.16025929258707816  0.8544722081615672  0.050007177604392446  1.0000
  C   C3        1.0  0.6602538973177587  0.05001103961054549  0.854474806111739  1.0000
  C   C4        1.0  0.8397539092235178  0.14552643711360247  0.94999201975223  1.0000
  C   C5        1.0  0.5981844735157438  0.08450356107959318  0.4513066278651508  1.0000
  C   C6        1.0  0.9018181081229102  0.5486992123631466  0.9154903430274147  1.0000
  C   C7        1.0  0.4018217684504607  0.9154950960392225  0.548695693059699  1.0000
  C   C8        1.0  0.09817930841917637  0.4513026939944211  0.08450540450319009  1.0000
  C   C9        1.0  0.46962414395474655  0.0821390017561257  0.40547547280455387  1.0000
  C   C10       1.0  0.030384442366653306  0.5945257505121759  0.9178524369990272  1.0000
  C   C11       1.0  0.5303812486343418  0.9178580802909478  0.5945266701662392  1.0000
  C   C12       1.0  0.969614640254136  0.40547933747136256  0.08213917044432864  1.0000
  C   C13       1.0  0.3651925312625224  0.9947566096043374  0.4561480490436978  1.0000
  C   C14       1.0  0.1348122863213348  0.5438493306792793  0.005239912973600263  1.0000
  C   C15       1.0  0.6348176551598285  0.005239677335900697  0.5438514749407446  1.0000
  C   C16       1.0  0.8651809575813942  0.45615021669376427  0.9947570564458063  1.0000
  C   C17       1.0  0.1596797934322397  0.9696705305296116  0.15945215731971277  1.0000
  C   C18       1.0  0.34030676850387914  0.8405545466823268  0.030329223741603066  1.0000
  C   C19       1.0  0.8403047448565958  0.030332150646337687  0.8405547240218354  1.0000
  C   C20       1.0  0.6596861729707799  0.15944656986576425  0.9696695682254202  1.0000
  C   C21       1.0  0.42217575422480996  0.8851178074247769  0.08128545448008144  1.0000
  C   C22       1.0  0.07781409906682765  0.9187244217465035  0.11489532959632939  1.0000
  C   C23       1.0  0.5778207713708028  0.11488879071669088  0.9187180086910587  1.0000
  C   C24       1.0  0.9221793913548668  0.08128606392735799  0.8851193511274785  1.0000
  O   O1        1.0  0.40473322715146043  0.9965899194840233  0.19237863438344502  1.0000
  O   O2        1.0  0.09525975155204947  0.8076153827003123  0.003406876834603184  1.0000
  O   O3        1.0  0.595262693586669  0.0034080022952451996  0.807622964624571  1.0000
  O   O4        1.0  0.904735759836285  0.19237862336235165  0.9965899370665171  1.0000
  O   O5        1.0  0.4276090420026862  0.14873607627652766  0.32003432404322757  1.0000
  O   O6        1.0  0.07239777806365313  0.6799600345605012  0.8512612040901999  1.0000
  O   O7        1.0  0.5723930743407734  0.8512657644673495  0.6799675837667465  1.0000
  O   O8        1.0  0.92760328050651  0.3200410707935361  0.14873356904760734  1.0000
  O   O9        1.0  0.2491965427000693  0.9998877287259089  0.4103739573896945  1.0000
  O   O10       1.0  0.250807665509619  0.589619986203857  0.00011358614705866348  1.0000
  O   O11       1.0  0.7508114613733952  0.0001077906924038992  0.5896238231789397  1.0000
  O   O12       1.0  0.7491862956169014  0.4103819024636551  0.9998870951641975  1.0000
  O   O13       1.0  0.0961789608071086  0.0355900701664851  0.21417043648072107  1.0000
  O   O14       1.0  0.403825822676083  0.7858320292127061  0.9644083331419893  1.0000
  O   O15       1.0  0.903826558489385  0.9644062509049502  0.7858274232197219  1.0000
  O   O16       1.0  0.5961736712911686  0.2141713846541009  0.035596438405015425  1.0000
  O   O17       1.0  0.0757672308605919  0.21519970159004487  0.3097994371182438  1.0000
  O   O18       1.0  0.4242373671507664  0.6901979833995993  0.7848009456115506  1.0000
  O   O19       1.0  0.9242341791509148  0.7847997873651948  0.6902002574650224  1.0000
  O   O20       1.0  0.5757663845925477  0.3098014806194199  0.21520070511255085  1.0000
  O   O21       1.0  0.30253462804603265  0.21813060761180472  0.11668226045306801  1.0000
  O   O22       1.0  0.1974646080092768  0.883315397681116  0.7818691222325428  1.0000
  O   O23       1.0  0.6974685079492957  0.7818720052514863  0.8833215367011393  1.0000
  O   O24       1.0  0.8025346196533363  0.1166833237521843  0.21812882893491548  1.0000
