data_image0
_chemical_formula_structural       Cd2H24C38S4N16
_chemical_formula_sum              "Cd2 H24 C38 S4 N16"
_cell_length_a       8.64595228165754
_cell_length_b       8.80371253046965
_cell_length_c       14.445007323541198
_cell_angle_alpha    96.5804118089807
_cell_angle_beta     98.60018660299556
_cell_angle_gamma    104.91248605852846

_space_group_name_H-M_alt    "P 1"
_space_group_IT_number       1

loop_
  _space_group_symop_operation_xyz
  'x, y, z'

loop_
  _atom_site_type_symbol
  _atom_site_label
  _atom_site_symmetry_multiplicity
  _atom_site_fract_x
  _atom_site_fract_y
  _atom_site_fract_z
  _atom_site_occupancy
  Cd  Cd1       1.0  0.7265371146554855  0.5288727059723686  0.7307135862544099  1.0000
  Cd  Cd2       1.0  0.273464230610017  0.47112932435732807  0.2692854778180375  1.0000
  H   H1        1.0  0.1635507487331509  0.4612863756162256  0.04204174877907721  1.0000
  H   H2        1.0  0.8364475977026656  0.5387132631404016  0.9579589624319452  1.0000
  H   H3        1.0  0.38704276352935096  0.17424713230531103  0.19036780907534728  1.0000
  H   H4        1.0  0.6129639276686517  0.8257572970261864  0.809630504231329  1.0000
  H   H5        1.0  0.3174749453998586  0.9599607578248381  0.04621115588513901  1.0000
  H   H6        1.0  0.6825247257559396  0.04004364677854261  0.9537872391280187  1.0000
  H   H7        1.0  0.15962874562526963  0.0005531521165949002  0.8976719427352078  1.0000
  H   H8        1.0  0.840368761097423  0.9994476740821127  0.10232808759305809  1.0000
  H   H9        1.0  0.1084771540738814  0.20115776147601855  0.5813195808350357  1.0000
  H   H10       1.0  0.8915211733557341  0.7988335499718249  0.41867984573907074  1.0000
  H   H11       1.0  0.02652802961420521  0.22550155294440094  0.4139444044820805  1.0000
  H   H12       1.0  0.973467627905677  0.774496888142757  0.5860546039931761  1.0000
  H   H13       1.0  0.7969935562605241  0.34607662215635315  0.3684738757197721  1.0000
  H   H14       1.0  0.20300629224841774  0.65392421208157  0.6315263582750744  1.0000
  H   H15       1.0  0.6664828705411026  0.4466867888759937  0.49717940953692613  1.0000
  H   H16       1.0  0.3335162996581644  0.5533116642699838  0.5028199044381906  1.0000
  H   H17       1.0  0.11178981981826296  0.9604622941711797  0.7238895274434753  1.0000
  H   H18       1.0  0.8882051700250669  0.039533764603078204  0.2761099464244978  1.0000
  H   H19       1.0  0.36737914685475204  0.9140996697231291  0.6755156324557203  1.0000
  H   H20       1.0  0.6326173716445211  0.0858975814800331  0.3244868277271634  1.0000
  H   H21       1.0  0.6033739138900174  0.14680901952640824  0.6792491945683279  1.0000
  H   H22       1.0  0.39662193693270337  0.8531858493638539  0.3207537310072723  1.0000
  H   H23       1.0  0.35940679367914186  0.46453281802105556  0.7788932726974876  1.0000
  H   H24       1.0  0.6405900400504336  0.5354656264752293  0.22110653031727878  1.0000
  C   C1        1.0  0.19688264630482163  0.34949815595315675  0.0407529231316559  1.0000
  C   C2        1.0  0.8031160313109991  0.6505026742651554  0.959247209029904  1.0000
  C   C3        1.0  0.3213850801694775  0.18787223013033844  0.12270060654095259  1.0000
  C   C4        1.0  0.6786204454519619  0.8121321945710777  0.8772982976386458  1.0000
  C   C5        1.0  0.2827613738146865  0.0700677009095187  0.04319650226742769  1.0000
  C   C6        1.0  0.7172409756239234  0.9299379025842854  0.956802210069057  1.0000
  C   C7        1.0  0.19587130034096845  0.09386674989717393  0.9595152408286437  1.0000
  C   C8        1.0  0.8041327125742226  0.9061364805439001  0.04048275515469869  1.0000
  C   C9        1.0  0.15191564022622117  0.2362689788235457  0.957748970536123  1.0000
  C   C10       1.0  0.8480815299999165  0.7637306565239472  0.0422509461353897  1.0000
  C   C11       1.0  0.05401970708590649  0.2701690655346809  0.8753829603066234  1.0000
  C   C12       1.0  0.9459777996367859  0.7298317606640267  0.12461707002164248  1.0000
  C   C13       1.0  0.9639890991316804  0.3060289006254422  0.7312150416356927  1.0000
  C   C14       1.0  0.03600671447509997  0.6939659725381659  0.2687830349963746  1.0000
  C   C15       1.0  0.9324440309063887  0.3149884236973223  0.6296100826067814  1.0000
  C   C16       1.0  0.0675529642266426  0.6850064522649363  0.37038948127101173  1.0000
  C   C17       1.0  0.011756686217843499  0.25626822197725124  0.5621211361385219  1.0000
  C   C18       1.0  0.9882444999042476  0.7437290471357729  0.4378796532588609  1.0000
  C   C19       1.0  0.9640055030892467  0.26811868865898714  0.46719948507519854  1.0000
  C   C20       1.0  0.03599535490936745  0.7318857181325671  0.532801089889908  1.0000
  C   C21       1.0  0.8374940828960787  0.3349409785513658  0.44185764656363347  1.0000
  C   C22       1.0  0.16250358523006977  0.6650562791133154  0.5581421446276662  1.0000
  C   C23       1.0  0.7649887478394318  0.3918661330885556  0.5133521132699599  1.0000
  C   C24       1.0  0.23500925678327184  0.6081323154273408  0.4866477915780932  1.0000
  C   C25       1.0  0.21978571274151187  0.21585483730523697  0.7538594722196094  1.0000
  C   C26       1.0  0.7802104479949532  0.7841412254886252  0.24614010348165039  1.0000
  C   C27       1.0  0.21923086309268305  0.0590847501221461  0.7251724600925584  1.0000
  C   C28       1.0  0.7807653029603397  0.9409113120612391  0.2748278083149173  1.0000
  C   C29       1.0  0.3600051615222241  0.033519758350550405  0.6987423544360494  1.0000
  C   C30       1.0  0.639991020480487  0.9664763020014038  0.30125999209008103  1.0000
  C   C31       1.0  0.49303582661403306  0.16385061064678305  0.701396510112751  1.0000
  C   C32       1.0  0.5069615262818061  0.8361454537247754  0.2986059382466664  1.0000
  C   C33       1.0  0.3577563892427734  0.34114598675208907  0.7557738981440066  1.0000
  C   C34       1.0  0.6422389317805538  0.6588512634838538  0.2442249966744967  1.0000
  C   C35       1.0  0.10824671779609929  0.7063354696156239  0.806804250515043  1.0000
  C   C36       1.0  0.8917715360829206  0.2936559077236254  0.19319967804984367  1.0000
  C   C37       1.0  0.6356199656918803  0.7715354423434846  0.6054915489536936  1.0000
  C   C38       1.0  0.36438174039295024  0.22847610553572653  0.3945096061186461  1.0000
  S   S1        1.0  0.27428867720754363  0.7039436242094652  0.8742089028922704  1.0000
  S   S2        1.0  0.7257218760595662  0.2960536770604137  0.1257927011714131  1.0000
  S   S3        1.0  0.6992069270115735  0.9248251583138369  0.5559692079783429  1.0000
  S   S4        1.0  0.30079155504137123  0.07518757385206243  0.444025520894911  1.0000
  N   N1        1.0  0.2791729329646131  0.324744200905677  0.12134054523017568  1.0000
  N   N2        1.0  0.7208284176174542  0.6752578288135425  0.8786592115484877  1.0000
  N   N3        1.0  0.9283967446533055  0.32959105745869977  0.879273681387552  1.0000
  N   N4        1.0  0.0716007567528223  0.6704097693504849  0.12072565623449799  1.0000
  N   N5        1.0  0.8733612438724945  0.3508234620294672  0.7899109806181598  1.0000
  N   N6        1.0  0.12663407715083247  0.6491737882064754  0.21008791420034353  1.0000
  N   N7        1.0  0.08034049333124217  0.25227874595501026  0.7829612296960063  1.0000
  N   N8        1.0  0.9196560039017782  0.7477185076900597  0.2170384596620067  1.0000
  N   N9        1.0  0.8122147856087523  0.3838300889084182  0.6046157179379036  1.0000
  N   N10       1.0  0.18778204280425836  0.616168356198344  0.39538339237063985  1.0000
  N   N11       1.0  0.4919793127984349  0.3142905269492218  0.7297315034595753  1.0000
  N   N12       1.0  0.5080171950677084  0.6857067254749014  0.2702695713108696  1.0000
  N   N13       1.0  0.9875726922906196  0.7119965425158272  0.7563083582284305  1.0000
  N   N14       1.0  0.012431322884616219  0.2879983581745479  0.2436911239428667  1.0000
  N   N15       1.0  0.5846826644939964  0.6571701834841619  0.6412090290335896  1.0000
  N   N16       1.0  0.4153336229042281  0.3428556901755685  0.3587950991256078  1.0000
