data_image0
_chemical_formula_structural       Zn4H44C56Br8N16
_chemical_formula_sum              "Zn4 H44 C56 Br8 N16"
_cell_length_a       14.678285358816963
_cell_length_b       14.680657544158413
_cell_length_c       15.022215055770667
_cell_angle_alpha    101.27372411946878
_cell_angle_beta     118.1151520672026
_cell_angle_gamma    108.51683185149984

_space_group_name_H-M_alt    "P 1"
_space_group_IT_number       1

loop_
  _space_group_symop_operation_xyz
  'x, y, z'

loop_
  _atom_site_type_symbol
  _atom_site_label
  _atom_site_symmetry_multiplicity
  _atom_site_fract_x
  _atom_site_fract_y
  _atom_site_fract_z
  _atom_site_occupancy
  Zn  Zn1       1.0  0.9819601618309691  0.63579447419216  0.5935629683609067  1.0000
  Zn  Zn2       1.0  0.04217504186068065  0.38850522823728545  0.40639847304685633  1.0000
  Zn  Zn3       1.0  0.848935228121185  0.4790485661338124  0.3388600751335958  1.0000
  Zn  Zn4       1.0  0.14008349434446646  0.5100544325909551  0.6610953584877208  1.0000
  H   H1        1.0  0.8357257730047536  0.4971716868246076  0.6630610205209211  1.0000
  H   H2        1.0  0.37505504300124676  0.677124700125283  0.7196079821218718  1.0000
  H   H3        1.0  0.20984941715501304  0.5514449437859952  0.9127797758885876  1.0000
  H   H4        1.0  0.9574973194343742  0.6553790470958274  0.28025476151079  1.0000
  H   H5        1.0  0.6384661208700847  0.2969220022560037  0.08747961601987717  1.0000
  H   H6        1.0  0.9690336174596226  0.31532974653855217  0.6837262544880575  1.0000
  H   H7        1.0  0.7194347540726582  0.6144204429290312  0.21375984406864756  1.0000
  H   H8        1.0  0.6316497794332676  0.28523473237502367  0.3162118854653997  1.0000
  H   H9        1.0  0.25430573269392914  0.33317229581800933  0.44198932804248164  1.0000
  H   H10       1.0  0.40063206424695613  0.5057053351858158  0.7862763676415058  1.0000
  H   H11       1.0  0.0935498107956363  0.4713739202388679  0.11260026882457203  1.0000
  H   H12       1.0  0.13093757973742032  0.8126600045540187  0.10338803034797922  1.0000
  H   H13       1.0  0.35858717776527294  0.9805644229992935  0.8875358583943653  1.0000
  H   H14       1.0  0.7093016766253087  0.027700460958513293  0.8968202702650886  1.0000
  H   H15       1.0  0.8340829967663766  0.17267046158647753  0.33685805839503075  1.0000
  H   H16       1.0  0.7818353918749069  0.8956467129605555  0.49261649205080743  1.0000
  H   H17       1.0  0.7866843193055287  0.020097615174968497  0.3493693970453864  1.0000
  H   H18       1.0  0.40281219598870893  0.2891533885099307  0.5071373009127883  1.0000
  H   H19       1.0  0.6705388583175208  0.4370844128398446  0.6505064720449526  1.0000
  H   H20       1.0  0.8911439905615309  0.8124183337927489  0.5579615488527879  1.0000
  H   H21       1.0  0.2917225197500742  0.5513225606471934  0.08123500816356717  1.0000
  H   H22       1.0  0.37097050975006607  0.6917271822655664  0.134790441680437  1.0000
  H   H23       1.0  0.36763007500010764  0.6298617135248604  0.224541509890635  1.0000
  H   H24       1.0  0.9357519229305636  0.7302102067988585  0.14235130606829952  1.0000
  H   H25       1.0  0.8665846288458712  0.6687619844735052  0.9969691035408135  1.0000
  H   H26       1.0  0.8480931830811969  0.5900948108046861  0.06944609085280018  1.0000
  H   H27       1.0  0.46966710540792905  0.21008427819842976  0.9190473809966664  1.0000
  H   H28       1.0  0.5565863734783677  0.23597394761463858  0.8655360444561354  1.0000
  H   H29       1.0  0.4049245451030146  0.14278737447263978  0.7757500175429399  1.0000
  H   H30       1.0  0.587931311093648  0.7935331832699287  0.8575086092295336  1.0000
  H   H31       1.0  0.6719382192584574  0.8695837669193622  0.002931410166958528  1.0000
  H   H32       1.0  0.5208078264466992  0.7785060072084632  0.9304901713255732  1.0000
  H   H33       1.0  0.6562193919945613  0.7459726633107522  0.164451447004801  1.0000
  H   H34       1.0  0.7057785612533038  0.883475048979747  0.21205263512879216  1.0000
  H   H35       1.0  0.8053272316860499  0.8328833033302627  0.22632183128793323  1.0000
  H   H36       1.0  0.7826384159633974  0.1352169717639029  0.6236045107895836  1.0000
  H   H37       1.0  0.7748239836815288  0.00887475612843493  0.5921398230838337  1.0000
  H   H38       1.0  0.9133810565353571  0.12481928999693527  0.6777620436577084  1.0000
  H   H39       1.0  0.5813223151834279  0.49138467526820745  0.8355219086464842  1.0000
  H   H40       1.0  0.6712513120799246  0.49323690249923385  0.7878776767323076  1.0000
  H   H41       1.0  0.6066416130202442  0.5786622135652734  0.7736961351080113  1.0000
  H   H42       1.0  0.5114091673128129  0.15900284123517844  0.37616568597474054  1.0000
  H   H43       1.0  0.4165480195855622  0.18262719859939108  0.40765235324524707  1.0000
  H   H44       1.0  0.44690219258026787  0.23563015817506985  0.32202959586697943  1.0000
  C   C1        1.0  0.7994030283230417  0.4555636261526884  0.5764497790667705  1.0000
  C   C2        1.0  0.015468342290539361  0.5640706038055396  0.014133994178095619  1.0000
  C   C3        1.0  0.5851366972040425  0.83568108564247  0.9245527435732799  1.0000
  C   C4        1.0  0.3152136116577752  0.626100663135361  0.14085394524801845  1.0000
  C   C5        1.0  0.9111325517731785  0.6604514311949217  0.07540791292498039  1.0000
  C   C6        1.0  0.4848901685082084  0.17408129400196498  0.8594076369295678  1.0000
  C   C7        1.0  0.730228895137607  0.823115641028103  0.23099983909736474  1.0000
  C   C8        1.0  0.8225948265518211  0.08964084959823974  0.6040592898297631  1.0000
  C   C9        1.0  0.5919866272084349  0.4988475166580173  0.7689781898875412  1.0000
  C   C10       1.0  0.48539674572885616  0.21849898785570324  0.39572040437540323  1.0000
  C   C11       1.0  0.5171152008379283  0.006818831771958974  0.797614892366923  1.0000
  C   C12       1.0  0.5498154220765701  0.0011221088854752508  0.9859778552713366  1.0000
  C   C13       1.0  0.20945088039621856  0.7197508464306991  0.20249054209221384  1.0000
  C   C14       1.0  0.82034295801634  0.09385618622216889  0.5038917778437836  1.0000
  C   C15       1.0  0.7574933440279636  0.826221693984479  0.3417361390278162  1.0000
  C   C16       1.0  0.5898277857984127  0.31631733688503516  0.4959476302965841  1.0000
  C   C17       1.0  0.2720995326433029  0.3740526529415362  0.5213783608792967  1.0000
  C   C18       1.0  0.48435937613192687  0.41557966931797097  0.6581933641969543  1.0000
  C   C19       1.0  0.7850331865491003  0.006870143554444076  0.41775403266456135  1.0000
  C   C20       1.0  0.7688192336613825  0.9056070795347111  0.4179923506101489  1.0000
  C   C21       1.0  0.5889231282131108  0.36710793531685215  0.5820409959504361  1.0000
  C   C22       1.0  0.48742009830368005  0.3507062880711799  0.5818181692810783  1.0000
  C   C23       1.0  0.8791215681984567  0.2229677374379975  0.4234729170443502  1.0000
  C   C24       1.0  0.7131747310390537  0.28212698990589746  0.12174729703844639  1.0000
  C   C25       1.0  0.3119766544554706  0.706691706268124  0.6948554724745861  1.0000
  C   C26       1.0  0.16056498755351384  0.5916762637051178  0.878368735920006  1.0000
  C   C27       1.0  0.011869709569246876  0.617121162670088  0.305063820488968  1.0000
  C   C28       1.0  0.8525567803868483  0.7507493580322588  0.4785909012440472  1.0000
  C   C29       1.0  0.8384468101518435  0.22063358003337186  0.1593156336644983  1.0000
  C   C30       1.0  0.2160157732411179  0.7976863608109637  0.6633127415416027  1.0000
  C   C31       1.0  0.061398779574951254  0.679271917609384  0.8406783977834352  1.0000
  C   C32       1.0  0.13455644120024604  0.5528402704582548  0.3368054435614313  1.0000
  C   C33       1.0  0.9476609184247876  0.29600422251485253  0.6004040193280106  1.0000
  C   C34       1.0  0.7669525248032302  0.6508673651334502  0.3033113063913576  1.0000
  C   C35       1.0  0.6955832688472442  0.3472123608653632  0.3994998441967116  1.0000
  C   C36       1.0  0.3475417685644614  0.46363654729382364  0.6966962989781393  1.0000
  C   C37       1.0  0.690802618134427  0.36579030253240313  0.49268853798283635  1.0000
  C   C38       1.0  0.3739569225884909  0.4138266833727187  0.6288376300716296  1.0000
  C   C39       1.0  0.8730609726957823  0.19809418715630756  0.5071930678542103  1.0000
  C   C40       1.0  0.7850372687278978  0.745182967233312  0.3711266993568857  1.0000
  C   C41       1.0  0.7235752142501681  0.19583760209243908  0.07666951584375432  1.0000
  C   C42       1.0  0.33108523499550563  0.811148066827826  0.7208098929551737  1.0000
  C   C43       1.0  0.11928975060386222  0.6471332604600305  0.923374901178967  1.0000
  C   C44       1.0  0.09059217761542021  0.6104391863966399  0.27932533866828635  1.0000
  C   C45       1.0  0.20823692072109173  0.6331662994988462  0.12104432169886083  1.0000
  C   C46       1.0  0.016730688588261062  0.6507459192865284  0.09492621606227664  1.0000
  C   C47       1.0  0.5118618809331893  0.08694467226199963  0.8791024357086671  1.0000
  C   C48       1.0  0.5557983034726066  0.9216992572514255  0.9051616871068974  1.0000
  C   C49       1.0  0.10293699506302545  0.5476835774366862  0.11065994048020404  1.0000
  C   C50       1.0  0.12211232620734343  0.7361446230253745  0.10450659092545324  1.0000
  C   C51       1.0  0.43685515132563807  0.9919678120311274  0.8894635812267426  1.0000
  C   C52       1.0  0.6315513546510801  0.017554693026390674  0.8955999353223876  1.0000
  C   C53       1.0  0.10512790810571469  0.6333284636711412  0.19476949221827775  1.0000
  C   C54       1.0  0.11943552318918893  0.6498688400754915  0.021062140450283047  1.0000
  C   C55       1.0  0.43849680661293194  0.9101926154514004  0.8053492803675867  1.0000
  C   C56       1.0  0.6286062573910202  0.09823157570638585  0.9790592629289919  1.0000
  Br  Br1       1.0  0.9181943969377001  0.14150966451239813  0.1645810152226732  1.0000
  Br  Br2       1.0  0.8766293252708622  0.4503340439214368  0.8770470884791025  1.0000
  Br  Br3       1.0  0.49425079714595194  0.011552721331731929  0.661973156107699  1.0000
  Br  Br4       1.0  0.5731933498263826  0.9994231861588857  0.12306557005602059  1.0000
  Br  Br5       1.0  0.3498506365274636  0.8325980997496104  0.33800633294747234  1.0000
  Br  Br6       1.0  0.1686030660616213  0.9021940134580645  0.6529175149636403  1.0000
  Br  Br7       1.0  0.9768540684215525  0.7536205440669619  0.8352879014855009  1.0000
  Br  Br8       1.0  0.2495479361265042  0.5158882201578336  0.3473021752662647  1.0000
  N   N1        1.0  0.8610490127748845  0.4878444834463878  0.5350351199527028  1.0000
  N   N2        1.0  0.19574074174661152  0.638588688132863  0.6309917915586566  1.0000
  N   N3        1.0  0.13035695749925233  0.5920614707522347  0.7789514115777578  1.0000
  N   N4        1.0  0.007536763438892619  0.5647192913877034  0.36887767048410325  1.0000
  N   N5        1.0  0.8131081194399385  0.3514414976251885  0.221017537406219  1.0000
  N   N6        1.0  0.8920824614787293  0.31332774286033066  0.24483374680016834  1.0000
  N   N7        1.0  0.13606122033559132  0.6952081326064529  0.611202651344179  1.0000
  N   N8        1.0  0.06843755736787237  0.647216410316325  0.7550985170176788  1.0000
  N   N9        1.0  0.1929187617045614  0.3980320774538697  0.5254383114175454  1.0000
  N   N10       1.0  0.08397456621082004  0.5248585662630205  0.3887187813773565  1.0000
  N   N11       1.0  0.995877797350758  0.3711065187773315  0.5737316142664641  1.0000
  N   N12       1.0  0.8186090236824554  0.6044962281962754  0.36547837958577395  1.0000
  N   N13       1.0  0.7973401646569586  0.4221751737256908  0.4261975662846142  1.0000
  N   N14       1.0  0.23902875422817987  0.4532416153635311  0.634582686681462  1.0000
  N   N15       1.0  0.952726209971452  0.3260370189411432  0.4648841911866984  1.0000
  N   N16       1.0  0.8724460559815127  0.667507009299058  0.4745861703117243  1.0000
