data_image0
_chemical_formula_structural       Zn6H12C36I8O24F4
_chemical_formula_sum              "Zn6 H12 C36 I8 O24 F4"
_cell_length_a       16.956269496221527
_cell_length_b       16.956598068719487
_cell_length_c       17.064157849191986
_cell_angle_alpha    100.51881194001443
_cell_angle_beta     114.11100784790042
_cell_angle_gamma    113.90304995260097

_space_group_name_H-M_alt    "P 1"
_space_group_IT_number       1

loop_
  _space_group_symop_operation_xyz
  'x, y, z'

loop_
  _atom_site_type_symbol
  _atom_site_label
  _atom_site_symmetry_multiplicity
  _atom_site_fract_x
  _atom_site_fract_y
  _atom_site_fract_z
  _atom_site_occupancy
  Zn  Zn1       1.0  0.9293301723026699  0.9293378903866197  4.377956145271733e-06  1.0000
  Zn  Zn2       1.0  0.5002222709393038  0.9399549022432369  0.4401879439405861  1.0000
  Zn  Zn3       1.0  0.4997773484013948  0.06004289261079529  0.5598121652316621  1.0000
  Zn  Zn4       1.0  0.07067141086567845  0.07066351394768604  0.9999969919911182  1.0000
  Zn  Zn5       1.0  0.07038634735626205  0.501594011221684  0.5719809874578204  1.0000
  Zn  Zn6       1.0  0.9296084605661574  0.4984057350111756  0.4280150320925246  1.0000
  H   H1        1.0  0.8927858160999733  0.08472471896252656  0.20669617918719752  1.0000
  H   H2        1.0  0.14551464758613974  0.8546683518937217  0.9043834882875929  1.0000
  H   H3        1.0  0.04971637476418786  0.758864137355147  0.9043922433629846  1.0000
  H   H4        1.0  0.9502880012771016  0.24113752285264659  0.09561049701050457  1.0000
  H   H5        1.0  0.854486180251321  0.14533199466576716  0.09561641529304415  1.0000
  H   H6        1.0  0.8498103922268213  0.2527310215156221  0.1977603983574384  1.0000
  H   H7        1.0  0.1501927574572264  0.7472716980285201  0.8022404108292918  1.0000
  H   H8        1.0  0.054981893024688575  0.6520512363183358  0.802240560860355  1.0000
  H   H9        1.0  0.10721637134397348  0.9152772451697261  0.7933072144461095  1.0000
  H   H10       1.0  0.9450216146783107  0.34795024673017866  0.1977598931574534  1.0000
  H   H11       1.0  0.8780324321586335  0.6860896701601008  0.793306903819243  1.0000
  H   H12       1.0  0.12196967913510552  0.3139109688968845  0.20669499146730172  1.0000
  C   C1        1.0  0.13920750038888494  0.00028963003487802335  0.13948734919793543  1.0000
  C   C2        1.0  0.13933781246967664  0.63934912609583  0.49998448047909966  1.0000
  C   C3        1.0  0.8606406710846598  0.3606484534116561  0.49999665271509025  1.0000
  C   C4        1.0  0.9988708746917966  0.3813758939742727  0.3802522155919021  1.0000
  C   C5        1.0  0.001114554160480447  0.6186252469625233  0.619730895543718  1.0000
  C   C6        1.0  0.639405571519653  0.13941808951021545  0.5000003296832319  1.0000
  C   C7        1.0  0.3605924634448598  0.8605820011757788  0.4999982034711721  1.0000
  C   C8        1.0  0.8607940827794636  0.9997117742994279  0.8605140207493279  1.0000
  C   C9        1.0  0.36040261388459544  7.88256650210778e-05  0.3604933022898394  1.0000
  C   C10       1.0  0.6395986456317716  0.9999173051268146  0.6395006364427473  1.0000
  C   C11       1.0  0.7827919933075763  0.28279986106264965  0.500013531571611  1.0000
  C   C12       1.0  0.21720468454068256  0.7172029163978808  0.49998861955601376  1.0000
  C   C13       1.0  0.717084423760312  0.21708752722471314  0.5000000001478428  1.0000
  C   C14       1.0  0.28291174376860095  0.7829138365809173  0.49999950945517224  1.0000
  C   C15       1.0  0.003980165333352732  0.11874315244887164  0.12268512311341342  1.0000
  C   C16       1.0  0.9960219459603865  0.8812574866081139  0.8773167721731314  1.0000
  C   C17       1.0  0.9716978475015239  0.14388406543142918  0.2565458376568871  1.0000
  C   C18       1.0  0.02830583030792161  0.8561178888353853  0.7434554968691245  1.0000
  C   C19       1.0  0.8873341032576647  0.7151359540551071  0.7434466917993207  1.0000
  C   C20       1.0  0.11266849930427021  0.28486612541536277  0.2565564071842133  1.0000
  C   C21       1.0  0.9760401352181419  0.21774228885234959  0.32967572516832894  1.0000
  C   C22       1.0  0.02396159900549582  0.7822596134588339  0.6703250874595241  1.0000
  C   C23       1.0  0.8880868255443631  0.6463567933478844  0.6703206642507099  1.0000
  C   C24       1.0  0.11191390833685233  0.35364440706856476  0.3296798571684861  1.0000
  C   C25       1.0  0.28261945372098296  0.0005220501148670959  0.2831428300418679  1.0000
  C   C26       1.0  0.9294186309587928  0.21213435971894512  0.141523705785474  1.0000
  C   C27       1.0  0.07058565112625101  0.7878681543458159  0.8584796524265813  1.0000
  C   C28       1.0  0.009834383431368077  0.18890217409575177  0.1986941984127242  1.0000
  C   C29       1.0  0.9901675577559245  0.8110979937429336  0.8013068163656173  1.0000
  C   C30       1.0  0.7173849020240226  0.9994774846778613  0.7168549184910589  1.0000
  C   C31       1.0  0.0023617456489475443  0.3103444682937565  0.312730465185652  1.0000
  C   C32       1.0  0.9976403097364328  0.6896584032126116  0.6872706706309872  1.0000
  C   C33       1.0  0.9262357028118018  0.2828278172309524  0.20905841268397296  1.0000
  C   C34       1.0  0.07376586130538244  0.7171736138619311  0.7909415194356768  1.0000
  C   C35       1.0  0.2169236158677421  0.0006211450567477397  0.21756036363400003  1.0000
  C   C36       1.0  0.783080174949113  0.999379928594536  0.7824417908810589  1.0000
  I   I1        1.0  0.03937259157871147  0.06999349416201282  0.3211382464479088  1.0000
  I   I2        1.0  0.1742863707520571  0.8460464365541188  0.6829855750680239  1.0000
  I   I3        1.0  0.8369738732245864  0.5087177788387366  0.6830152161216745  1.0000
  I   I4        1.0  0.16303359780022927  0.4912851331963069  0.3169877800392058  1.0000
  I   I5        1.0  0.8257172702001866  0.15395772340350092  0.31701643781569555  1.0000
  I   I6        1.0  0.9606285764716419  0.930007794834083  0.6788634181491277  1.0000
  I   I7        1.0  0.7488400875504553  0.7182264584346997  0.67884935378698  1.0000
  I   I8        1.0  0.25116175968059207  0.28177456326095307  0.32115227882992065  1.0000
  O   O1        1.0  0.04685756898274462  0.9381519378118668  0.10882348255839248  1.0000
  O   O2        1.0  0.0619870981567204  0.9687624028342373  0.9078788930428489  1.0000
  O   O3        1.0  0.9391032915393823  0.8458813089152674  0.9078932619540583  1.0000
  O   O4        1.0  0.06089670606209549  0.15411880696778016  0.09210723092612481  1.0000
  O   O5        1.0  0.9380158814753159  0.03123841338203444  0.09212528859937665  1.0000
  O   O6        1.0  0.9528236078185587  0.3926031752967631  0.5635316394363273  1.0000
  O   O7        1.0  0.04718182566420382  0.6074005386396097  0.43647145266496784  1.0000
  O   O8        1.0  0.8290681861560926  0.38928702560289713  0.43647906133436015  1.0000
  O   O9        1.0  0.953143335004917  0.06184973382288224  0.8911779193690068  1.0000
  O   O10       1.0  0.17093135833395226  0.6107101642399544  0.5635273564677662  1.0000
  O   O11       1.0  0.058567868237219  0.4096278598849282  0.4682023931698964  1.0000
  O   O12       1.0  0.9414357359122646  0.590377073653926  0.5318045510352292  1.0000
  O   O13       1.0  0.9359972302108375  0.4056509174246089  0.3416088159877829  1.0000
  O   O14       1.0  0.8293227080401949  0.938039162711839  0.8911920385037605  1.0000
  O   O15       1.0  0.06400880511172598  0.5943476198528402  0.6583934447373636  1.0000
  O   O16       1.0  0.6090468739835303  0.16142598176026013  0.5529099795248912  1.0000
  O   O17       1.0  0.39095186045794617  0.8385759670403632  0.44709351348994636  1.0000
  O   O18       1.0  0.608504812655312  0.05615102242874321  0.44710034013871786  1.0000
  O   O19       1.0  0.3914933175105657  0.9438503665739406  0.5529011291900758  1.0000
  O   O20       1.0  0.1706784600101585  0.06196212628425712  0.10880962609327582  1.0000
  O   O21       1.0  0.39086312917149263  0.052495949338826654  0.4433709842965854  1.0000
  O   O22       1.0  0.6091410374703443  0.9475017088846088  0.5566286988642233  1.0000
  O   O23       1.0  0.3910017670691133  0.9472256884067111  0.33823638751055535  1.0000
  O   O24       1.0  0.6089975869637598  0.05277033691233886  0.6617599049791068  1.0000
  F   F1        1.0  0.04445394933021873  0.23875186523901706  0.4210048341151094  1.0000
  F   F2        1.0  0.9555516352078328  0.7612523466742334  0.5789977006667684  1.0000
  F   F3        1.0  0.8177413642004011  0.6234256443220617  0.5790017759197569  1.0000
  F   F4        1.0  0.1822601250116947  0.37657661386920455  0.4210002118660726  1.0000
