data_image0
_chemical_formula_structural       Mg12H32C56N8O40
_chemical_formula_sum              "Mg12 H32 C56 N8 O40"
_cell_length_a       11.045986399631582
_cell_length_b       13.204139610008939
_cell_length_c       17.886320217365267
_cell_angle_alpha    89.99993207344843
_cell_angle_beta     103.9578180061206
_cell_angle_gamma    89.99990049904

_space_group_name_H-M_alt    "P 1"
_space_group_IT_number       1

loop_
  _space_group_symop_operation_xyz
  'x, y, z'

loop_
  _atom_site_type_symbol
  _atom_site_label
  _atom_site_symmetry_multiplicity
  _atom_site_fract_x
  _atom_site_fract_y
  _atom_site_fract_z
  _atom_site_occupancy
  Mg  Mg1       1.0  0.957135060459933  0.4631926532018724  0.9131635991121454  1.0000
  Mg  Mg2       1.0  0.24979652573312447  0.5942966835111392  0.9998338502017245  1.0000
  Mg  Mg3       1.0  0.45724338194131053  0.5360853138539382  0.9132664318621478  1.0000
  Mg  Mg4       1.0  0.5428665362700328  0.963190978088221  0.586837413308366  1.0000
  Mg  Mg5       1.0  0.25020241608078203  0.0942978492311752  0.5001659757424405  1.0000
  Mg  Mg6       1.0  0.0427548343097897  0.0360866388961796  0.5867316451158402  1.0000
  Mg  Mg7       1.0  0.04286562473175339  0.5368088205771996  0.08683718131755568  1.0000
  Mg  Mg8       1.0  0.7502014020970051  0.4057047902712938  0.00016536514344518666  1.0000
  Mg  Mg9       1.0  0.5427527616925473  0.46391010122593457  0.08673025760092656  1.0000
  Mg  Mg10      1.0  0.45713331761152187  0.036810495693949  0.4131604363704112  1.0000
  Mg  Mg11      1.0  0.7497973770080152  0.9057043818878727  0.49983354174393924  1.0000
  Mg  Mg12      1.0  0.957244938517931  0.9639133202076591  0.41326842830792276  1.0000
  H   H1        1.0  0.6265342426511465  0.712080130070369  0.7548347092417556  1.0000
  H   H2        1.0  0.9425865392275552  0.6808329625890791  0.6550572806085028  1.0000
  H   H3        1.0  0.0328974430504587  0.5552206647814018  0.7602724128030259  1.0000
  H   H4        1.0  0.476375972018566  0.6498420291236613  0.04317279377088568  1.0000
  H   H5        1.0  0.023367612171860203  0.6494667071248016  0.956164125702955  1.0000
  H   H6        1.0  0.12703541318354894  0.28695851597178285  0.7556304955944952  1.0000
  H   H7        1.0  0.44649560742745104  0.31347353215961254  0.6584859197583057  1.0000
  H   H8        1.0  0.5364810581930542  0.43966940710235036  0.7632751660728372  1.0000
  H   H9        1.0  0.8734606861364115  0.21209357344427093  0.7451609487050843  1.0000
  H   H10       1.0  0.5574093196706612  0.18083231368876795  0.8449407896900565  1.0000
  H   H11       1.0  0.4671100108975921  0.05521353108362348  0.7397282637785308  1.0000
  H   H12       1.0  0.0236236391833344  0.14984502712646017  0.4568242832963918  1.0000
  H   H13       1.0  0.47663210337828593  0.1494651927627331  0.5438363409895856  1.0000
  H   H14       1.0  0.3729713773655163  0.7869712336171445  0.7443721263983106  1.0000
  H   H15       1.0  0.0535201793584932  0.8134880711128857  0.8415254082650063  1.0000
  H   H16       1.0  0.9635250986769821  0.9396736733870981  0.7367310774382217  1.0000
  H   H17       1.0  0.3734673954333374  0.28792210104659693  0.24516566632230752  1.0000
  H   H18       1.0  0.0574123617612088  0.3191677538551972  0.34494097393591966  1.0000
  H   H19       1.0  0.9671006063670902  0.44477777965076365  0.23972346692785607  1.0000
  H   H20       1.0  0.5236230505585694  0.3501549006320985  0.9568221251597036  1.0000
  H   H21       1.0  0.9766321403919205  0.35053325197858237  0.04383650365682707  1.0000
  H   H22       1.0  0.8729681104406666  0.7130308403937349  0.2443696261829515  1.0000
  H   H23       1.0  0.5535069227675322  0.6865218829113574  0.34151571875272413  1.0000
  H   H24       1.0  0.4635167885813232  0.5603320666782564  0.23672627301640856  1.0000
  H   H25       1.0  0.12653349089815447  0.787917745738234  0.25483821828686354  1.0000
  H   H26       1.0  0.4425820797507781  0.8191691600993777  0.15505736815928367  1.0000
  H   H27       1.0  0.5328925800844501  0.944785670679977  0.26027170692216817  1.0000
  H   H28       1.0  0.9763771068011166  0.850155689315727  0.5431748293257143  1.0000
  H   H29       1.0  0.5233695549720351  0.8505355236781824  0.4561634786393751  1.0000
  H   H30       1.0  0.6270314162539846  0.21302948282751538  0.255622284941296  1.0000
  H   H31       1.0  0.9464953468515915  0.18651567466606173  0.15848001304073017  1.0000
  H   H32       1.0  0.0364857238552148  0.060330829733260295  0.2632747003849332  1.0000
  C   C1        1.0  0.7718793132372781  0.607508225803592  0.8091297061511893  1.0000
  C   C2        1.0  0.7165555576942141  0.6790048308909675  0.7540482671941999  1.0000
  C   C3        1.0  0.7793537257117791  0.707368664153009  0.6981125272851116  1.0000
  C   C4        1.0  0.8935577820194849  0.6611679164523635  0.6990399798017675  1.0000
  C   C5        1.0  0.9431580369100914  0.5917305158941559  0.7569505744002496  1.0000
  C   C6        1.0  0.7092839972940865  0.5693323137834482  0.8700529841166968  1.0000
  C   C7        1.0  0.7273675604992675  0.7873550325148527  0.6383804953726083  1.0000
  C   C8        1.0  0.273009325513641  0.39071445975492475  0.8102448078911024  1.0000
  C   C9        1.0  0.21775703790791573  0.31905747375206767  0.7553181623279739  1.0000
  C   C10       1.0  0.2814247446032923  0.28948190017084846  0.7001339630598976  1.0000
  C   C11       1.0  0.3966945518435594  0.3342829152896272  0.7018295813795133  1.0000
  C   C12       1.0  0.4460691948960616  0.40408669661038477  0.7594905130314088  1.0000
  C   C13       1.0  0.2096407110018816  0.4298809604491041  0.8704779827548562  1.0000
  C   C14       1.0  0.22887015415645356  0.21017125618704574  0.6400448492176876  1.0000
  C   C15       1.0  0.7281186356983156  0.10750985821449889  0.6908676424798228  1.0000
  C   C16       1.0  0.783442211577885  0.1790100750156824  0.7459489955660671  1.0000
  C   C17       1.0  0.7206449657083881  0.2073739061174038  0.8018831846725119  1.0000
  C   C18       1.0  0.6064437018076703  0.16116802710030242  0.8009595764753853  1.0000
  C   C19       1.0  0.5568463584980492  0.09173155520533528  0.7430511862923409  1.0000
  C   C20       1.0  0.7907158115091804  0.06933547178054769  0.6299474921850531  1.0000
  C   C21       1.0  0.7726243204624836  0.2873616112237443  0.8616162867675284  1.0000
  C   C22       1.0  0.22699432537716285  0.8907206692785719  0.6897594600246109  1.0000
  C   C23       1.0  0.2822523077644021  0.8190665380119384  0.7446893218162953  1.0000
  C   C24       1.0  0.2185855269548753  0.7894962661914277  0.7998759314168422  1.0000
  C   C25       1.0  0.1033193984480221  0.8342974542393405  0.7981791957656482  1.0000
  C   C26       1.0  0.053937159489016985  0.9040938327582283  0.7405158598440308  1.0000
  C   C27       1.0  0.2903628009374373  0.929890965266402  0.629527349991015  1.0000
  C   C28       1.0  0.2711349033051889  0.7101755974391891  0.8599592306692756  1.0000
  C   C29       1.0  0.22812045958568214  0.39249551999149895  0.19087036727029974  1.0000
  C   C30       1.0  0.2834432419720159  0.32099815756578204  0.24595276702894606  1.0000
  C   C31       1.0  0.22064704053660478  0.29263205228963324  0.30188602940097536  1.0000
  C   C32       1.0  0.1064429639640139  0.3388335573280727  0.30095913281987646  1.0000
  C   C33       1.0  0.056843661970013684  0.40826868587116383  0.24304813335757558  1.0000
  C   C34       1.0  0.2907139507990166  0.43066991733768833  0.1299456752920065  1.0000
  C   C35       1.0  0.2726303875947877  0.2126464412680349  0.3616181640365425  1.0000
  C   C36       1.0  0.7269894133721878  0.6092794406414369  0.18975789414555777  1.0000
  C   C37       1.0  0.7822445596629704  0.6809333972902109  0.24468332511494836  1.0000
  C   C38       1.0  0.7185814147941159  0.7105112428798249  0.29987105941592057  1.0000
  C   C39       1.0  0.6033069849288566  0.6657132571190444  0.29817357386828286  1.0000
  C   C40       1.0  0.5539313889835568  0.5959087184604002  0.2405130470820253  1.0000
  C   C41       1.0  0.7903598728853466  0.5701083959156676  0.12952557736221587  1.0000
  C   C42       1.0  0.7711324165635529  0.7898264308995947  0.3599556774199398  1.0000
  C   C43       1.0  0.27188020449482764  0.8924938875814092  0.3091322798708304  1.0000
  C   C44       1.0  0.21655472282776603  0.8209936707809504  0.25405173651496676  1.0000
  C   C45       1.0  0.2793520497549054  0.79262832500455  0.19811532366535534  1.0000
  C   C46       1.0  0.3935513470820311  0.8388296599914967  0.19904140940363385  1.0000
  C   C47       1.0  0.4431552998475183  0.9082729479268324  0.25694863333433904  1.0000
  C   C48       1.0  0.2092829476253613  0.9306705460282958  0.37005465390831915  1.0000
  C   C49       1.0  0.22736892394988928  0.7126436492535646  0.13838272915722163  1.0000
  C   C50       1.0  0.7730082858716685  0.1092762604707289  0.3102399547414335  1.0000
  C   C51       1.0  0.7177530811051724  0.1809341784257157  0.2553111020959874  1.0000
  C   C52       1.0  0.7814235721671564  0.21050672225725717  0.2001256527134245  1.0000
  C   C53       1.0  0.8966962290817476  0.16570629154188043  0.2018234458599934  1.0000
  C   C54       1.0  0.9460690606868808  0.09590991302933112  0.25948749481736394  1.0000
  C   C55       1.0  0.7096379855758315  0.07010899383844559  0.3704706507595075  1.0000
  C   C56       1.0  0.7288640787459784  0.2898198176391489  0.14003680013425418  1.0000
  N   N1        1.0  0.8846853453464758  0.5659189104103248  0.811632501530255  1.0000
  N   N2        1.0  0.3864575198114579  0.4313819229141486  0.813272122697029  1.0000
  N   N3        1.0  0.6153134178290358  0.06591541211173528  0.6883711634203136  1.0000
  N   N4        1.0  0.11354608968328958  0.9313860329251397  0.6867304285696106  1.0000
  N   N5        1.0  0.11531252169184113  0.43408256337073675  0.18836838162297198  1.0000
  N   N6        1.0  0.6135366775051238  0.5686150068420375  0.18672648836754036  1.0000
  N   N7        1.0  0.3846825231606984  0.934083789654842  0.31163108540066276  1.0000
  N   N8        1.0  0.8864602318141978  0.0686161981881952  0.3132701464125985  1.0000
  O   O1        1.0  0.7779707021353842  0.5147879606116632  0.9223504723550419  1.0000
  O   O2        1.0  0.5966868483703465  0.5906855532126016  0.8648830073498387  1.0000
  O   O3        1.0  0.6360993913100116  0.8391070435246915  0.6482535783374599  1.0000
  O   O4        1.0  0.7818151181005604  0.7965695730941178  0.5838166125185679  1.0000
  O   O5        1.0  0.44692332306620836  0.5845261891286384  0.021448704091881175  1.0000
  O   O6        1.0  0.05251623019950811  0.5841674483652781  0.9780750093632377  1.0000
  O   O7        1.0  0.278203691131516  0.484072961217855  0.9230517722151531  1.0000
  O   O8        1.0  0.09662848088098738  0.4093632408934554  0.8646004810995364  1.0000
  O   O9        1.0  0.13750696360536813  0.15839437114169636  0.6497487962975156  1.0000
  O   O10       1.0  0.2829340347167815  0.20167847159576976  0.5852493807754867  1.0000
  O   O11       1.0  0.7220272568975759  0.0147814631835956  0.5776531029355991  1.0000
  O   O12       1.0  0.90331130494949  0.0906870216641096  0.635109913997432  1.0000
  O   O13       1.0  0.8638922988140648  0.3391150189955141  0.8517448094548923  1.0000
  O   O14       1.0  0.7181766789157537  0.2965753823080419  0.9161818263632779  1.0000
  O   O15       1.0  0.053076371209684205  0.08452759218092609  0.478550675165806  1.0000
  O   O16       1.0  0.4474836696995865  0.08416677148179018  0.5219249798182446  1.0000
  O   O17       1.0  0.22179800175939596  0.9840740682411776  0.57694818988476  1.0000
  O   O18       1.0  0.40337684655227685  0.9093760983715028  0.6354079581084944  1.0000
  O   O19       1.0  0.3624954260736076  0.6583985940559388  0.8502548925618995  1.0000
  O   O20       1.0  0.21707197671467773  0.701683557071391  0.9147548603818334  1.0000
  O   O21       1.0  0.22202708384052977  0.48521881453532956  0.07765263453907069  1.0000
  O   O22       1.0  0.4033075515798927  0.40931592057765426  0.13511004435181917  1.0000
  O   O23       1.0  0.36389486679743044  0.16089064357111477  0.35174336491859737  1.0000
  O   O24       1.0  0.21818278946657438  0.20343114334960427  0.4161831587630757  1.0000
  O   O25       1.0  0.5530728205657454  0.4154707406277396  0.9785479853702765  1.0000
  O   O26       1.0  0.9474835223633207  0.4158332680763621  0.02192561999608959  1.0000
  O   O27       1.0  0.7217913982851059  0.5159254832131026  0.07694810179137329  1.0000
  O   O28       1.0  0.9033720219524  0.5906246007929923  0.13540530276252127  1.0000
  O   O29       1.0  0.8624928294900939  0.8416025586095938  0.35025072119204737  1.0000
  O   O30       1.0  0.7170704012590434  0.7983222448422466  0.4147514480019864  1.0000
  O   O31       1.0  0.2779724956633487  0.9852207679345424  0.4223475264228184  1.0000
  O   O32       1.0  0.09668753524460529  0.9093159667935565  0.36489000835368296  1.0000
  O   O33       1.0  0.1361008848083998  0.6608887268039254  0.14825587427882428  1.0000
  O   O34       1.0  0.28181930259519555  0.703429120827202  0.08381931058248428  1.0000
  O   O35       1.0  0.9469243139839063  0.915472366921641  0.5214501052648115  1.0000
  O   O36       1.0  0.5525170762839053  0.9158347022986459  0.4780741328034067  1.0000
  O   O37       1.0  0.7782055623774723  0.0159274055372691  0.42305082001336547  1.0000
  O   O38       1.0  0.5966229465355681  0.0906268900857938  0.3645915593774304  1.0000
  O   O39       1.0  0.6375017109837771  0.34159530634799035  0.1497402801648633  1.0000
  O   O40       1.0  0.7829288097985981  0.298316402033457  0.08524314036868928  1.0000
