data_image0
_chemical_formula_structural       Cd2P4H36C28N4O12
_chemical_formula_sum              "Cd2 P4 H36 C28 N4 O12"
_cell_length_a       5.55614492529159
_cell_length_b       11.215274132077214
_cell_length_c       14.225019881440376
_cell_angle_alpha    90.00029587933697
_cell_angle_beta     95.43079196159644
_cell_angle_gamma    90.00027790952136

_space_group_name_H-M_alt    "P 1"
_space_group_IT_number       1

loop_
  _space_group_symop_operation_xyz
  'x, y, z'

loop_
  _atom_site_type_symbol
  _atom_site_label
  _atom_site_symmetry_multiplicity
  _atom_site_fract_x
  _atom_site_fract_y
  _atom_site_fract_z
  _atom_site_occupancy
  Cd  Cd1       1.0  1.780379633899998e-06  0.9999951733725324  6.982474544999998e-07  1.0000
  Cd  Cd2       1.0  0.4999890466871407  0.5000007251493557  0.4999971977875788  1.0000
  P   P1        1.0  0.46281372971823515  0.8232603140140781  0.9174861943432404  1.0000
  P   P2        1.0  0.9628104789241619  0.6767287460003714  0.4174801862795334  1.0000
  P   P3        1.0  0.5371933838627215  0.1767348948485292  0.0825133937230689  1.0000
  P   P4        1.0  0.0371875008242881  0.3232655711952077  0.5825148770139918  1.0000
  H   H1        1.0  0.1294804369509919  0.655038983721475  0.8135448211948741  1.0000
  H   H2        1.0  0.6294737304831345  0.8449468068272312  0.3135457120709263  1.0000
  H   H3        1.0  0.8705357473813536  0.3449482003872717  0.18645647745420746  1.0000
  H   H4        1.0  0.3705134493910337  0.1550448354376286  0.6864510976255787  1.0000
  H   H5        1.0  0.15227681782445765  0.5479550779786991  0.6600161752830402  1.0000
  H   H6        1.0  0.6522749526022552  0.9520449149986231  0.16002047866517444  1.0000
  H   H7        1.0  0.847732056381226  0.45204815564969175  0.3399813628766282  1.0000
  H   H8        1.0  0.34772665863032876  0.04795207712750479  0.8399754095830687  1.0000
  H   H9        1.0  0.8111633642933712  0.7044227151054301  0.6207643153497885  1.0000
  H   H10       1.0  0.31117211841096554  0.7955845350713067  0.1207689553663158  1.0000
  H   H11       1.0  0.18884367055476056  0.2955831934393912  0.37923175502764656  1.0000
  H   H12       1.0  0.6888514865343539  0.20441959025691855  0.8792410286434063  1.0000
  H   H13       1.0  0.8142378268303575  0.8187467749820029  0.7733239749035903  1.0000
  H   H14       1.0  0.3142398848468702  0.6812605949091618  0.2733265165838787  1.0000
  H   H15       1.0  0.1857584081580087  0.18125913355557094  0.2266738418827856  1.0000
  H   H16       1.0  0.6857602179838055  0.3187453136705045  0.7266826782893503  1.0000
  H   H17       1.0  0.7495600129172645  0.6029245788348021  0.9299309161992967  1.0000
  H   H18       1.0  0.24953899336205157  0.8970658331461862  0.4299286443644093  1.0000
  H   H19       1.0  0.25045076365450575  0.3970715216807149  0.0700709039028382  1.0000
  H   H20       1.0  0.7504410496334872  0.10292491748201368  0.5700721437728902  1.0000
  H   H21       1.0  0.9088903976725864  0.7173858564856629  0.9964889153270207  1.0000
  H   H22       1.0  0.4088970613684639  0.7826169683080477  0.4964871050163921  1.0000
  H   H23       1.0  0.09110230037588712  0.28261648549420215  0.0035122977578865007  1.0000
  H   H24       1.0  0.5911011232798844  0.21738537368828048  0.5035171043480133  1.0000
  H   H25       1.0  0.7723506840529807  0.6252843882428678  0.1463764792735347  1.0000
  H   H26       1.0  0.2723362257331133  0.8747229370268955  0.6463736669437098  1.0000
  H   H27       1.0  0.22764918244855895  0.3747295450721992  0.8536221624794748  1.0000
  H   H28       1.0  0.727643817373732  0.12528832134791656  0.3536271212392563  1.0000
  H   H29       1.0  0.6254594699900622  0.5095632272647632  0.07697979454358259  1.0000
  H   H30       1.0  0.1254334394521734  0.9904308048012641  0.5769693336585178  1.0000
  H   H31       1.0  0.3745460879241308  0.490442681326698  0.9230309895240582  1.0000
  H   H32       1.0  0.8745355673447792  0.009566187272774598  0.42302264776353843  1.0000
  H   H33       1.0  0.9453869512483025  0.5236488931362687  0.0847477098153675  1.0000
  H   H34       1.0  0.44535542310271137  0.9763584429476778  0.5847405218327851  1.0000
  H   H35       1.0  0.05462763018628891  0.4763570154647355  0.9152626742253034  1.0000
  H   H36       1.0  0.5546082232275681  0.023651032104765993  0.4152540916778875  1.0000
  C   C1        1.0  0.47294308207106195  0.7440429931570449  0.8062185512567909  1.0000
  C   C2        1.0  0.9729407700424633  0.7559551670653731  0.30621641372030695  1.0000
  C   C3        1.0  0.5270658551431495  0.2559557822749027  0.1937818010631034  1.0000
  C   C4        1.0  0.0270555279399076  0.24404360835228542  0.6937842172203403  1.0000
  C   C5        1.0  0.28500698847952327  0.6671475258483994  0.7734521857175309  1.0000
  C   C6        1.0  0.784998342763487  0.8328472915464642  0.2734529619851997  1.0000
  C   C7        1.0  0.7150091958818551  0.3328450081072916  0.22654911294345942  1.0000
  C   C8        1.0  0.21499790794918286  0.16715237550535278  0.7265455583298248  1.0000
  C   C9        1.0  0.29686362410867423  0.6074144356352278  0.688323675043428  1.0000
  C   C10       1.0  0.7968646818838895  0.892586983220525  0.1883257244051535  1.0000
  C   C11       1.0  0.7031434895061609  0.39258701471548113  0.3116759130367726  1.0000
  C   C12       1.0  0.2031406080976908  0.1074109005608506  0.8116730994214549  1.0000
  C   C13       1.0  0.6653896262572446  0.694615529046864  0.6664816358725217  1.0000
  C   C14       1.0  0.16540027893657344  0.805392562819762  0.1664856767277882  1.0000
  C   C15       1.0  0.3346084008189792  0.30538859620843795  0.33351553807045786  1.0000
  C   C16       1.0  0.8346160157949855  0.1946115624872959  0.8335205467567874  1.0000
  C   C17       1.0  0.6662145184631144  0.758177338978484  0.7507993666296144  1.0000
  C   C18       1.0  0.16622084969057485  0.7418304181053444  0.2508022994629115  1.0000
  C   C19       1.0  0.3337834613385696  0.24182678626981866  0.24919569668574582  1.0000
  C   C20       1.0  0.8337863742557091  0.2581754904674867  0.7492022134249936  1.0000
  C   C21       1.0  0.7559699041702929  0.6551000775815082  0.9959124528705985  1.0000
  C   C22       1.0  0.25596278110363363  0.8448943506217004  0.4959104343060261  1.0000
  C   C23       1.0  0.24403186465377055  0.3448986978502758  0.004090470807000201  1.0000
  C   C24       1.0  0.7440227169947777  0.15509996658292377  0.5040919430336359  1.0000
  C   C25       1.0  0.7750567270934854  0.5737803081654248  0.0809752086734647  1.0000
  C   C26       1.0  0.27503551760455036  0.9262185684306488  0.5809688651730553  1.0000
  C   C27       1.0  0.22495414407092085  0.4262238171345131  0.9190308327017718  1.0000
  C   C28       1.0  0.7249390073328358  0.0737828818703079  0.4190275196234978  1.0000
  N   N1        1.0  0.4845361087770713  0.6202835459126419  0.6359419151031602  1.0000
  N   N2        1.0  0.9845407371351061  0.879721546451051  0.1359482498219577  1.0000
  N   N3        1.0  0.5154691339444853  0.3797170127851999  0.3640547981017903  1.0000
  N   N4        1.0  0.015475478786193299  0.12027901227970969  0.8640544559419823  1.0000
  O   O1        1.0  0.20157937246633403  0.8528241796388513  0.927857737062766  1.0000
  O   O2        1.0  0.7015740874679539  0.6471696698160869  0.42785575789919517  1.0000
  O   O3        1.0  0.7984222387807665  0.14717548741075598  0.0721381511914316  1.0000
  O   O4        1.0  0.2984148687746072  0.3528273222934217  0.5721397054272543  1.0000
  O   O5        1.0  0.5313972652001128  0.7210384546772062  0.9960629868934632  1.0000
  O   O6        1.0  0.03140755211578039  0.7789429511264528  0.49606339230213337  1.0000
  O   O7        1.0  0.46859357766970805  0.2789549708817205  0.003936054840856708  1.0000
  O   O8        1.0  0.9685924245381516  0.2210424496879354  0.5039401741851179  1.0000
  O   O9        1.0  0.6476723200052277  0.9216932716640611  0.9204399221856435  1.0000
  O   O10       1.0  0.14766929801523082  0.5782950493637385  0.42042640600930536  1.0000
  O   O11       1.0  0.35234024864472263  0.0782992622868761  0.0795612550691231  1.0000
  O   O12       1.0  0.8523321083561798  0.42170105109089207  0.5795603361839454  1.0000
