data_image0
_chemical_formula_structural       U4H16C20N8O20
_chemical_formula_sum              "U4 H16 C20 N8 O20"
_cell_length_a       6.550053570118439
_cell_length_b       8.347194163130759
_cell_length_c       13.57468806210634
_cell_angle_alpha    89.99973352360634
_cell_angle_beta     89.99963153304022
_cell_angle_gamma    90.00058243062787

_space_group_name_H-M_alt    "P 1"
_space_group_IT_number       1

loop_
  _space_group_symop_operation_xyz
  'x, y, z'

loop_
  _atom_site_type_symbol
  _atom_site_label
  _atom_site_symmetry_multiplicity
  _atom_site_fract_x
  _atom_site_fract_y
  _atom_site_fract_z
  _atom_site_occupancy
  U   U1        1.0  0.4563184110081265  0.4786639171056493  0.4642435242263829  1.0000
  U   U2        1.0  0.5436975576154379  0.9786679410101794  0.5357537034516469  1.0000
  U   U3        1.0  0.5436884091435557  0.4786791620692555  0.9642423550808203  1.0000
  U   U4        1.0  0.45632603283858925  0.9786670721121667  0.0357592925699208  1.0000
  H   H1        1.0  0.11373683650759146  0.37908200806884196  0.0849949687416895  1.0000
  H   H2        1.0  0.8862564681127264  0.8790727411584811  0.9150010727562117  1.0000
  H   H3        1.0  0.8862600095200431  0.37907722347541284  0.5849949469651888  1.0000
  H   H4        1.0  0.11373024163326306  0.8790763277047448  0.4150084611909577  1.0000
  H   H5        1.0  0.768513250688656  0.13736668100187896  0.2946705746357665  1.0000
  H   H6        1.0  0.23146776236918495  0.637360952282961  0.7053261637444947  1.0000
  H   H7        1.0  0.23147766848558854  0.13736745558285426  0.7946696372832489  1.0000
  H   H8        1.0  0.7685216650657123  0.6373697618173111  0.20533152104584926  1.0000
  H   H9        1.0  0.029448611275711297  0.20057011508330896  0.4243254378240379  1.0000
  H   H10       1.0  0.9705316938558608  0.7005652642454834  0.5756725916700915  1.0000
  H   H11       1.0  0.970541398054152  0.2005731908471517  0.9243229445934343  1.0000
  H   H12       1.0  0.029460281011282095  0.7005741686321371  0.07567729484581058  1.0000
  H   H13       1.0  0.730388388541229  0.7345236281900255  0.41433145450974235  1.0000
  H   H14       1.0  0.269604570077  0.23451840208151253  0.5856679504072487  1.0000
  H   H15       1.0  0.26961325129541786  0.7345235088932257  0.9143355555367306  1.0000
  H   H16       1.0  0.7304010812018615  0.2345281054919965  0.08567195265025868  1.0000
  C   C1        1.0  0.23182650563092008  0.383254578690959  0.2342726112802183  1.0000
  C   C2        1.0  0.7681622729714801  0.8832526777939123  0.7657241548496855  1.0000
  C   C3        1.0  0.768168404189545  0.38325244615968057  0.7342729558111145  1.0000
  C   C4        1.0  0.23182800790668515  0.8832560083408864  0.26572970362665416  1.0000
  C   C5        1.0  0.09279426555536927  0.3404231398675038  0.16106162991913203  1.0000
  C   C6        1.0  0.9071939581530584  0.8404182046855481  0.8389359963647747  1.0000
  C   C7        1.0  0.9071995387794016  0.3404185223121202  0.6610615431843028  1.0000
  C   C8        1.0  0.09279173830400818  0.8404204262273467  0.3389390297590324  1.0000
  C   C9        1.0  0.9049875075357786  0.20532066808695498  0.2761158791685645  1.0000
  C   C10       1.0  0.09499896593757029  0.7053149095824977  0.7238843466169411  1.0000
  C   C11       1.0  0.09500759275676528  0.20532035409173233  0.7761138918170615  1.0000
  C   C12       1.0  0.9049941477905673  0.7053188176606824  0.22388633393958196  1.0000
  C   C13       1.0  0.04890877189156838  0.2432518828231451  0.34912435473111  1.0000
  C   C14       1.0  0.9510797196919468  0.7432487086107713  0.6508757616913599  1.0000
  C   C15       1.0  0.9510904265448867  0.24325839741733546  0.8491226585109145  1.0000
  C   C16       1.0  0.04891638557216989  0.7432541741604339  0.150878194531046  1.0000
  C   C17       1.0  0.40419388320716354  0.49659281623169693  0.2171366118551887  1.0000
  C   C18       1.0  0.5958101040296453  0.9965930059620899  0.7828583541621654  1.0000
  C   C19       1.0  0.5958042500589611  0.49659170482785  0.7171367543893721  1.0000
  C   C20       1.0  0.4041905769265026  0.9965977113266008  0.28286484162361347  1.0000
  N   N1        1.0  0.2101219251688775  0.33493251198924406  0.3285032408675902  1.0000
  N   N2        1.0  0.7898708075640212  0.8349350852053802  0.6714958745584098  1.0000
  N   N3        1.0  0.789877209166107  0.3349353446381756  0.8285020447278981  1.0000
  N   N4        1.0  0.2101292639230364  0.8349346486231964  0.1714978073385112  1.0000
  N   N5        1.0  0.9257317865579534  0.2537864890945016  0.18261749605048996  1.0000
  N   N6        1.0  0.07425073467625509  0.7537822596616408  0.817381853346177  1.0000
  N   N7        1.0  0.07425908133433269  0.253781217587246  0.6826148363952314  1.0000
  N   N8        1.0  0.9257295466813528  0.7537815411564779  0.3173845130005971  1.0000
  O   O1        1.0  0.47925272432286176  0.5617536471768076  0.2934991138817225  1.0000
  O   O2        1.0  0.5207502098490124  0.06176389386361338  0.7065007890955711  1.0000
  O   O3        1.0  0.52074981513406  0.5617591251297827  0.7934972792327882  1.0000
  O   O4        1.0  0.4792409054119771  0.06175841587022291  0.20650041376791245  1.0000
  O   O5        1.0  0.46298960438384984  0.5282734818913396  0.13058494654647748  1.0000
  O   O6        1.0  0.5370266363374723  0.0282706560421033  0.8694128429572315  1.0000
  O   O7        1.0  0.5370116199519755  0.5282683074942583  0.63058379813274  1.0000
  O   O8        1.0  0.462987827009435  0.028278226375860506  0.36941693805427167  1.0000
  O   O9        1.0  0.20361395430788312  0.5577121335534444  0.4890355321227702  1.0000
  O   O10       1.0  0.7964057212876126  0.057728441958723  0.5109665924670849  1.0000
  O   O11       1.0  0.7963996661752187  0.5577258002487753  0.9890313690968853  1.0000
  O   O12       1.0  0.20362153619076645  0.05771956731824451  0.010965598827453996  1.0000
  O   O13       1.0  0.704564870297581  0.3944402995000332  0.4372135418932784  1.0000
  O   O14       1.0  0.2954545873885762  0.8944529225298086  0.5627861385802432  1.0000
  O   O15       1.0  0.29544579921298453  0.3944535643036248  0.9372175627837149  1.0000
  O   O16       1.0  0.7045675515918998  0.8944408556705313  0.0627924310100525  1.0000
  O   O17       1.0  0.6148622892010775  0.7344187573873314  0.46322557504549156  1.0000
  O   O18       1.0  0.38514135497295837  0.23441481963048721  0.5367782501464831  1.0000
  O   O19       1.0  0.3851493843532267  0.7344171636416162  0.9632234243814608  1.0000
  O   O20       1.0  0.6148741069830874  0.2344128194443513  0.0367774541241985  1.0000
