data_image0
_chemical_formula_structural       Ag2P4H48C56O4F6
_chemical_formula_sum              "Ag2 P4 H48 C56 O4 F6"
_cell_length_a       10.034539152835254
_cell_length_b       10.959404714074692
_cell_length_c       12.566340163617541
_cell_angle_alpha    84.01385803931112
_cell_angle_beta     78.40468681932427
_cell_angle_gamma    72.7660225178108

_space_group_name_H-M_alt    "P 1"
_space_group_IT_number       1

loop_
  _space_group_symop_operation_xyz
  'x, y, z'

loop_
  _atom_site_type_symbol
  _atom_site_label
  _atom_site_symmetry_multiplicity
  _atom_site_fract_x
  _atom_site_fract_y
  _atom_site_fract_z
  _atom_site_occupancy
  Ag  Ag1       1.0  0.21084095810574152  0.4586949883237708  0.21752287130836123  1.0000
  Ag  Ag2       1.0  0.7891579286210726  0.5413050055553797  0.7824730070104523  1.0000
  P   P1        1.0  0.3445511944731622  0.38739373157472556  0.04375246489891538  1.0000
  P   P2        1.0  0.6554507317172804  0.6126062270146804  0.9562461254971667  1.0000
  P   P3        1.0  0.06266828475492756  0.37270168849885726  0.3606201662236188  1.0000
  P   P4        1.0  0.9373317337877508  0.6273011372386819  0.6393800670004026  1.0000
  H   H1        1.0  0.35853814214671326  0.17185299074937183  0.19887740191362013  1.0000
  H   H2        1.0  0.6414641942876498  0.8281488536598192  0.8011249414386299  1.0000
  H   H3        1.0  0.5282104164364583  0.9552472615700796  0.20767951520217307  1.0000
  H   H4        1.0  0.4717925244274142  0.044752686642276315  0.7923197135978272  1.0000
  H   H5        1.0  0.7461495169802604  0.8947769272608709  0.06701637297994267  1.0000
  H   H6        1.0  0.2538503753066975  0.10522304792401371  0.9329817374737956  1.0000
  H   H7        1.0  0.7932788520057981  0.0526684362177079  0.9161267012215718  1.0000
  H   H8        1.0  0.20671929492251448  0.9473305949884009  0.08387176261021517  1.0000
  H   H9        1.0  0.6258161170669679  0.2653569764419288  0.9056164677590886  1.0000
  H   H10       1.0  0.37418406832147605  0.734642042327316  0.0943816791495351  1.0000
  H   H11       1.0  0.3963500697949768  0.35677110930303263  0.8042764836124691  1.0000
  H   H12       1.0  0.6036515815205448  0.6432298223364582  0.1957188828667142  1.0000
  H   H13       1.0  0.25779598494548145  0.29743514689680955  0.6881135948949649  1.0000
  H   H14       1.0  0.7422043403685803  0.7025667349009199  0.31188428418743547  1.0000
  H   H15       1.0  0.017658469048228664  0.27081939041740816  0.7658818054385325  1.0000
  H   H16       1.0  0.9823417117835758  0.7291796241932218  0.2341171383355913  1.0000
  H   H17       1.0  0.9180262661507045  0.3063651518818561  0.961432805669979  1.0000
  H   H18       1.0  0.08197725635948663  0.693632879340612  0.03856729290528452  1.0000
  H   H19       1.0  0.05857903911758905  0.36435285708357423  0.07993767517803721  1.0000
  H   H20       1.0  0.9414291601857273  0.6356432489097088  0.9200594718641426  1.0000
  H   H21       1.0  0.4986748503161636  0.45811473938748287  0.8862409883281046  1.0000
  H   H22       1.0  0.501327075874279  0.5418852192019161  0.11375760206797741  1.0000
  H   H23       1.0  0.3682283081110071  0.5848299966519549  0.9546376146262432  1.0000
  H   H24       1.0  0.6317733249779565  0.4151709183530914  0.04536093931495337  1.0000
  H   H25       1.0  0.7467023087825948  0.45511078178559944  0.3735595075044388  1.0000
  H   H26       1.0  0.25329740298868586  0.5448929878917427  0.6264430798612182  1.0000
  H   H27       1.0  0.5919452644269682  0.37471083987384907  0.28871559494722737  1.0000
  H   H28       1.0  0.4080560482207005  0.6252910065951626  0.7112877037321114  1.0000
  H   H29       1.0  0.6931679567377671  0.18115246439352012  0.1768864721813087  1.0000
  H   H30       1.0  0.3068289904448135  0.8188503675234813  0.8231166270239711  1.0000
  H   H31       1.0  0.9518215333292943  0.07155685947865463  0.15076484648990623  1.0000
  H   H32       1.0  0.048175720624676836  0.928445028498544  0.8492358985737526  1.0000
  H   H33       1.0  0.10973474519639129  0.15456819610460573  0.23435714882006667  1.0000
  H   H34       1.0  0.8902625133142122  0.8454336960312008  0.7656427993780853  1.0000
  H   H35       1.0  0.9838204841500086  0.1577635060025956  0.4939513929105744  1.0000
  H   H36       1.0  0.016179832050781173  0.8422383674779117  0.5060480799028255  1.0000
  H   H37       1.0  0.1094305051070137  0.9943051241080951  0.6191928505793101  1.0000
  H   H38       1.0  0.8905723231710566  0.005691986027443401  0.38080186485389333  1.0000
  H   H39       1.0  0.35444149280770176  0.9839804723160415  0.6374759046058075  1.0000
  H   H40       1.0  0.6455613354703685  0.01601663781949721  0.36251881082739607  1.0000
  H   H41       1.0  0.47550489664375556  0.13657595621340596  0.5281158646975257  1.0000
  H   H42       1.0  0.5244952841880489  0.8634230583972312  0.4718830790765978  1.0000
  H   H43       1.0  0.3504721075124379  0.30090744718945234  0.40249576856005126  1.0000
  H   H44       1.0  0.649527617928754  0.6990963349637201  0.5975044282090992  1.0000
  H   H45       1.0  0.8870847050556135  0.5638446862985093  0.4288535249868843  1.0000
  H   H46       1.0  0.11291706340234245  0.4361590875763994  0.5711455579935959  1.0000
  H   H47       1.0  0.8815755997094494  0.43144915098397985  0.5224557680230077  1.0000
  H   H48       1.0  0.11842382807363085  0.5685555834262176  0.47754518915676425  1.0000
  C   C1        1.0  0.3044910836879708  0.6575217954223974  0.3049808972983641  1.0000
  C   C2        1.0  0.695496167594328  0.3424763685639222  0.6950153617381929  1.0000
  C   C3        1.0  0.305391495804784  0.7851676042917577  0.34968127157851814  1.0000
  C   C4        1.0  0.6946069210221496  0.2148237547572123  0.6503241757394989  1.0000
  C   C5        1.0  0.4777798221244965  0.2327467220332764  0.05055108209011645  1.0000
  C   C6        1.0  0.5222210848358911  0.7672532427745583  0.9494476667675471  1.0000
  C   C7        1.0  0.45308997099444065  0.14463042023813702  0.1360457921458078  1.0000
  C   C8        1.0  0.5469093214196548  0.8553714553021907  0.8639546359946808  1.0000
  C   C9        1.0  0.54901669982884  0.023349247880652506  0.1415708010638426  1.0000
  C   C10       1.0  0.4509849241468514  0.9766516588071713  0.8584293466083538  1.0000
  C   C11       1.0  0.6714678086966757  0.9894154654278325  0.062490932786133206  1.0000
  C   C12       1.0  0.3285338198356554  0.010585445418598698  0.9375084180205705  1.0000
  C   C13       1.0  0.6978392364299779  0.0775529377979538  0.9781851700844584  1.0000
  C   C14       1.0  0.3021596229570134  0.9224470311295295  0.021815489427375167  1.0000
  C   C15       1.0  0.6016592948923929  0.19850491375483875  0.9719042964339693  1.0000
  C   C16       1.0  0.39833956905123785  0.8014950593312595  0.028095566212357388  1.0000
  C   C17       1.0  0.23755745231773762  0.36263398623010806  0.9509103335075653  1.0000
  C   C18       1.0  0.7624453850736115  0.6373631322226531  0.04908278819463157  1.0000
  C   C19       1.0  0.29197181524828153  0.34602380837847596  0.8398471313923821  1.0000
  C   C20       1.0  0.7080307062584056  0.6539742456968725  0.16014993818244966  1.0000
  C   C21       1.0  0.21289396101606425  0.31362034365922403  0.7736645125099457  1.0000
  C   C22       1.0  0.7871066573994767  0.6863805817228654  0.22633340302732555  1.0000
  C   C23       1.0  0.07877619654646399  0.29833522525493816  0.8169071503908327  1.0000
  C   C24       1.0  0.9212267534306874  0.7016647312746402  0.18309048467815361  1.0000
  C   C25       1.0  0.022652711345116868  0.31801442689221204  0.9270716324561478  1.0000
  C   C26       1.0  0.9773518349517757  0.6819836022704352  0.07292751079202728  1.0000
  C   C27       1.0  0.10168368626242599  0.3501098710326574  0.9938251934283714  1.0000
  C   C28       1.0  0.8983208600344739  0.6498881581299827  0.00617394981980368  1.0000
  C   C29       1.0  0.4462515430141991  0.492580234926585  0.9675699066951822  1.0000
  C   C30       1.0  0.5537493639461885  0.5074197298812566  0.03242884216247427  1.0000
  C   C31       1.0  0.9395934767940658  0.31107806731696297  0.3093313240603166  1.0000
  C   C32       1.0  0.060406244090486914  0.6889257106775944  0.6906696695743336  1.0000
  C   C33       1.0  0.7935655014062631  0.37188740084862104  0.32411526221431336  1.0000
  C   C34       1.0  0.2064348102378871  0.6281144684732711  0.6758850074645936  1.0000
  C   C35       1.0  0.7052004087257231  0.3254114875969734  0.27631551105449853  1.0000
  C   C36       1.0  0.2947972645854335  0.6745922945172397  0.7236873932343216  1.0000
  C   C37       1.0  0.7619551203156975  0.21783265243897892  0.21378014488731614  1.0000
  C   C38       1.0  0.2380399328890092  0.7821730591019861  0.7862222065494038  1.0000
  C   C39       1.0  0.9075890688290186  0.15621397551637276  0.19900545713451828  1.0000
  C   C40       1.0  0.09240861359541691  0.8437898149150558  0.800995853423295  1.0000
  C   C41       1.0  0.9961159367197322  0.2027231255061254  0.2460784061269621  1.0000
  C   C42       1.0  0.0038827694913976785  0.7972806628654824  0.753921949103763  1.0000
  C   C43       1.0  0.15899170210886382  0.23976424778437894  0.44016926687181274  1.0000
  C   C44       1.0  0.8410077211175704  0.7602404824672107  0.559832487173459  1.0000
  C   C45       1.0  0.0916560910996438  0.1530409899931868  0.5012204416821718  1.0000
  C   C46       1.0  0.9083442159878742  0.8469608751700975  0.4987806248622348  1.0000
  C   C47       1.0  0.16224425819647334  0.061165561316592204  0.5716061533887071  1.0000
  C   C48       1.0  0.8377553455456451  0.9388353744425403  0.4283911237446533  1.0000
  C   C49       1.0  0.30015294012206795  0.055417481435398507  0.5815982573828437  1.0000
  C   C50       1.0  0.6998482644964382  0.9445815311154109  0.4183997310641914  1.0000
  C   C51       1.0  0.3681131399773321  0.14088068900057493  0.520366924379907  1.0000
  C   C52       1.0  0.6318867386397214  0.8591192737084727  0.479633576670345  1.0000
  C   C53       1.0  0.2981352665357021  0.23282467758371447  0.4493867240587123  1.0000
  C   C54       1.0  0.7018634351187886  0.7671791066292853  0.5506144280375196  1.0000
  C   C55       1.0  0.9529870396194581  0.47987856308900956  0.46839060540413163  1.0000
  C   C56       1.0  0.04701472428185839  0.5201252066272916  0.5316092744418485  1.0000
  O   O1        1.0  0.21072828652339837  0.6689217357439149  0.24739857973798252  1.0000
  O   O2        1.0  0.7892718483223575  0.33107054233216365  0.7526112953950062  1.0000
  O   O3        1.0  0.3953212906385417  0.5596016162255992  0.3312967116369663  1.0000
  O   O4        1.0  0.6046869351652332  0.4403811248224657  0.6687015796198638  1.0000
  F   F1        1.0  0.20925526827684127  0.8909785260838138  0.31555402693431495  1.0000
  F   F2        1.0  0.790741403191447  0.10901188898639451  0.6844517737617437  1.0000
  F   F3        1.0  0.4358526377345414  0.8068077372755622  0.318676912126783  1.0000
  F   F4        1.0  0.5641441417629097  0.19318551171284784  0.6813341988015723  1.0000
  F   F5        1.0  0.2775253346322301  0.7802102797283368  0.46079981405295467  1.0000
  F   F6        1.0  0.7224692847060225  0.219780135302905  0.539208694162781  1.0000
