data_image0
_chemical_formula_structural       Hg4H20C24N4Cl8O4
_chemical_formula_sum              "Hg4 H20 C24 N4 Cl8 O4"
_cell_length_a       7.803311003646309
_cell_length_b       7.80322965272963
_cell_length_c       15.124309105616078
_cell_angle_alpha    86.0561572116798
_cell_angle_beta     86.05350881245394
_cell_angle_gamma    81.79692185481757

_space_group_name_H-M_alt    "P 1"
_space_group_IT_number       1

loop_
  _space_group_symop_operation_xyz
  'x, y, z'

loop_
  _atom_site_type_symbol
  _atom_site_label
  _atom_site_symmetry_multiplicity
  _atom_site_fract_x
  _atom_site_fract_y
  _atom_site_fract_z
  _atom_site_occupancy
  Hg  Hg1       1.0  0.011998294099214471  0.8741320150320747  0.8754404770414581  1.0000
  Hg  Hg2       1.0  0.12586542407517243  0.9880564923894041  0.62454300102889  1.0000
  Hg  Hg3       1.0  0.9880173212727641  0.12586231593222408  0.1245535076809929  1.0000
  Hg  Hg4       1.0  0.8741359832629456  0.011965533801735305  0.3754464873141146  1.0000
  H   H1        1.0  0.4093376005488594  0.8692038875951339  0.8451714706987091  1.0000
  H   H2        1.0  0.13075146614425395  0.5907459426979641  0.6548088357786311  1.0000
  H   H3        1.0  0.590687772093311  0.13077084907354222  0.1548387691532795  1.0000
  H   H4        1.0  0.8692238262371175  0.4092940490131411  0.34518031163316465  1.0000
  H   H5        1.0  0.6894559224230008  0.6680483494211844  0.845588612131472  1.0000
  H   H6        1.0  0.33188965508363566  0.3105939977312886  0.6544058162423667  1.0000
  H   H7        1.0  0.31056826311811386  0.33192513452816996  0.15442040105793353  1.0000
  H   H8        1.0  0.6680616929032012  0.6894150069922703  0.3455980505657977  1.0000
  H   H9        1.0  0.6834714048819636  0.3491084119077641  0.8824288642692011  1.0000
  H   H10       1.0  0.650823776637296  0.3165664894002163  0.6175892497820072  1.0000
  H   H11       1.0  0.31654765196068974  0.6508511167311755  0.11758089797960741  1.0000
  H   H12       1.0  0.3491346430459287  0.6834371671527961  0.38242512875226714  1.0000
  H   H13       1.0  0.39171402201802147  0.24518383424609883  0.9121135883627146  1.0000
  H   H14       1.0  0.7548001915511263  0.6082912893293299  0.5879010874200149  1.0000
  H   H15       1.0  0.6082877444740403  0.7548086748235503  0.08789026866956111  1.0000
  H   H16       1.0  0.2451858898668249  0.39169034799244434  0.4121051345694084  1.0000
  H   H17       1.0  0.08757810975841811  0.29937338536028335  0.9253705670900202  1.0000
  H   H18       1.0  0.7006332613990691  0.9124529952440597  0.5746233186262799  1.0000
  H   H19       1.0  0.9124337479667943  0.7006055939196687  0.0746208615709492  1.0000
  H   H20       1.0  0.29937638973879627  0.08754927352285344  0.4253646377819252  1.0000
  C   C1        1.0  0.41212639189230055  0.729876937185658  0.859058384369753  1.0000
  C   C2        1.0  0.2700942980704467  0.5879358485350323  0.6409262732363814  1.0000
  C   C3        1.0  0.5878810890884124  0.27011021722211137  0.14095074818661862  1.0000
  C   C4        1.0  0.7298842425657243  0.41208337736864564  0.3590655452664322  1.0000
  C   C5        1.0  0.5677399169755405  0.616490700042739  0.8600089149971666  1.0000
  C   C6        1.0  0.3834648669070617  0.43231195136421974  0.6399866296899931  1.0000
  C   C7        1.0  0.4322504051313842  0.38350110619378336  0.14000004749061654  1.0000
  C   C8        1.0  0.6165012427550919  0.567731146888903  0.3600106909649554  1.0000
  C   C9        1.0  0.5639194516082354  0.4400491698980532  0.8796757742179935  1.0000
  C   C10       1.0  0.5599061103889087  0.43610088871393776  0.6203332226001875  1.0000
  C   C11       1.0  0.436065666217189  0.5599157918093028  0.12033510736468861  1.0000
  C   C12       1.0  0.4400632993660593  0.5638944520425329  0.3796757610430177  1.0000
  C   C13       1.0  0.40330287860476227  0.38171950039625807  0.8964419968225741  1.0000
  C   C14       1.0  0.6182615843369064  0.5967284434327454  0.603564030062806  1.0000
  C   C15       1.0  0.5966904008897344  0.6182540819532321  0.10356558110758841  1.0000
  C   C16       1.0  0.38172303723817436  0.4032957751074094  0.39643594957725975  1.0000
  C   C17       1.0  0.25278630223939297  0.5017879437458888  0.892395461363165  1.0000
  C   C18       1.0  0.4981915974168982  0.7472456056992771  0.6075987822426185  1.0000
  C   C19       1.0  0.7472429297566522  0.4981994130732021  0.10760619704982588  1.0000
  C   C20       1.0  0.5018010140438705  0.25274720418183705  0.3923961653870265  1.0000
  C   C21       1.0  0.08217664954081977  0.4399828509996837  0.9078608514908099  1.0000
  C   C22       1.0  0.5600274176427363  0.9178720331531807  0.5921287925381833  1.0000
  C   C23       1.0  0.9178557541989463  0.5600107069690098  0.09213250440087249  1.0000
  C   C24       1.0  0.43998341237183775  0.08213148008899653  0.4078597299609044  1.0000
  N   N1        1.0  0.2584205427292048  0.6731015206313913  0.8747364982402956  1.0000
  N   N2        1.0  0.32687665861113396  0.7416428706155571  0.6252475441200361  1.0000
  N   N3        1.0  0.7416072344077591  0.32687433509882174  0.1252689747573683  1.0000
  N   N4        1.0  0.6731202213393885  0.25838576295679155  0.3747378953614557  1.0000
  Cl  Cl1       1.0  0.7633258129524663  0.004754094683377692  0.9637355756518104  1.0000
  Cl  Cl2       1.0  0.9952257811806787  0.2367274599958194  0.5362647444656687  1.0000
  Cl  Cl3       1.0  0.2367034601653443  0.9952333033560521  0.036269385619682695  1.0000
  Cl  Cl4       1.0  0.004768784742935796  0.7633001451997359  0.4637327281588597  1.0000
  Cl  Cl5       1.0  0.17849002065961625  0.11291919810179962  0.7818329479307949  1.0000
  Cl  Cl6       1.0  0.8870659265895282  0.821593184703133  0.7181628451153941  1.0000
  Cl  Cl7       1.0  0.8215543747384615  0.8870571308608036  0.21816788669667628  1.0000
  Cl  Cl8       1.0  0.11292354926550266  0.17844754755597586  0.2818336509600314  1.0000
  O   O1        1.0  0.9430677530927767  0.5354904707829462  0.9027279687294936  1.0000
  O   O2        1.0  0.46452423379636093  0.0569795146269598  0.5972561696933097  1.0000
  O   O3        1.0  0.05693403703145348  0.464513458687641  0.0972608923707767  1.0000
  O   O4        1.0  0.5354891914369803  0.9430381223124371  0.4027356639197848  1.0000
