data_image0
_chemical_formula_structural       Al4H44C76I4N4O20
_chemical_formula_sum              "Al4 H44 C76 I4 N4 O20"
_cell_length_a       6.680202135944871
_cell_length_b       25.381969500924413
_cell_length_c       28.77224626048964
_cell_angle_alpha    90.44987286621829
_cell_angle_beta     90.0149495597177
_cell_angle_gamma    89.01935136317304

_space_group_name_H-M_alt    "P 1"
_space_group_IT_number       1

loop_
  _space_group_symop_operation_xyz
  'x, y, z'

loop_
  _atom_site_type_symbol
  _atom_site_label
  _atom_site_symmetry_multiplicity
  _atom_site_fract_x
  _atom_site_fract_y
  _atom_site_fract_z
  _atom_site_occupancy
  Al  Al1       1.0  0.7981237902714893  0.7487130494266906  0.7482306495662385  1.0000
  Al  Al2       1.0  0.20188023303811056  0.2512872305918492  0.2517683006561739  1.0000
  Al  Al3       1.0  0.29769931274798  0.7459479919465083  0.748301078532748  1.0000
  Al  Al4       1.0  0.7023002211614724  0.25405229455481754  0.2516971757093032  1.0000
  H   H1        1.0  0.7204138402667722  0.649645468607872  0.641286668245236  1.0000
  H   H2        1.0  0.2795722962324163  0.3503528716778774  0.3587112262171956  1.0000
  H   H3        1.0  0.7022463323643038  0.5843446680239524  0.5753906289198767  1.0000
  H   H4        1.0  0.29775030930967006  0.415652869358432  0.4246090014906869  1.0000
  H   H5        1.0  0.34436088763403205  0.5695004743896773  0.5753468300435429  1.0000
  H   H6        1.0  0.6556356991503589  0.4304982541791206  0.424656281781246  1.0000
  H   H7        1.0  0.3611841400592438  0.6349929669294241  0.6412755168775915  1.0000
  H   H8        1.0  0.6388079563699661  0.3650057690289401  0.3587272465292203  1.0000
  H   H9        1.0  0.7213779753770879  0.644212360594423  0.849971647364427  1.0000
  H   H10       1.0  0.27863270363824444  0.3558084373657024  0.1500433925190876  1.0000
  H   H11       1.0  0.7030004577371116  0.5798277933090076  0.914576324020416  1.0000
  H   H12       1.0  0.2970070862786045  0.42019656107193265  0.08544047047554669  1.0000
  H   H13       1.0  0.3462613942641539  0.5797954113800614  0.9257564741736246  1.0000
  H   H14       1.0  0.6537625743879332  0.4201929833908338  0.0742316474192108  1.0000
  H   H15       1.0  0.362045238428621  0.6426946867087651  0.8598086748989502  1.0000
  H   H16       1.0  0.637972787149053  0.3572925370052289  0.140179439762818  1.0000
  H   H17       1.0  0.2854326980000367  0.4948340391073032  0.9448769746053003  1.0000
  H   H18       1.0  0.7145638700186723  0.505165466659342  0.055121970330958406  1.0000
  H   H19       1.0  0.2642806851885666  0.4308862348921494  0.0083037991895338  1.0000
  H   H20       1.0  0.7357202918897555  0.5691152391233844  0.9916975891895419  1.0000
  H   H21       1.0  0.7463603216332684  0.17519313508503132  0.3802892295691862  1.0000
  H   H22       1.0  0.25363788714675906  0.8248028143059188  0.6197069177822456  1.0000
  H   H23       1.0  0.7441650456663353  0.1100840772465332  0.4447590762726676  1.0000
  H   H24       1.0  0.2558390872548912  0.8899134408679786  0.5552384701895008  1.0000
  H   H25       1.0  0.19086436283291155  0.1138312955266017  0.3298870119109054  1.0000
  H   H26       1.0  0.8091292685661456  0.8861666423330024  0.6701129674217583  1.0000
  H   H27       1.0  0.17975865596694257  0.04836322698090361  0.4856054028207168  1.0000
  H   H28       1.0  0.8202348535725293  0.9516378641019684  0.514394939515114  1.0000
  H   H29       1.0  0.20773513054684403  0.9872559953579906  0.5515451083639604  1.0000
  H   H30       1.0  0.792256941386455  0.012743523238853496  0.44845557352868326  1.0000
  H   H31       1.0  0.7438228301288348  0.1756224348196938  0.121944611017156  1.0000
  H   H32       1.0  0.2561797368089103  0.8243770499106517  0.8780505118735462  1.0000
  H   H33       1.0  0.7415159529587854  0.11065325957095952  0.05635921489915321  1.0000
  H   H34       1.0  0.25848367831434876  0.8893446563455781  0.9436365948255627  1.0000
  H   H35       1.0  0.1896837339947837  0.11369987589060321  0.1715984249780647  1.0000
  H   H36       1.0  0.8103172564540628  0.8863015854300967  0.8283980975275043  1.0000
  H   H37       1.0  0.1784217008509756  0.04780085479975332  0.014925595035705902  1.0000
  H   H38       1.0  0.821579568150831  0.9521931279302362  0.9850740188595636  1.0000
  H   H39       1.0  0.2081368403861461  0.9864337117096723  0.9482798090075164  1.0000
  H   H40       1.0  0.7918673925963303  0.0135610535685444  0.0517198093183424  1.0000
  H   H41       1.0  0.5580512030043181  0.6776051348641517  0.7502383008866431  1.0000
  H   H42       1.0  0.4419423187831057  0.32239556489948745  0.2497630822062717  1.0000
  H   H43       1.0  0.0511199736818568  0.8171306376151932  0.747582044765366  1.0000
  H   H44       1.0  0.9488690294343344  0.18287085580357854  0.252418298644983  1.0000
  C   C1        1.0  0.5408237174047201  0.8111180671640382  0.6860556722496015  1.0000
  C   C2        1.0  0.45918939909197587  0.1888794334510209  0.3139415283613332  1.0000
  C   C3        1.0  0.5423504666965968  0.8113009795682016  0.8112535707772183  1.0000
  C   C4        1.0  0.4576639986379333  0.18870045595671311  0.1887426067326956  1.0000
  C   C5        1.0  0.04943988154411019  0.6842226290587023  0.8111059403592336  1.0000
  C   C6        1.0  0.9505565164106997  0.31578121477021176  0.1888944160576571  1.0000
  C   C7        1.0  0.04799707371532948  0.6837927059608333  0.684920476788058  1.0000
  C   C8        1.0  0.9519889351940448  0.3162087929888316  0.315079866051903  1.0000
  C   C9        1.0  0.8556265460897592  0.6316686253299438  0.6265091522718649  1.0000
  C   C10       1.0  0.14436403542540427  0.36833088968493394  0.3734890963988279  1.0000
  C   C11       1.0  0.8455958716539056  0.5956289681234709  0.5900852439952899  1.0000
  C   C12       1.0  0.15439777485822498  0.40436857569657286  0.4099147334072768  1.0000
  C   C13       1.0  0.0221820415181782  0.5729047803089172  0.5716196394869898  1.0000
  C   C14       1.0  0.9778116342650448  0.4270919763387795  0.42838068161777443  1.0000
  C   C15       1.0  0.20879644886351653  0.5873245113309196  0.5900522767574046  1.0000
  C   C16       1.0  0.7911972070314517  0.4126726438902041  0.40994978408943433  1.0000
  C   C17       1.0  0.21798946373507985  0.6235001842421539  0.6265190872412845  1.0000
  C   C18       1.0  0.7819996715785676  0.37649776644765615  0.3734826290477642  1.0000
  C   C19       1.0  0.04159055133229831  0.6457226525742569  0.645136175311201  1.0000
  C   C20       1.0  0.9583970849678776  0.3542753026945462  0.3548662358174468  1.0000
  C   C21       1.0  0.9893561528010865  0.46581337694350106  0.4665356806248866  1.0000
  C   C22       1.0  0.0106420133373177  0.5341833723146295  0.5334649888978547  1.0000
  C   C23       1.0  0.857135537441003  0.6296314212048982  0.8668880436321942  1.0000
  C   C24       1.0  0.14287826623606037  0.370386209840099  0.1331235057569984  1.0000
  C   C25       1.0  0.8479539629428672  0.5941391146747749  0.9032731207359886  1.0000
  C   C26       1.0  0.15205541083129503  0.40587694760154136  0.09673807251484591  1.0000
  C   C27       1.0  0.02343000724069101  0.5750694832157563  0.9249306519105716  1.0000
  C   C28       1.0  0.9765827888489227  0.42493591541924036  0.07507319098777292  1.0000
  C   C29       1.0  0.2087532086084778  0.593150795564988  0.9087336193779336  1.0000
  C   C30       1.0  0.791264431334646  0.40684590686106503  0.0912628831036031  1.0000
  C   C31       1.0  0.2186108149161966  0.6285164412139609  0.8721520330102734  1.0000
  C   C32       1.0  0.7814052787641685  0.37148144972331915  0.1278458652259289  1.0000
  C   C33       1.0  0.042648048942297095  0.6469665637783563  0.8507801255940635  1.0000
  C   C34       1.0  0.9573676487656397  0.3530411953766688  0.1492244245800336  1.0000
  C   C35       1.0  0.1613828656637679  0.497890370585246  0.9694392259784621  1.0000
  C   C36       1.0  0.8386226689072627  0.5021095135350606  0.030560070161442396  1.0000
  C   C37       1.0  0.1493730625321064  0.46172877927508427  0.00533752064851  1.0000
  C   C38       1.0  0.8506339077350162  0.5382726791447965  0.9946621310593713  1.0000
  C   C39       1.0  0.9878274121017583  0.463018566363708  0.0367274508618038  1.0000
  C   C40       1.0  0.0121855588269497  0.5369824896751467  0.9632732427439308  1.0000
  C   C41       1.0  0.6250671149929161  0.1472619902632673  0.3834902748502031  1.0000
  C   C42       1.0  0.3749295655025335  0.8527347508790228  0.6165062236386234  1.0000
  C   C43       1.0  0.6247221971092003  0.11031780449341261  0.41889613474115345  1.0000
  C   C44       1.0  0.3752744634979947  0.8896793352223112  0.5811021034897337  1.0000
  C   C45       1.0  0.4732487626910426  0.0725869633740146  0.4229387384235324  1.0000
  C   C46       1.0  0.5267418452301057  0.927411767188829  0.5770608966365458  1.0000
  C   C47       1.0  0.32096907136661196  0.07362103135521639  0.3889500416356526  1.0000
  C   C48       1.0  0.6790199931568848  0.9263788849985345  0.6110499464919172  1.0000
  C   C49       1.0  0.31238876479948624  0.1125695733676508  0.3550964345718839  1.0000
  C   C50       1.0  0.6876033562931737  0.8874287594834132  0.6449028512808965  1.0000
  C   C51       1.0  0.4653661814637217  0.14935052808643692  0.3519941340026378  1.0000
  C   C52       1.0  0.5346259887882923  0.8506466190188461  0.6480037558102794  1.0000
  C   C53       1.0  0.3200729884849167  0.0268252422227135  0.4913531628656784  1.0000
  C   C54       1.0  0.6799161213777863  0.9731734920123571  0.5086468194716005  1.0000
  C   C55       1.0  0.3360284285373822  0.9924514724341478  0.5286813434217805  1.0000
  C   C56       1.0  0.6639577022315847  0.0075468732922488  0.47131863641501326  1.0000
  C   C57       1.0  0.5159611758846978  0.9651438962146983  0.5381216682948136  1.0000
  C   C58       1.0  0.48402495583930266  0.03485444860492489  0.46187796397958186  1.0000
  C   C59       1.0  0.622979213190014  0.1475628110845477  0.11834027497749132  1.0000
  C   C60       1.0  0.37702334992758313  0.8524366772728983  0.8816562381627904  1.0000
  C   C61       1.0  0.6225479766723793  0.1107350230761242  0.0823276625003899  1.0000
  C   C62       1.0  0.37745313372597167  0.8892632868348541  0.9176691921268016  1.0000
  C   C63       1.0  0.4716380966324962  0.07283471116853242  0.077824135360089  1.0000
  C   C64       1.0  0.5283660485366892  0.9271624156267321  0.9221744518591635  1.0000
  C   C65       1.0  0.3195831711782233  0.0736948166524982  0.1118566229449769  1.0000
  C   C66       1.0  0.6804239199934513  0.9263034894508877  0.8881430133221285  1.0000
  C   C67       1.0  0.31095080020605786  0.11256364362409242  0.1463123855134256  1.0000
  C   C68       1.0  0.6890592446084083  0.8874358345332141  0.8536855193023953  1.0000
  C   C69       1.0  0.4637305088408183  0.14938893128072547  0.14995740906919508  1.0000
  C   C70       1.0  0.5362795671548283  0.8506097578906877  0.8500401443240406  1.0000
  C   C71       1.0  0.3193233969890983  0.026513688513993803  0.0089220244241517  1.0000
  C   C72       1.0  0.6806763588411966  0.9734806919277759  0.9910779386784156  1.0000
  C   C73       1.0  0.3361992293483524  0.9919881050030384  0.971242951412755  1.0000
  C   C74       1.0  0.663802024540388  0.008006271766504399  0.0287566644126116  1.0000
  C   C75       1.0  0.5168817164462993  0.9649945239158056  0.9615334703787893  1.0000
  C   C76       1.0  0.48311652907759134  0.0350002515174168  0.038465799243894594  1.0000
  I   I1        1.0  0.11150482380493539  0.012536996782294802  0.38179260734271736  1.0000
  I   I2        1.0  0.8884872632414371  0.9874621277749894  0.6182080726198295  1.0000
  I   I3        1.0  0.11115401432104477  0.012397197967423798  0.1182830046844288  1.0000
  I   I4        1.0  0.8888410149076691  0.9876031095250754  0.8817201145755504  1.0000
  N   N1        1.0  0.1840599363617912  0.5127612214132071  0.5170040073014164  1.0000
  N   N2        1.0  0.815936685423928  0.4872367145425969  0.482997362851208  1.0000
  N   N3        1.0  0.1732090507293904  0.4780358510950293  0.4829786257313344  1.0000
  N   N4        1.0  0.8267830958142212  0.5219616982107809  0.5170223940732228  1.0000
  O   O1        1.0  0.3747011037998433  0.7949639867014682  0.7964330449221676  1.0000
  O   O2        1.0  0.6252999149650619  0.20503668835365124  0.2035641688479899  1.0000
  O   O3        1.0  0.7126094917773925  0.7985441592362507  0.7021938915231658  1.0000
  O   O4        1.0  0.2873990389105288  0.2014557175396163  0.2978047100623442  1.0000
  O   O5        1.0  0.8793721373878115  0.7005318678879391  0.7000825727594773  1.0000
  O   O6        1.0  0.12061852716546177  0.29946529014375756  0.2999184448297854  1.0000
  O   O7        1.0  0.7145172120614517  0.7980544976415302  0.7955814361655484  1.0000
  O   O8        1.0  0.28548972241684817  0.20194813382929766  0.2044147457086822  1.0000
  O   O9        1.0  0.881137760821609  0.6996342217522484  0.7948103570400207  1.0000
  O   O10       1.0  0.11886026738910258  0.30036607567548396  0.20519102497837594  1.0000
  O   O11       1.0  0.37350407980753175  0.7938418627039854  0.699954894208858  1.0000
  O   O12       1.0  0.6265001296340742  0.20615368430593858  0.3000422950404272  1.0000
  O   O13       1.0  0.5512569599367723  0.7156116001580841  0.748063828173528  1.0000
  O   O14       1.0  0.4487410390028402  0.28438948444200207  0.2519372101426711  1.0000
  O   O15       1.0  0.22082563609048123  0.6974350839728131  0.796019798209464  1.0000
  O   O16       1.0  0.7791784675596459  0.3025632213140454  0.2039774045505069  1.0000
  O   O17       1.0  0.21898477987945603  0.6961007575735889  0.700964771213023  1.0000
  O   O18       1.0  0.7810133126036829  0.30389796006880226  0.2990352128354132  1.0000
  O   O19       1.0  0.048158262980912504  0.7790622247926251  0.7483984423950361  1.0000
  O   O20       1.0  0.9518412378372929  0.2209388525081408  0.251600858394383  1.0000
