data_image0
_chemical_formula_structural       La2H46C42N4O20
_chemical_formula_sum              "La2 H46 C42 N4 O20"
_cell_length_a       8.730101225905496
_cell_length_b       11.194164177770942
_cell_length_c       12.614074635524123
_cell_angle_alpha    73.71266257389266
_cell_angle_beta     85.85260252366272
_cell_angle_gamma    76.28779622834283

_space_group_name_H-M_alt    "P 1"
_space_group_IT_number       1

loop_
  _space_group_symop_operation_xyz
  'x, y, z'

loop_
  _atom_site_type_symbol
  _atom_site_label
  _atom_site_symmetry_multiplicity
  _atom_site_fract_x
  _atom_site_fract_y
  _atom_site_fract_z
  _atom_site_occupancy
  La  La1       1.0  0.6613824516871106  0.11557398575949662  0.61681937137741  1.0000
  La  La2       1.0  0.3386236459219135  0.8844288176975184  0.383179881367461  1.0000
  H   H1        1.0  0.44463747036126494  0.4062322374347076  0.42340256496689926  1.0000
  H   H2        1.0  0.5553686176266127  0.5937705684543744  0.5765958949155916  1.0000
  H   H3        1.0  0.3079766207310827  0.65016392565866  0.0992425053557966  1.0000
  H   H4        1.0  0.6920134118841546  0.34983876899999444  0.900756079273215  1.0000
  H   H5        1.0  0.3546148071145013  0.24229751056037682  0.17018136650752777  1.0000
  H   H6        1.0  0.6453824174279534  0.7577042676333504  0.8298202181873718  1.0000
  H   H7        1.0  0.024263725513115654  0.581432008493053  0.07962354942205248  1.0000
  H   H8        1.0  0.9757270777059472  0.4185601551231031  0.9203791926693012  1.0000
  H   H9        1.0  0.8536713362292334  0.7802747539742257  0.9621975186092937  1.0000
  H   H10       1.0  0.14632147292691403  0.2197183837606644  0.03780407765537319  1.0000
  H   H11       1.0  0.1948505093926372  0.7808545387188205  0.6989209699886628  1.0000
  H   H12       1.0  0.805144630498319  0.21913860552531628  0.3010836666385329  1.0000
  H   H13       1.0  0.3599742607390867  0.5778360371030759  0.8132143004270417  1.0000
  H   H14       1.0  0.640026066014599  0.4221590562010889  0.1867903575904107  1.0000
  H   H15       1.0  0.2012346907579712  0.8492721262474207  0.9809318112832839  1.0000
  H   H16       1.0  0.7987685122385387  0.1507287443870666  0.019067288984338397  1.0000
  H   H17       1.0  0.23980382763564015  0.9517306075100297  0.05777169205310873  1.0000
  H   H18       1.0  0.7601987931134673  0.04827218131898551  0.9422245858727222  1.0000
  H   H19       1.0  0.39924282403518424  0.8533565056610969  0.004133853140729096  1.0000
  H   H20       1.0  0.6007592433299749  0.146648194066259  0.9958619810304512  1.0000
  H   H21       1.0  0.032197164649268514  0.04200798478881751  0.8710606058506727  1.0000
  H   H22       1.0  0.9677991519754556  0.9579928395652363  0.12893809481553115  1.0000
  H   H23       1.0  0.12830770534078084  0.12384114129019962  0.7526873535152774  1.0000
  H   H24       1.0  0.871687781208017  0.8761625494113764  0.2473106815189467  1.0000
  H   H25       1.0  0.0979518507246766  0.1799187089141654  0.8734769627732388  1.0000
  H   H26       1.0  0.9020473701337153  0.820084045830356  0.12652268323259355  1.0000
  H   H27       1.0  0.5175795526757269  0.9585440637776301  0.8678420134834183  1.0000
  H   H28       1.0  0.4824167744427543  0.04146059778804561  0.13215335554284013  1.0000
  H   H29       1.0  0.6642682297504194  0.4518646268011113  0.45412797412097206  1.0000
  H   H30       1.0  0.3357335215655582  0.5481371984599903  0.545868591225684  1.0000
  H   H31       1.0  0.13239545420040597  0.42735761881622397  0.40256782539893265  1.0000
  H   H32       1.0  0.8676107011355116  0.5726451700484178  0.5974361845202124  1.0000
  H   H33       1.0  0.07007731381849423  0.37973208493662725  0.29249712271655426  1.0000
  H   H34       1.0  0.9299285254682417  0.6202678294617527  0.7075076183780666  1.0000
  H   H35       1.0  0.0647571371382085  0.2818780271810369  0.4308650173545558  1.0000
  H   H36       1.0  0.935247012260625  0.7181237875648706  0.5691401383912833  1.0000
  H   H37       1.0  0.9282608210481414  0.6341444756134323  0.36739033757307027  1.0000
  H   H38       1.0  0.07174021564570411  0.3658601868104229  0.6326150764901541  1.0000
  H   H39       1.0  0.7263018183420229  0.6274268683523019  0.3575428798282515  1.0000
  H   H40       1.0  0.27370320048994057  0.372575909961526  0.6424619884967697  1.0000
  H   H41       1.0  0.8630331620366647  0.6026236140878893  0.2493465261241283  1.0000
  H   H42       1.0  0.13696963276574084  0.3973829706076799  0.7506598988222208  1.0000
  H   H43       1.0  0.8681240134360168  0.021363414284046204  0.4084118768417966  1.0000
  H   H44       1.0  0.13187518730746467  0.9786355056809198  0.591590307941594  1.0000
  H   H45       1.0  0.711409318089288  0.964851140404015  0.4352053265558311  1.0000
  H   H46       1.0  0.2885871437252803  0.0351534871127868  0.5648011425437501  1.0000
  C   C1        1.0  0.4230828758933641  0.1835311710017606  0.3871618322742307  1.0000
  C   C2        1.0  0.5769283403577321  0.8164697588960338  0.6128360163265609  1.0000
  C   C3        1.0  0.4055659928467962  0.31180759956104964  0.3039242356368561  1.0000
  C   C4        1.0  0.5944435238952435  0.6881952331163391  0.6960732347527808  1.0000
  C   C5        1.0  0.41628918375629104  0.4183286118879651  0.3378078569048241  1.0000
  C   C6        1.0  0.5837103531512753  0.5816770173228178  0.6621910579255326  1.0000
  C   C7        1.0  0.38027863381019966  0.5399255180084879  0.2635785836325937  1.0000
  C   C8        1.0  0.6197162801123498  0.4600800884555483  0.7364174219222122  1.0000
  C   C9        1.0  0.3777614763028795  0.6566802303349918  0.30023528461664023  1.0000
  C   C10       1.0  0.6222394939155295  0.34332828875698596  0.6997604549076045  1.0000
  C   C11       1.0  0.3373973221500961  0.5546564614154903  0.155276752834105  1.0000
  C   C12       1.0  0.6625983824911759  0.44534244878560264  0.8447208714054852  1.0000
  C   C13       1.0  0.33218678501728505  0.447407191698467  0.12109872478222168  1.0000
  C   C14       1.0  0.6678058060463957  0.5525907265368915  0.878903282277072  1.0000
  C   C15       1.0  0.36532082602838767  0.32570272300362296  0.19492668448577885  1.0000
  C   C16       1.0  0.6346778117099987  0.6742981102917511  0.8050742636805738  1.0000
  C   C17       1.0  0.20297771813540075  0.5703377382478648  0.9528873195533336  1.0000
  C   C18       1.0  0.7970188349514943  0.42965446109791133  0.047116680545315065  1.0000
  C   C19       1.0  0.060528081302933974  0.6259857009785179  0.9963167892223268  1.0000
  C   C20       1.0  0.9394638776623908  0.37400646832433193  0.00368668018791846  1.0000
  C   C21       1.0  0.9668596626736559  0.7369641910797995  0.9313727830629829  1.0000
  C   C22       1.0  0.033131933009343584  0.26302895556078454  0.06862332870851157  1.0000
  C   C23       1.0  0.014625381038527499  0.7951233215485801  0.8243787117967685  1.0000
  C   C24       1.0  0.9853706484004691  0.20487462104303228  0.1756230986320446  1.0000
  C   C25       1.0  0.9100421244652781  0.915378246712784  0.7586903209837529  1.0000
  C   C26       1.0  0.08995352070388661  0.0846129987933253  0.24131079508619988  1.0000
  C   C27       1.0  0.15695770950992477  0.7373606705849983  0.7820555421152589  1.0000
  C   C28       1.0  0.843037163310207  0.2626334266762457  0.2179496654969881  1.0000
  C   C29       1.0  0.2501111565381677  0.6242356299356048  0.8455636852167173  1.0000
  C   C30       1.0  0.749882501936206  0.3757546365876506  0.1544401624046898  1.0000
  C   C31       1.0  0.2786125315794123  0.9111619258971756  0.9878412877632385  1.0000
  C   C32       1.0  0.7213900987908488  0.0888408604997792  0.012155783024972788  1.0000
  C   C33       1.0  0.12551249892084124  0.0942105832116269  0.8430796443587948  1.0000
  C   C34       1.0  0.8744855373278501  0.9057921731423947  0.15691689574101272  1.0000
  C   C35       1.0  0.41047459391733554  0.028473376195009295  0.8305300410735299  1.0000
  C   C36       1.0  0.589520728199318  0.9715265162079447  0.16945863980255638  1.0000
  C   C37       1.0  0.7809148246598668  0.3891111163058128  0.44872336923339157  1.0000
  C   C38       1.0  0.21909211264623005  0.6108888183716275  0.5512773420058465  1.0000
  C   C39       1.0  0.048344877715955206  0.3804509706944401  0.37923751024406016  1.0000
  C   C40       1.0  0.9516641040118262  0.6195499283734803  0.6207652266179975  1.0000
  C   C41       1.0  0.8489158322425044  0.5863025797866257  0.33937691697373396  1.0000
  C   C42       1.0  0.1510880500855052  0.4137001879763886  0.6606288097571635  1.0000
  N   N1        1.0  0.276701578082772  0.011163848192609302  0.8846821091011705  1.0000
  N   N2        1.0  0.7232921599786124  0.9888379178051852  0.11531570791230907  1.0000
  N   N3        1.0  0.8888799934359355  0.44982811751842894  0.3932930503785812  1.0000
  N   N4        1.0  0.11112697360621837  0.5501756495065068  0.6067059149454721  1.0000
  O   O1        1.0  0.4175577957804393  0.08965576783354119  0.3517643024099186  1.0000
  O   O2        1.0  0.5824627874490745  0.9103366117342162  0.648235149825858  1.0000
  O   O3        1.0  0.43708822058134433  0.17806545281896294  0.48868000391222916  1.0000
  O   O4        1.0  0.5629151821379426  0.8219344818228577  0.5113129753336807  1.0000
  O   O5        1.0  0.4653317617864018  0.6473277990814241  0.38039712045852525  1.0000
  O   O6        1.0  0.5346677165216605  0.3526740050780575  0.6196011616998689  1.0000
  O   O7        1.0  0.28420077125493765  0.7610374206590436  0.25133691453176965  1.0000
  O   O8        1.0  0.7157978577348986  0.2389672547120654  0.7486591162698842  1.0000
  O   O9        1.0  0.29823566942144464  0.4570373088455284  0.01290395483457021  1.0000
  O   O10       1.0  0.7017614764066025  0.5429568095173352  0.9870995359659317  1.0000
  O   O11       1.0  0.7761415980938013  0.9550454611878507  0.7998190283353634  1.0000
  O   O12       1.0  0.2238548981387964  0.044950592393988104  0.20017609008668558  1.0000
  O   O13       1.0  0.9530386528977246  0.9757476747164517  0.6630330738561198  1.0000
  O   O14       1.0  0.04696065923297971  0.024242651857044  0.3369641031487801  1.0000
  O   O15       1.0  0.41757273439534975  0.11596593204405543  0.7439969019647561  1.0000
  O   O16       1.0  0.5824242854851535  0.8840243782919472  0.2560004061271285  1.0000
  O   O17       1.0  0.8086558643030273  0.2703215600307658  0.4919243567965807  1.0000
  O   O18       1.0  0.19134127452168312  0.729684079695204  0.508065967634586  1.0000
  O   O19       1.0  0.7655811050442054  0.0260856861134826  0.44903887169981965  1.0000
  O   O20       1.0  0.23442190785067413  0.9739161180816114  0.5509671424518955  1.0000
