data_image0
_chemical_formula_structural       Zn4H16C28S4O8
_chemical_formula_sum              "Zn4 H16 C28 S4 O8"
_cell_length_a       7.0178961644297955
_cell_length_b       7.533790315820405
_cell_length_c       14.075015667561422
_cell_angle_alpha    105.56829423437637
_cell_angle_beta     91.22156461920848
_cell_angle_gamma    89.98177718319964

_space_group_name_H-M_alt    "P 1"
_space_group_IT_number       1

loop_
  _space_group_symop_operation_xyz
  'x, y, z'

loop_
  _atom_site_type_symbol
  _atom_site_label
  _atom_site_symmetry_multiplicity
  _atom_site_fract_x
  _atom_site_fract_y
  _atom_site_fract_z
  _atom_site_occupancy
  Zn  Zn1       1.0  0.8569724612378238  0.3160255751689363  0.563627334252466  1.0000
  Zn  Zn2       1.0  0.3569164086993055  0.24732369563484013  0.5635786065655851  1.0000
  Zn  Zn3       1.0  0.14302879105477476  0.68397251435146  0.4363732073803916  1.0000
  Zn  Zn4       1.0  0.6430834266542861  0.7526730240248013  0.436421000631853  1.0000
  H   H1        1.0  0.0717832822217517  0.4805761287705437  0.8682594519893172  1.0000
  H   H2        1.0  0.5713542994019818  0.3883289507482104  0.8682246681127668  1.0000
  H   H3        1.0  0.9282165818437422  0.519423346715854  0.13174055343900193  1.0000
  H   H4        1.0  0.4286455790194594  0.6116719026515584  0.13177553643099324  1.0000
  H   H5        1.0  0.05289133332513529  0.2945674930754834  0.9892260154589823  1.0000
  H   H6        1.0  0.5526444549052913  0.6956587789842176  0.989170063576289  1.0000
  H   H7        1.0  0.9471099701221065  0.7054333541459247  0.01077421452244215  1.0000
  H   H8        1.0  0.4473540128463043  0.3043434585072974  0.010830314645254198  1.0000
  H   H9        1.0  0.07984043291354231  0.950795057109609  0.9311599639571497  1.0000
  H   H10       1.0  0.5798624798487636  0.9811948899779921  0.9311377552912107  1.0000
  H   H11       1.0  0.9201622955594999  0.04920578393342371  0.0688402914619317  1.0000
  H   H12       1.0  0.42013314593802426  0.0188059838311432  0.06886166305724832  1.0000
  H   H13       1.0  0.1129041727315325  0.8001712796816705  0.7520954210094217  1.0000
  H   H14       1.0  0.6130665647494382  0.952279296768431  0.752086676252823  1.0000
  H   H15       1.0  0.8870985332987686  0.1998295594871067  0.2479055442919744  1.0000
  H   H16       1.0  0.38692903859460875  0.047721575166448815  0.2479134519779578  1.0000
  C   C1        1.0  0.11533636873745931  0.05310153294598761  0.709656257496718  1.0000
  C   C2        1.0  0.6153641247370559  0.6567414002280144  0.7096214122286001  1.0000
  C   C3        1.0  0.8846649347097824  0.9468993142754129  0.290343972484699  1.0000
  C   C4        1.0  0.38463575368438546  0.34325945317175416  0.29037879231515973  1.0000
  C   C5        1.0  0.10637900878494119  0.24817619938671953  0.7426384808655869  1.0000
  C   C6        1.0  0.6062388474030769  0.4947367674464191  0.742609097310691  1.0000
  C   C7        1.0  0.8936223171050415  0.7518246497089367  0.25736103923351555  1.0000
  C   C8        1.0  0.39376101666241686  0.5052627080399789  0.25739090811762827  1.0000
  C   C9        1.0  0.0816292835905514  0.3308487954051601  0.8435972018459879  1.0000
  C   C10       1.0  0.5812836104673949  0.513304624085393  0.8435502795526162  1.0000
  C   C11       1.0  0.9183677528660896  0.6691506943122293  0.15640204282469486  1.0000
  C   C12       1.0  0.41871628231000113  0.48669760722775374  0.1564501241065841  1.0000
  C   C13       1.0  0.07047796871965062  0.22594507119853802  0.9111676477017313  1.0000
  C   C14       1.0  0.5702906515012884  0.68601504076252  0.9111065885718761  1.0000
  C   C15       1.0  0.9295233490835388  0.7740571539362405  0.08883278139512645  1.0000
  C   C16       1.0  0.42970922065099876  0.3139830586847553  0.08889250785868802  1.0000
  C   C17       1.0  0.08469530456460458  0.0343651237136839  0.8789482401176727  1.0000
  C   C18       1.0  0.5846529524511015  0.8452765834025656  0.8789069704432607  1.0000
  C   C19       1.0  0.9153059988826371  0.9656357235077166  0.12105198986374435  1.0000
  C   C20       1.0  0.4153455233872805  0.1547242780498267  0.12109249878052712  1.0000
  C   C21       1.0  0.10458345885231071  0.9497024320704456  0.7790270939700861  1.0000
  C   C22       1.0  0.6045861643292766  0.8297381004922499  0.7789944526140078  1.0000
  C   C23       1.0  0.8954149945433372  0.05029842750769829  0.22097308513601632  1.0000
  C   C24       1.0  0.395412260354469  0.17026000325913768  0.2210053282612066  1.0000
  C   C25       1.0  0.13431004569086724  0.9442988935587097  0.6048894134924582  1.0000
  C   C26       1.0  0.6345894642325548  0.6604071897307194  0.6048407125790904  1.0000
  C   C27       1.0  0.8656898040186789  0.05569920401431011  0.39511039282042043  1.0000
  C   C28       1.0  0.3654118473014805  0.3395922814515587  0.39515860840457867  1.0000
  S   S1        1.0  0.1210570936585782  0.4051154600810563  0.6680404167375189  1.0000
  S   S2        1.0  0.6210278087311281  0.2629775903477381  0.6680289772745027  1.0000
  S   S3        1.0  0.8789427847628702  0.5948853933187124  0.331959787806241  1.0000
  S   S4        1.0  0.378973480360159  0.7370218789602916  0.3319710535914808  1.0000
  O   O1        1.0  0.2114500503609449  0.0093575869635458  0.5395762557534738  1.0000
  O   O2        1.0  0.7112283562937733  0.529606026456591  0.5394868024806528  1.0000
  O   O3        1.0  0.7885512100184474  0.9906391265177277  0.46042337688162155  1.0000
  O   O4        1.0  0.28877291844157343  0.47039206493806063  0.4605130292698903  1.0000
  O   O5        1.0  0.07213977172713018  0.7788037869214293  0.5797489956846392  1.0000
  O   O6        1.0  0.5729172896652484  0.80100903398489  0.5797760763925696  1.0000
  O   O7        1.0  0.927861494921416  0.2211956805123449  0.42025174506365914  1.0000
  O   O8        1.0  0.4270811350184971  0.1989890697664976  0.4202237044826518  1.0000
