data_image0
_chemical_formula_structural       Zn2H24C40N12O12
_chemical_formula_sum              "Zn2 H24 C40 N12 O12"
_cell_length_a       9.979593982137139
_cell_length_b       10.303481991817216
_cell_length_c       10.552553356659097
_cell_angle_alpha    104.98068611451141
_cell_angle_beta     98.42837168496882
_cell_angle_gamma    106.95341867371503

_space_group_name_H-M_alt    "P 1"
_space_group_IT_number       1

loop_
  _space_group_symop_operation_xyz
  'x, y, z'

loop_
  _atom_site_type_symbol
  _atom_site_label
  _atom_site_symmetry_multiplicity
  _atom_site_fract_x
  _atom_site_fract_y
  _atom_site_fract_z
  _atom_site_occupancy
  Zn  Zn1       1.0  0.9022533725567713  0.1204915043463615  0.47232262638928557  1.0000
  Zn  Zn2       1.0  0.09774917336695674  0.8795080832384627  0.5276742720754797  1.0000
  H   H1        1.0  0.005845875446780705  0.0827629353080681  0.2036917908588691  1.0000
  H   H2        1.0  0.9941519634997321  0.9172345189293626  0.796299112274291  1.0000
  H   H3        1.0  0.8908089600791557  0.9841969684753448  0.953203607296416  1.0000
  H   H4        1.0  0.1091826392398829  0.0157973029466802  0.0467883870619943  1.0000
  H   H5        1.0  0.6227187625034317  0.8606327310741547  0.8761348093303596  1.0000
  H   H6        1.0  0.3772721111408898  0.13936262534294036  0.12386207625209522  1.0000
  H   H7        1.0  0.6117559220102109  0.9368100788399687  0.29510676959952786  1.0000
  H   H8        1.0  0.3882467052143568  0.06319272820299911  0.7048928247564774  1.0000
  H   H9        1.0  0.22916354376181403  0.849718620881639  0.30443942615455905  1.0000
  H   H10       1.0  0.7708353656631245  0.1502767065629271  0.695561549552572  1.0000
  H   H11       1.0  0.7930523671472614  0.7021938255715341  0.2954587413883871  1.0000
  H   H12       1.0  0.20694681369963766  0.29780792844724147  0.7045419532377863  1.0000
  H   H13       1.0  0.7286771095692544  0.5848516060501298  0.046218030439149564  1.0000
  H   H14       1.0  0.2713198081582249  0.41515229972458917  0.9537818896738416  1.0000
  H   H15       1.0  0.9232844272343568  0.6061644472461581  0.9204412609049512  1.0000
  H   H16       1.0  0.07671197849944635  0.39383517492439785  0.07955847919906492  1.0000
  H   H17       1.0  0.51298309849264  0.8530801230409751  0.5262311646543552  1.0000
  H   H18       1.0  0.48702040429478904  0.14691946632193986  0.47376872695375033  1.0000
  H   H19       1.0  0.34008627760734095  0.5198927042488248  0.6931147821897596  1.0000
  H   H20       1.0  0.6599196690378903  0.4801111702174269  0.3068903302367687  1.0000
  H   H21       1.0  0.7823208891910554  0.6299092930494296  0.65763077732651  1.0000
  H   H22       1.0  0.21768444059974712  0.3700956540698144  0.3423735534606251  1.0000
  H   H23       1.0  0.15738392200822915  0.6644924489926539  0.826083235184143  1.0000
  H   H24       1.0  0.8426122068804174  0.3355093202619699  0.17391793478441994  1.0000
  C   C1        1.0  0.8904729195209031  0.0245676082747224  0.16401706722754744  1.0000
  C   C2        1.0  0.10952385374162807  0.9754298565266952  0.8359765156257168  1.0000
  C   C3        1.0  0.8260823348733696  0.9698378437283066  0.026114485660087797  1.0000
  C   C4        1.0  0.17391265641319356  0.030157486888953106  0.97387924485988  1.0000
  C   C5        1.0  0.6776138277094148  0.9014080798116242  0.9829506997256345  1.0000
  C   C6        1.0  0.32238249672354874  0.0985883229007882  0.01704634448714162  1.0000
  C   C7        1.0  0.5973856509808756  0.8889795458626255  0.08020444237072877  1.0000
  C   C8        1.0  0.4026130541457674  0.11101792043795912  0.9197941812919765  1.0000
  C   C9        1.0  0.6704350636808131  0.9448581776244681  0.21670447055069536  1.0000
  C   C10       1.0  0.3295644302846696  0.05514142519620442  0.7832929032564522  1.0000
  C   C11       1.0  0.44100878030417334  0.8233419017630723  0.04097539949391658  1.0000
  C   C12       1.0  0.5589888591384806  0.1766555751014991  0.9590259038889002  1.0000
  C   C13       1.0  0.2214339579157568  0.7558731902987504  0.049337247252601926  1.0000
  C   C14       1.0  0.7785633415176249  0.24412321213474536  0.9506618446262749  1.0000
  C   C15       1.0  0.0935063004089471  0.7329698336992223  0.10366347514928258  1.0000
  C   C16       1.0  0.9064920915991124  0.26702978379946524  0.8963384693324484  1.0000
  C   C17       1.0  0.11901108549837164  0.7926703320465623  0.2442937221708165  1.0000
  C   C18       1.0  0.8809875833548375  0.2073271383680506  0.7557067924463752  1.0000
  C   C19       1.0  0.8762897078509583  0.708549828771041  0.23896399930493575  1.0000
  C   C20       1.0  0.12370703789211028  0.2914508678305978  0.7610379523030203  1.0000
  C   C21       1.0  0.8411681366273314  0.644237731606637  0.0992849590679228  1.0000
  C   C22       1.0  0.15882903980858742  0.35576402914102095  0.9007144766577753  1.0000
  C   C23       1.0  0.9505641949464662  0.6566243041844758  0.029750131126917344  1.0000
  C   C24       1.0  0.04943457334429273  0.3433763836312664  0.9702521339042747  1.0000
  C   C25       1.0  0.7870934424852932  0.8403814542337072  0.5486859104684498  1.0000
  C   C26       1.0  0.2129090671650076  0.1596181374651451  0.4513128789507874  1.0000
  C   C27       1.0  0.6612605974400124  0.751886549460096  0.5886188476578056  1.0000
  C   C28       1.0  0.3387416353651319  0.2481151893228244  0.41138137162597843  1.0000
  C   C29       1.0  0.5270169881618685  0.7715253534544004  0.5697033392533583  1.0000
  C   C30       1.0  0.47298665033654436  0.2284774491956227  0.43029641181426836  1.0000
  C   C31       1.0  0.41048903818609966  0.6869115704617743  0.6055251993863352  1.0000
  C   C32       1.0  0.589516192167153  0.3130901592563403  0.3944773809867925  1.0000
  C   C33       1.0  0.42944484818367107  0.5838419349077385  0.6630950646022313  1.0000
  C   C34       1.0  0.5705611165982775  0.41616193750150643  0.3369091023470574  1.0000
  C   C35       1.0  0.5634505382658829  0.5667285590567985  0.6825666212575427  1.0000
  C   C36       1.0  0.4365548096616364  0.43327638600543134  0.3174367640523458  1.0000
  C   C37       1.0  0.6797268410446334  0.6478375141885168  0.6450282365856026  1.0000
  C   C38       1.0  0.3202781306001796  0.3521663605566517  0.3549748281748251  1.0000
  C   C39       1.0  0.2655420215471338  0.7084480251217613  0.5889486894088094  1.0000
  C   C40       1.0  0.7344601931213005  0.2915537157181801  0.4110524753522141  1.0000
  N   N1        1.0  0.8139230668003562  0.011692161034218896  0.25758341642579546  1.0000
  N   N2        1.0  0.18607745657568137  0.9883074353364948  0.7424131686157266  1.0000
  N   N3        1.0  0.3544210503365193  0.8270810858628934  0.12869186258320292  1.0000
  N   N4        1.0  0.6455778409517096  0.17291424363868663  0.8713100586011748  1.0000
  N   N5        1.0  0.36975529155763814  0.7553401748696444  0.9114634612909567  1.0000
  N   N6        1.0  0.6302414541854305  0.24466052173198705  0.08853849031699922  1.0000
  N   N7        1.0  0.23082020607117934  0.7127074492790656  0.9183128931144536  1.0000
  N   N8        1.0  0.7691761815258998  0.2872921749485045  0.08168779246680198  1.0000
  N   N9        1.0  0.01363336473700379  0.7819504306603449  0.310284409334102  1.0000
  N   N10       1.0  0.9863640159972108  0.21804919123129451  0.6897173784360149  1.0000
  N   N11       1.0  0.5842907238345632  0.46130812147104183  0.7468530431807423  1.0000
  N   N12       1.0  0.41571525908409507  0.5386957488811815  0.25315017829130676  1.0000
  O   O1        1.0  0.9006586828095565  0.8071222580844621  0.5636314305833778  1.0000
  O   O2        1.0  0.09934279743018241  0.19287734006434934  0.43636814760149184  1.0000
  O   O3        1.0  0.7707535233278832  0.9392745524679073  0.5045754516642873  1.0000
  O   O4        1.0  0.2292480113220066  0.06072503950986889  0.4954212900888564  1.0000
  O   O5        1.0  0.7056582296819868  0.4500003949665583  0.7656431256850523  1.0000
  O   O6        1.0  0.2943470369446998  0.550001330637528  0.23435756373359598  1.0000
  O   O7        1.0  0.4801153015071904  0.3901377770599055  0.7807748849916437  1.0000
  O   O8        1.0  0.5198902869920518  0.6098650250322779  0.2192289614081844  1.0000
  O   O9        1.0  0.25475519318820267  0.7954243722245097  0.5225689393924925  1.0000
  O   O10       1.0  0.7452490984380659  0.20457735365849322  0.4774297023600553  1.0000
  O   O11       1.0  0.17064466474051443  0.6460182710955564  0.6395541350894973  1.0000
  O   O12       1.0  0.8293579080739094  0.35398454211844677  0.3604482956982338  1.0000
