data_image0
_chemical_formula_structural       CdH6C10S2N6Cl2
_chemical_formula_sum              "Cd1 H6 C10 S2 N6 Cl2"
_cell_length_a       5.6716983681999436
_cell_length_b       6.580740570952695
_cell_length_c       11.325338286569405
_cell_angle_alpha    77.70681354692388
_cell_angle_beta     83.551704829298
_cell_angle_gamma    73.21201374595238

_space_group_name_H-M_alt    "P 1"
_space_group_IT_number       1

loop_
  _space_group_symop_operation_xyz
  'x, y, z'

loop_
  _atom_site_type_symbol
  _atom_site_label
  _atom_site_symmetry_multiplicity
  _atom_site_fract_x
  _atom_site_fract_y
  _atom_site_fract_z
  _atom_site_occupancy
  Cd  Cd1       1.0  0.5000111392262312  0.49999982130916004  0.9999997080067758  1.0000
  H   H1        1.0  0.4165514550025194  0.061186210500054  0.1691882462383987  1.0000
  H   H2        1.0  0.5834444152584553  0.938811322799701  0.8308117553130857  1.0000
  H   H3        1.0  0.03710915291838288  0.1419257582490019  0.407537684353052  1.0000
  H   H4        1.0  0.9628690783707865  0.8580832201191056  0.5924680706481524  1.0000
  H   H5        1.0  0.9106655121952515  0.39822415658191085  0.21019984099545755  1.0000
  H   H6        1.0  0.08933616452995342  0.601771721706001  0.789798259748686  1.0000
  C   C1        1.0  0.55527897660523  0.0786845331674755  0.22287545162589592  1.0000
  C   C2        1.0  0.444711529829007  0.921312942049255  0.7771213491685246  1.0000
  C   C3        1.0  0.6346397339418176  0.9354996444453789  0.3305238101189758  1.0000
  C   C4        1.0  0.3653567055577723  0.06449638502797231  0.6694825345778028  1.0000
  C   C5        1.0  0.9002173866281212  0.12267958755805349  0.3532652271935249  1.0000
  C   C6        1.0  0.09976833495654355  0.8773163418468285  0.6467355963514194  1.0000
  C   C7        1.0  0.8288341761339665  0.26530859357607983  0.2454119747821224  1.0000
  C   C8        1.0  0.17117081770930304  0.7346824974714465  0.7545900823417141  1.0000
  C   C9        1.0  0.9120849052108755  0.725206344023121  0.0655979516150893  1.0000
  C   C10       1.0  0.0879264580760406  0.274792819059371  0.9344026679754193  1.0000
  S   S1        1.0  0.13996635636004126  0.737555526279223  0.1367598647413217  1.0000
  S   S2        1.0  0.8600425050622816  0.2624629663211593  0.8632348522936582  1.0000
  N   N1        1.0  0.7440547871230265  0.7152776935517553  0.01561286102196385  1.0000
  N   N2        1.0  0.2559702065853955  0.28472295653774893  0.9843805602443751  1.0000
  N   N3        1.0  0.6536817167890945  0.24403721056332017  0.1820473899176847  1.0000
  N   N4        1.0  0.34631408530204777  0.7559602100534236  0.8179464490978035  1.0000
  N   N5        1.0  0.8009587567586747  0.9575751668066487  0.3965456797206102  1.0000
  N   N6        1.0  0.1990239389361861  0.04243042945960699  0.6034522994439229  1.0000
  Cl  Cl1       1.0  0.5112487307612383  0.7187215356498201  0.3810178761767347  1.0000
  Cl  Cl2       1.0  0.4887390862248394  0.28127931956634467  0.6189865935569898  1.0000
