data_image0
_chemical_formula_structural       Cd2H40C56N4O16
_chemical_formula_sum              "Cd2 H40 C56 N4 O16"
_cell_length_a       11.614809216610631
_cell_length_b       11.618085446795297
_cell_length_c       12.6364790300181
_cell_angle_alpha    99.56770031895601
_cell_angle_beta     119.73674387087084
_cell_angle_gamma    106.21802407426563

_space_group_name_H-M_alt    "P 1"
_space_group_IT_number       1

loop_
  _space_group_symop_operation_xyz
  'x, y, z'

loop_
  _atom_site_type_symbol
  _atom_site_label
  _atom_site_symmetry_multiplicity
  _atom_site_fract_x
  _atom_site_fract_y
  _atom_site_fract_z
  _atom_site_occupancy
  Cd  Cd1       1.0  0.5822611940792868  0.332207211180453  0.749995306896885  1.0000
  Cd  Cd2       1.0  0.4177478141727491  0.6677941083479199  0.25001224056592963  1.0000
  H   H1        1.0  0.8032463390689699  0.03280449102436481  0.5076406265456227  1.0000
  H   H2        1.0  0.5257147340800967  0.7958106967106245  0.9926150625231924  1.0000
  H   H3        1.0  0.19676177541462883  0.9671807399179569  0.4923606517326816  1.0000
  H   H4        1.0  0.4742872691563775  0.20418512948173634  0.007388628046918184  1.0000
  H   H5        1.0  0.033930466630188484  0.11514454673610432  0.5120083938726481  1.0000
  H   H6        1.0  0.6030064012816395  0.021974558528114595  0.9878178020239261  1.0000
  H   H7        1.0  0.9660718246845902  0.8848571990862129  0.4879953355807488  1.0000
  H   H8        1.0  0.39699151773982766  0.9780156932266877  0.012185735873494233  1.0000
  H   H9        1.0  0.2726978726047093  0.32563118901036603  0.9266364210286042  1.0000
  H   H10       1.0  0.3983231353200835  0.8459807784375998  0.5731015843889722  1.0000
  H   H11       1.0  0.7273085169729754  0.6743869315722009  0.07336557468831723  1.0000
  H   H12       1.0  0.6016807364512217  0.15401654546239035  0.42689601054116366  1.0000
  H   H13       1.0  0.03853516669255439  0.2542405902050718  0.9040346645554891  1.0000
  H   H14       1.0  0.35003431444867766  0.6346066133656691  0.5958991185460575  1.0000
  H   H15       1.0  0.9614642570665878  0.7457756147061262  0.09595599436997301  1.0000
  H   H16       1.0  0.6499868309152461  0.36539864277288103  0.4041104923178551  1.0000
  H   H17       1.0  0.7922459378139449  0.16091245976172527  0.7773048538829455  1.0000
  H   H18       1.0  0.38448326138261285  0.5153615025639057  0.7232090371255354  1.0000
  H   H19       1.0  0.20777111778436816  0.8390962334296291  0.2227064578484955  1.0000
  H   H20       1.0  0.6154997491804224  0.48462319555919464  0.27677513659345016  1.0000
  H   H21       1.0  0.6892979403528228  0.07347806907578297  0.6061291533560932  1.0000
  H   H22       1.0  0.46804656480895795  0.5836800871045682  0.8943434759042006  1.0000
  H   H23       1.0  0.31069373640279696  0.926522461853068  0.39387036327233454  1.0000
  H   H24       1.0  0.531938708511312  0.41629249310956606  0.10564030329273777  1.0000
  H   H25       1.0  0.8682023593718071  0.049298681572004475  0.9339345428384646  1.0000
  H   H26       1.0  0.11596199580846193  0.4346244984794724  0.5662202430798686  1.0000
  H   H27       1.0  0.1317994789250391  0.9507113133699363  0.06607470534513021  1.0000
  H   H28       1.0  0.8840189760039934  0.5653548081953588  0.43377107261704123  1.0000
  H   H29       1.0  0.8179710941645624  0.838806822813645  0.9643754861269117  1.0000
  H   H30       1.0  0.8750170580266783  0.354071268139599  0.5358272134867691  1.0000
  H   H31       1.0  0.18202166411879256  0.1611991661068117  0.03561645797869767  1.0000
  H   H32       1.0  0.1249778179442984  0.6459298533491876  0.46418967867838745  1.0000
  H   H33       1.0  0.6015661694629273  0.6385003942891175  0.5530429942049933  1.0000
  H   H34       1.0  0.08567862824935452  0.5483097454912951  0.9470983461285343  1.0000
  H   H35       1.0  0.3984405236786727  0.361511175296897  0.44696707933904617  1.0000
  H   H36       1.0  0.9143290744682844  0.4517036254026864  0.05291002640123565  1.0000
  H   H37       1.0  0.6529776942659851  0.8481487052739639  0.5222518429604647  1.0000
  H   H38       1.0  0.326329343407508  0.6304190444707772  0.9780644710663821  1.0000
  H   H39       1.0  0.3470144986874928  0.15185449538643783  0.4777426811139023  1.0000
  H   H40       1.0  0.6736776436374894  0.369562359274255  0.021937423004963697  1.0000
  C   C1        1.0  0.9110290515259507  0.09861507519759978  0.5959993535200213  1.0000
  C   C2        1.0  0.5028095534735044  0.8151371858887587  0.9041313244135196  1.0000
  C   C3        1.0  0.08897885532833508  0.9013877046114444  0.4039959814975019  1.0000
  C   C4        1.0  0.49719233422985804  0.18484585360110367  0.09587397153962472  1.0000
  C   C5        1.0  0.03777896631076059  0.14169601469235  0.600792299535982  1.0000
  C   C6        1.0  0.5408609657251588  0.9370030887168143  0.8991101730840114  1.0000
  C   C7        1.0  0.9622311726010296  0.8583108813561325  0.39921008798930313  1.0000
  C   C8        1.0  0.459138632016888  0.06298297817265561  0.10089205546076131  1.0000
  C   C9        1.0  0.17224810285215847  0.22156085783914392  0.720352829016619  1.0000
  C   C10       1.0  0.5009521532279138  0.9518420835207239  0.7794462897982798  1.0000
  C   C11       1.0  0.8277560350695057  0.7784513576716637  0.2796458541419184  1.0000
  C   C12       1.0  0.4990542246313082  0.048154475925969095  0.22056028293206245  1.0000
  C   C13       1.0  0.1734217558125764  0.2610080903750145  0.8314321884654988  1.0000
  C   C14       1.0  0.4292537388921643  0.8418965748678174  0.6684245602070291  1.0000
  C   C15       1.0  0.8265889835132181  0.7389909121393429  0.16857191808549007  1.0000
  C   C16       1.0  0.570751884714646  0.1581040238818687  0.3315821440306551  1.0000
  C   C17       1.0  0.04317402332711138  0.2212878852341262  0.8210163636478142  1.0000
  C   C18       1.0  0.4001598230666658  0.7221569274543285  0.6790229375147375  1.0000
  C   C19       1.0  0.9568356572906256  0.7787091974437604  0.17898703133214158  1.0000
  C   C20       1.0  0.5998344077456679  0.2778391545183326  0.32097167933044085  1.0000
  C   C21       1.0  0.3124392065676673  0.2668076433066986  0.7278434569310336  1.0000
  C   C22       1.0  0.5385716989162646  0.08453896422594909  0.771840647078399  1.0000
  C   C23       1.0  0.6875438268150516  0.7331805929715429  0.27213243269409293  1.0000
  C   C24       1.0  0.4614179127764261  0.9154595948812771  0.22815531484879864  1.0000
  C   C25       1.0  0.7812810433285478  0.0868577343144565  0.7022967379534393  1.0000
  C   C26       1.0  0.3852268920522093  0.5792868217827234  0.7981145083453852  1.0000
  C   C27       1.0  0.2187226330778884  0.9131429185029276  0.297707496804243  1.0000
  C   C28       1.0  0.6147691221870771  0.4207088110272466  0.2018745360287966  1.0000
  C   C29       1.0  0.7616188325191188  0.9616976772527795  0.725194485602529  1.0000
  C   C30       1.0  0.2370508721868347  0.5365600625080803  0.7750370492929123  1.0000
  C   C31       1.0  0.23837985247322277  0.03831009633489659  0.2748043437741288  1.0000
  C   C32       1.0  0.7629436499249707  0.46344368841736394  0.22495306229107095  1.0000
  C   C33       1.0  0.8119788220216789  0.9595539178477637  0.8507938868037499  1.0000
  C   C34       1.0  0.10937511814505277  0.4615614786256187  0.6494149389200031  1.0000
  C   C35       1.0  0.1880155866119679  0.0404533595425747  0.14920688558328274  1.0000
  C   C36       1.0  0.8906173324614882  0.5384368018325602  0.3505807062517049  1.0000
  C   C37       1.0  0.7841252098888062  0.84200415514902  0.8680569386520174  1.0000
  C   C38       1.0  0.9745019010739853  0.41638310097494  0.6321102914946265  1.0000
  C   C39       1.0  0.2158630690654135  0.15799736481446303  0.1319363864117093  1.0000
  C   C40       1.0  0.025496518931227306  0.5836135840333156  0.3679037398223812  1.0000
  C   C41       1.0  0.70644157078393  0.7256830232307792  0.7611723974462236  1.0000
  C   C42       1.0  0.9649454853279379  0.445243006406571  0.7389949983489358  1.0000
  C   C43       1.0  0.2935568948606361  0.2743207380877593  0.2388250656830806  1.0000
  C   C44       1.0  0.03505775998851846  0.5547569235495758  0.261013705793836  1.0000
  C   C45       1.0  0.6624306280485825  0.7285595106271856  0.6366244915328423  1.0000
  C   C46       1.0  0.09230750189554014  0.5256468378834925  0.8635745400226823  1.0000
  C   C47       1.0  0.33757410151530814  0.2714520735170325  0.3633823083360852  1.0000
  C   C48       1.0  0.907687233121706  0.4743574266654421  0.13642602609760948  1.0000
  C   C49       1.0  0.6902519352542811  0.8461220925994086  0.6194376571928116  1.0000
  C   C50       1.0  0.22713181153700643  0.5707120642153073  0.8807925253234643  1.0000
  C   C51       1.0  0.3097492099151253  0.15388654732930715  0.38056319325426097  1.0000
  C   C52       1.0  0.7728692353683471  0.42929633865641403  0.11920349995300226  1.0000
  C   C53       1.0  0.6638343001893007  0.5991281966151194  0.7794374835094474  1.0000
  C   C54       1.0  0.8199743337634472  0.3841900488117532  0.7205422919510839  1.0000
  C   C55       1.0  0.33618251646272057  0.40087469547477644  0.2205762019240183  1.0000
  C   C56       1.0  0.18001856431041563  0.6158089940171649  0.2794496880306311  1.0000
  N   N1        1.0  0.9160979536744663  0.13895327545734662  0.7059494929555755  1.0000
  N   N2        1.0  0.4332681096661232  0.7102779546735932  0.7942410474990353  1.0000
  N   N3        1.0  0.08391340655557407  0.8610521324912102  0.2940453579229967  1.0000
  N   N4        1.0  0.5667230432860749  0.2897126048466561  0.20575625980365686  1.0000
  O   O1        1.0  0.3017033787219674  0.2653863736028513  0.6232307206333445  1.0000
  O   O2        1.0  0.6419863470516063  0.17830564556016532  0.8764446091653967  1.0000
  O   O3        1.0  0.6982932142778538  0.7345832636732725  0.3767547272959034  1.0000
  O   O4        1.0  0.3580172442469588  0.8216930603868988  0.12356014876125691  1.0000
  O   O5        1.0  0.4316765893830023  0.3035381694902313  0.8399427758194236  1.0000
  O   O6        1.0  0.463093688186042  0.09169554398302888  0.6597696846235266  1.0000
  O   O7        1.0  0.5683185676809399  0.6964827871920959  0.1600361936829912  1.0000
  O   O8        1.0  0.5368705402765739  0.9083076673834469  0.3402326259096283  1.0000
  O   O9        1.0  0.7111139705680929  0.5987768460746212  0.8934566337252221  1.0000
  O   O10       1.0  0.7057295808668088  0.3175104416587615  0.6064843917024663  1.0000
  O   O11       1.0  0.2888980511979327  0.4012336408995554  0.10656129666842419  1.0000
  O   O12       1.0  0.29425448257919135  0.6825122617717485  0.3935087119435252  1.0000
  O   O13       1.0  0.5763432290893178  0.497654691513489  0.6748152400831912  1.0000
  O   O14       1.0  0.8229136152564749  0.4011823539042824  0.8251035310453148  1.0000
  O   O15       1.0  0.4236738788621892  0.5023558695291825  0.3251939400890791  1.0000
  O   O16       1.0  0.1770881414281504  0.5988003695095827  0.17489533134702376  1.0000
