data_image0
_chemical_formula_structural       Cd2H40C34S4I4N8
_chemical_formula_sum              "Cd2 H40 C34 S4 I4 N8"
_cell_length_a       7.7592697956696774
_cell_length_b       11.304030500018833
_cell_length_c       14.719357465953843
_cell_angle_alpha    117.80984102900486
_cell_angle_beta     90.0996668582564
_cell_angle_gamma    93.24909955851437

_space_group_name_H-M_alt    "P 1"
_space_group_IT_number       1

loop_
  _space_group_symop_operation_xyz
  'x, y, z'

loop_
  _atom_site_type_symbol
  _atom_site_label
  _atom_site_symmetry_multiplicity
  _atom_site_fract_x
  _atom_site_fract_y
  _atom_site_fract_z
  _atom_site_occupancy
  Cd  Cd1       1.0  0.731559777906348  0.6668674691004951  0.8315555004076248  1.0000
  Cd  Cd2       1.0  0.268431990366743  0.33313127445866547  0.16844783888069517  1.0000
  H   H1        1.0  0.28910113616891653  0.671975185792945  0.8759668576513492  1.0000
  H   H2        1.0  0.7108948452451999  0.3280100242558817  0.12402863927658818  1.0000
  H   H3        1.0  0.11246981978563043  0.48236561634362124  0.9163908550258245  1.0000
  H   H4        1.0  0.8875283269003802  0.517615971304849  0.08359529981409256  1.0000
  H   H5        1.0  0.3281595264397197  0.3140444318076447  0.8935349895137892  1.0000
  H   H6        1.0  0.6718350231945397  0.6859397659974248  0.10645880389405703  1.0000
  H   H7        1.0  0.6413351910657356  0.3067908130146861  0.6542457653255129  1.0000
  H   H8        1.0  0.3586615003833701  0.6932135168689086  0.3457560508977979  1.0000
  H   H9        1.0  0.784990041021196  0.1939472282724068  0.6589664669783917  1.0000
  H   H10       1.0  0.21501294907597668  0.8060554761172937  0.3410300932713924  1.0000
  H   H11       1.0  0.3413414238203103  0.36829936853082756  0.6916884078239749  1.0000
  H   H12       1.0  0.6586435252320159  0.6317047803444779  0.3083166726019756  1.0000
  H   H13       1.0  0.18002110502342816  0.27649935567598766  0.5963819880076359  1.0000
  H   H14       1.0  0.819974932698486  0.723494078434925  0.40361894534892445  1.0000
  H   H15       1.0  0.39565220080029934  0.2904282137634198  0.5616569807350873  1.0000
  H   H16       1.0  0.6043467930797705  0.709582083253146  0.4383475011104354  1.0000
  H   H17       1.0  0.09102073264467951  0.06772044860550613  0.5743544393795903  1.0000
  H   H18       1.0  0.9089856922799836  0.9322802969204385  0.4256455759739026  1.0000
  H   H19       1.0  0.9810596559295135  0.8564134472196869  0.5390206766756125  1.0000
  H   H20       1.0  0.01893392888433709  0.14358814399802355  0.46098225489753025  1.0000
  H   H21       1.0  0.062214908136226696  0.7987667299488805  0.6229192143711801  1.0000
  H   H22       1.0  0.9377916280567578  0.20123525893087896  0.3770852922004836  1.0000
  H   H23       1.0  0.1260365335537088  0.7268426371860528  0.4945094899315025  1.0000
  H   H24       1.0  0.8739582199472978  0.2731576423909772  0.5054889361432873  1.0000
  H   H25       1.0  0.8188419409615194  0.9991322670599626  0.6307819186158028  1.0000
  H   H26       1.0  0.1811585903540092  0.0008718579630695002  0.36921985476698893  1.0000
  H   H27       1.0  0.7346328081818855  0.8846310392599364  0.6720322502680677  1.0000
  H   H28       1.0  0.26536900308911265  0.11537301747624441  0.32796950883454923  1.0000
  H   H29       1.0  0.7554575152581082  0.057789030174994586  0.7587340171363552  1.0000
  H   H30       1.0  0.24453936857144498  0.9422162174160036  0.2412667434693249  1.0000
  H   H31       1.0  0.5650209246597627  0.740016074188688  0.6062935952095219  1.0000
  H   H32       1.0  0.43498040072103816  0.25998486307307184  0.393705090555713  1.0000
  H   H33       1.0  0.3556324136171867  0.6862587983023544  0.5482687412753082  1.0000
  H   H34       1.0  0.6443650110630872  0.3137425880547866  0.4517341474573088  1.0000
  H   H35       1.0  0.8124226761241714  0.004863662359689213  0.9712069649256423  1.0000
  H   H36       1.0  0.18757726364555793  0.9951445274262127  0.028796147102596575  1.0000
  H   H37       1.0  0.5970407590125577  0.1930219484494557  0.969942695327781  1.0000
  H   H38       1.0  0.4029663543217835  0.8069827935524994  0.030058644390976424  1.0000
  H   H39       1.0  0.34355957912965357  0.053132220067006096  0.8508142710747253  1.0000
  H   H40       1.0  0.6564448224693537  0.9468715779780509  0.14918537940411633  1.0000
  C   C1        1.0  0.33559997888461623  0.5837810860763922  0.8764539929173625  1.0000
  C   C2        1.0  0.6643972478024909  0.4162109549822474  0.12354104823189264  1.0000
  C   C3        1.0  0.24504401085821567  0.4899440540291735  0.8957121553152307  1.0000
  C   C4        1.0  0.7549452164346704  0.5100395399217276  0.10428344418542677  1.0000
  C   C5        1.0  0.5150189821232588  0.4307620369704708  0.8560620914288963  1.0000
  C   C6        1.0  0.48498199317912605  0.5692301655798248  0.14393914707012112  1.0000
  C   C7        1.0  0.6583001416960671  0.23464152278192776  0.6831765478119254  1.0000
  C   C8        1.0  0.34170277742799726  0.7653614665483913  0.3168248659192019  1.0000
  C   C9        1.0  0.5145233715667175  0.127444143012255  0.6506095735907709  1.0000
  C   C10       1.0  0.4854787377403369  0.8725536471940317  0.3493867179113865  1.0000
  C   C11       1.0  0.3510180078440612  0.15071995834934174  0.6224484098843706  1.0000
  C   C12       1.0  0.6489805652453385  0.8492801977787324  0.37755136005885265  1.0000
  C   C13       1.0  0.31531698131641406  0.2776523853397634  0.6183139896826051  1.0000
  C   C14       1.0  0.6846788293425663  0.7223470303604245  0.3816875577930718  1.0000
  C   C15       1.0  0.21878152134960524  0.049571528308014506  0.594544520679584  1.0000
  C   C16       1.0  0.7812222222567725  0.9504281511436258  0.4054517253705542  1.0000
  C   C17       1.0  0.24353187311435678  0.9262795631619838  0.5908892844734199  1.0000
  C   C18       1.0  0.7564736261986836  0.0737232081830186  0.4091107139884046  1.0000
  C   C19       1.0  0.09621608560929931  0.8223770170787291  0.5603171477784346  1.0000
  C   C20       1.0  0.9037882957116709  0.17762686237793446  0.43968388940935216  1.0000
  C   C21       1.0  0.40867984602746077  0.9015370497942424  0.6165673294658803  1.0000
  C   C22       1.0  0.5913201993978632  0.09846395575436868  0.38343137057952975  1.0000
  C   C23       1.0  0.5438579629580361  0.003061631622223593  0.6478986737635708  1.0000
  C   C24       1.0  0.45614428803438756  0.9969372798204716  0.35210002889333253  1.0000
  C   C25       1.0  0.7207874101747579  0.9840316950636848  0.6787015229569636  1.0000
  C   C26       1.0  0.2792128073529839  0.01597030960393649  0.3212975081797609  1.0000
  C   C27       1.0  0.4311489840900365  0.7681217240069103  0.6122846172250718  1.0000
  C   C28       1.0  0.5688510511962689  0.23187932224750804  0.3877147761748177  1.0000
  C   C29       1.0  0.47609255349284757  0.8803364693453088  0.8205081373495207  1.0000
  C   C30       1.0  0.5239163459652048  0.11967124243260231  0.17949487471749145  1.0000
  C   C31       1.0  0.6921719324488509  0.9904974546121607  0.9287399372805966  1.0000
  C   C32       1.0  0.3078365923873108  0.009508381045158405  0.07126449266721123  1.0000
  C   C33       1.0  0.586032264792131  0.0847011190802718  0.9298193823112303  1.0000
  C   C34       1.0  0.4139705892323988  0.9153088916641252  0.07018366998481447  1.0000
  S   S1        1.0  0.6939277840121323  0.33542309947065263  0.825411967207039  1.0000
  S   S2        1.0  0.3060774057785594  0.6645707743396726  0.17458781057066372  1.0000
  S   S3        1.0  0.34325819612670483  0.7557982188111367  0.7255583941452246  1.0000
  S   S4        1.0  0.6567474448717122  0.2442056737702741  0.2744440154713459  1.0000
  I   I1        1.0  0.9155424748544051  0.7721579097154819  0.02272544963227583  1.0000
  I   I2        1.0  0.08445976599900008  0.22784104243302752  0.9772739463791  1.0000
  I   I3        1.0  0.8674310221815207  0.555164081145925  0.6418314694674268  1.0000
  I   I4        1.0  0.13254089464040678  0.44483830459610374  0.3581654646783934  1.0000
  N   N1        1.0  0.5025272388255004  0.5472834137674313  0.8531406683342129  1.0000
  N   N2        1.0  0.497474682366537  0.4527066815522003  0.146859200347528  1.0000
  N   N3        1.0  0.3594138027954799  0.3958202351840114  0.8827521018833269  1.0000
  N   N4        1.0  0.6405886347038107  0.6041728574926283  0.11724876007235716  1.0000
  N   N5        1.0  0.6229230909273087  0.8648320469128166  0.861133349950322  1.0000
  N   N6        1.0  0.37708452857526703  0.1351757331519536  0.13886967639686534  1.0000
  N   N7        1.0  0.4514062001591057  0.013864998736849505  0.8624987881798705  1.0000
  N   N8        1.0  0.5486025576135775  0.9861415918046533  0.13750181273239562  1.0000
