data_image0
_chemical_formula_structural       Cu4H28C4N8Cl4O24
_chemical_formula_sum              "Cu4 H28 C4 N8 Cl4 O24"
_cell_length_a       7.438265113673555
_cell_length_b       7.743756771000039
_cell_length_c       12.334964893625868
_cell_angle_alpha    90.00000517454029
_cell_angle_beta     90.00519493390526
_cell_angle_gamma    89.99998997400253

_space_group_name_H-M_alt    "P 1"
_space_group_IT_number       1

loop_
  _space_group_symop_operation_xyz
  'x, y, z'

loop_
  _atom_site_type_symbol
  _atom_site_label
  _atom_site_symmetry_multiplicity
  _atom_site_fract_x
  _atom_site_fract_y
  _atom_site_fract_z
  _atom_site_occupancy
  Cu  Cu1       1.0  0.17219329855139157  0.2499988249219314  0.3576003910292086  1.0000
  Cu  Cu2       1.0  0.32788132248715834  0.7499990572235192  0.857764990902545  1.0000
  Cu  Cu3       1.0  0.672140494547321  0.2500000596088654  0.14219717675390334  1.0000
  Cu  Cu4       1.0  0.8278325489443715  0.7500002919074475  0.6423252950772278  1.0000
  H   H1        1.0  0.07698137190455157  0.5594765254226459  0.3193698758029767  1.0000
  H   H2        1.0  0.42313591695279473  0.44054588703153996  0.8196199351673595  1.0000
  H   H3        1.0  0.5767957964551655  0.9405873598345879  0.18043222874587878  1.0000
  H   H4        1.0  0.9230404857235328  0.05944269863550029  0.6806587589192645  1.0000
  H   H5        1.0  0.9230404501145841  0.4405574582121902  0.6806587695468945  1.0000
  H   H6        1.0  0.5767958320696708  0.5594131975656893  0.18043221811659282  1.0000
  H   H7        1.0  0.4231359525595764  0.0594543719865896  0.8196199245403829  1.0000
  H   H8        1.0  0.07698133630186992  0.9405241341298806  0.3193698864287383  1.0000
  H   H9        1.0  0.29542371519303856  0.5558309917237666  0.3409738127588539  1.0000
  H   H10       1.0  0.2046685764221294  0.4441785102552203  0.8411332666172553  1.0000
  H   H11       1.0  0.7952712062976913  0.9441695809912504  0.15896672922854543  1.0000
  H   H12       1.0  0.7046008301518896  0.0557907407309983  0.6590313114301194  1.0000
  H   H13       1.0  0.7045994494609857  0.444209448723619  0.6590313222245995  1.0000
  H   H14       1.0  0.795271242581471  0.5558322288598135  0.15896671839950463  1.0000
  H   H15       1.0  0.204667268247384  0.055821787680720505  0.8411324450472859  1.0000
  H   H16       1.0  0.2954236789700815  0.9441683438552602  0.3409746342914558  1.0000
  H   H17       1.0  0.1538903953918052  0.5469838838098084  0.44425194849133465  1.0000
  H   H18       1.0  0.34611925699530127  0.4530475864458836  0.9444613106892914  1.0000
  H   H19       1.0  0.6538890854764715  0.9528837016855932  0.05559896305013009  1.0000
  H   H20       1.0  0.8461731399089202  0.047086935820807696  0.555762904718925  1.0000
  H   H21       1.0  0.8461731019303754  0.45291192399302105  0.5557621053320502  1.0000
  H   H22       1.0  0.6538891233886444  0.5471181162055245  0.055598951735099385  1.0000
  H   H23       1.0  0.3461192949382408  0.04695270343292179  0.9444612993650734  1.0000
  H   H24       1.0  0.1538903574546566  0.9530167814048128  0.4442519598138259  1.0000
  H   H25       1.0  0.16923532214431697  0.2500000992119453  0.12070381064987856  1.0000
  H   H26       1.0  0.3307916539892304  0.7500003310370005  0.6209220776982461  1.0000
  H   H27       1.0  0.6692597414767575  0.25000136852030863  0.37906197976471373  1.0000
  H   H28       1.0  0.8308805956177208  0.7500003089685521  0.879161885859936  1.0000
  C   C1        1.0  0.3132852343277008  0.2499987975529692  0.14119342472154975  1.0000
  C   C2        1.0  0.18670447908850457  0.750000344326054  0.6413389430756451  1.0000
  C   C3        1.0  0.8133294368724009  0.25000006386756013  0.35861430717303466  1.0000
  C   C4        1.0  0.6867917013838108  0.7500003192732407  0.8587460447448546  1.0000
  N   N1        1.0  0.175377473802115  0.5050120002276302  0.3664104009973811  1.0000
  N   N2        1.0  0.3246850281375728  0.4950091277411842  0.8666129149467279  1.0000
  N   N3        1.0  0.6752802842368196  0.9949705130520955  0.13342790307245875  1.0000
  N   N4        1.0  0.8246618684563314  0.0050182149208453  0.6335817495066534  1.0000
  N   N5        1.0  0.8246618226772212  0.4949819511540099  0.6335817631696086  1.0000
  N   N6        1.0  0.675280330013635  0.505031312713534  0.13342788941018568  1.0000
  N   N7        1.0  0.3246864182604412  0.004991154267138101  0.8666120906155184  1.0000
  N   N8        1.0  0.1753787724213112  0.994988650089425  0.3664104146975191  1.0000
  Cl  Cl1       1.0  0.3519137515301907  0.24999882832976536  0.6055371100611848  1.0000
  Cl  Cl2       1.0  0.1479630500498317  0.7500015997000985  0.10556011003598087  1.0000
  Cl  Cl3       1.0  0.8519660077974363  0.24999880850701572  0.8944604257363903  1.0000
  Cl  Cl4       1.0  0.6480529459147135  0.7500015798707693  0.3944355952318616  1.0000
  O   O1        1.0  0.3635167263404213  0.24999880066359026  0.2400179437553759  1.0000
  O   O2        1.0  0.13645151874523256  0.7500016470270268  0.7401712488701119  1.0000
  O   O3        1.0  0.8635366871454478  0.24999876116985584  0.25977551449799546  1.0000
  O   O4        1.0  0.6364728241930918  0.7500016075334129  0.7599320624638249  1.0000
  O   O5        1.0  0.4254654801422292  0.24999619993378994  0.06308601970919628  1.0000
  O   O6        1.0  0.07454208902158399  0.7500016391629388  0.5632310679832597  1.0000
  O   O7        1.0  0.9255106477418023  0.24999876902835894  0.43671164363460224  1.0000
  O   O8        1.0  0.5746638891579181  0.7500016255272043  0.936880204411025  1.0000
  O   O9        1.0  0.5005498137723805  0.2500001133428498  0.6851555142473911  1.0000
  O   O10       1.0  0.9994242929732662  0.7500015358105541  0.18520911526922385  1.0000
  O   O11       1.0  0.0005934993176523998  0.2499988723932702  0.8148657400725196  1.0000
  O   O12       1.0  0.49938193141392867  0.7500015862255012  0.3148455647130674  1.0000
  O   O13       1.0  0.24287744115345328  0.09621559920068988  0.6215025472561206  1.0000
  O   O14       1.0  0.25702192025121207  0.903786122522135  0.12149910154588636  1.0000
  O   O15       1.0  0.7429286166354175  0.40378334685257766  0.8784865831390786  1.0000
  O   O16       1.0  0.7570785283125119  0.5962092910129754  0.3784498815762162  1.0000
  O   O17       1.0  0.7570784995739998  0.9037912658136166  0.3784498901533409  1.0000
  O   O18       1.0  0.742928645372487  0.09621686840642239  0.8784865745623943  1.0000
  O   O19       1.0  0.25702598218719425  0.5962157699870261  0.12149909307956357  1.0000
  O   O20       1.0  0.24287606801662776  0.40378466037270044  0.6215025557960627  1.0000
  O   O21       1.0  0.428130304124906  0.24999881409095787  0.49610151281283504  1.0000
  O   O22       1.0  0.0716518465941007  0.750001671041744  0.9961450709815193  1.0000
  O   O23       1.0  0.9281844496329511  0.24999873717485596  0.0039014047640719986  1.0000
  O   O24       1.0  0.5718982366710605  0.7500015941054631  0.5038841654312021  1.0000
