data_image0
_chemical_formula_structural       Ca2H44C40N8O16
_chemical_formula_sum              "Ca2 H44 C40 N8 O16"
_cell_length_a       8.952893751957742
_cell_length_b       10.430766291497534
_cell_length_c       12.984118607857821
_cell_angle_alpha    97.69866582422586
_cell_angle_beta     110.17193063550808
_cell_angle_gamma    90.00116290584037

_space_group_name_H-M_alt    "P 1"
_space_group_IT_number       1

loop_
  _space_group_symop_operation_xyz
  'x, y, z'

loop_
  _atom_site_type_symbol
  _atom_site_label
  _atom_site_symmetry_multiplicity
  _atom_site_fract_x
  _atom_site_fract_y
  _atom_site_fract_z
  _atom_site_occupancy
  Ca  Ca1       1.0  0.4455390961655397  0.40766495074085896  0.9032486926171972  1.0000
  Ca  Ca2       1.0  0.4579625238346807  0.9076008112853131  0.9031765131019116  1.0000
  H   H1        1.0  0.16316906694906663  0.42843845660523533  0.6565723343619752  1.0000
  H   H2        1.0  0.49307708160456093  0.9284532677414673  0.6565219373232909  1.0000
  H   H3        1.0  0.7579578040781881  0.3796190873579662  0.13679976715584977  1.0000
  H   H4        1.0  0.3784853706031015  0.8795828127709553  0.1364984107833322  1.0000
  H   H5        1.0  0.6817345250744465  0.9714700119870442  0.1759751443742559  1.0000
  H   H6        1.0  0.49415952150445014  0.4714710548251375  0.17581989015015867  1.0000
  H   H7        1.0  0.2189107233078431  0.8372493363419408  0.6135408428536878  1.0000
  H   H8        1.0  0.3944691379520719  0.33726966868641034  0.6133229282141103  1.0000
  H   H9        1.0  0.12341702789611017  0.10968000401118867  0.4350049920569461  1.0000
  H   H10       1.0  0.31152562168183817  0.6097021262649349  0.43480713266924204  1.0000
  H   H11       1.0  0.09747500582644622  0.32479177811245563  0.3683247214580021  1.0000
  H   H12       1.0  0.2706336487083263  0.8247282137219473  0.36803425766618153  1.0000
  H   H13       1.0  0.8170595149790785  0.6731661584541512  0.3313640745437355  1.0000
  H   H14       1.0  0.514120768852685  0.17290424242031582  0.3312246245747518  1.0000
  H   H15       1.0  0.8474968314981555  0.4613086285695829  0.40385423288234523  1.0000
  H   H16       1.0  0.5559398535448993  0.9610775889275586  0.40375312865784  1.0000
  H   H17       1.0  0.3318160466961331  0.25726346471762435  0.0767368750854729  1.0000
  H   H18       1.0  0.745147284117728  0.7572644487424185  0.07653814949837569  1.0000
  H   H19       1.0  0.5944691248259701  0.6276005169320767  0.7966076299684064  1.0000
  H   H20       1.0  0.20218348044433304  0.12774581991271108  0.7967361140864639  1.0000
  H   H21       1.0  0.6118307232617327  0.5771668336410798  0.5476829435983532  1.0000
  H   H22       1.0  0.9357967975436239  0.0771795761357268  0.5478142860120913  1.0000
  H   H23       1.0  0.803825947006594  0.6510052169710292  0.6279976721755887  1.0000
  H   H24       1.0  0.8241506083199824  0.151037949745259  0.6281034034750093  1.0000
  H   H25       1.0  0.6321852368315034  0.7024244804621346  0.6601734644527327  1.0000
  H   H26       1.0  0.027952271786404005  0.2025163679966582  0.6602429095695259  1.0000
  H   H27       1.0  0.9252008993945894  0.4243113673164416  0.7298921774103918  1.0000
  H   H28       1.0  0.8046408448047802  0.9244376121171383  0.7299816676420294  1.0000
  H   H29       1.0  0.773504150749268  0.38437981666253757  0.597555472088857  1.0000
  H   H30       1.0  0.8240413016682383  0.8845161661141887  0.5976535321478381  1.0000
  H   H31       1.0  0.7524461597924343  0.3281363369982487  0.7167588967535751  1.0000
  H   H32       1.0  0.9642216763824152  0.8282003247201999  0.7168557484039229  1.0000
  H   H33       1.0  0.9349152511822326  0.29457147283058294  0.8880956676176198  1.0000
  H   H34       1.0  0.9536568565750656  0.7941666113546617  0.888031118854201  1.0000
  H   H35       1.0  0.853773245621099  0.24400346842307397  0.9845823800162493  1.0000
  H   H36       1.0  0.13120109226359492  0.7435693740474394  0.9845989151799588  1.0000
  H   H37       1.0  0.8894853649287883  0.1257874774944554  0.8843559368789616  1.0000
  H   H38       1.0  0.9952125542719586  0.6253596518728058  0.8843104005886248  1.0000
  H   H39       1.0  0.0884321017003771  0.013323554115451896  0.0403955633449016  1.0000
  H   H40       1.0  0.9517213442153292  0.5129835336693134  0.04035463681282181  1.0000
  H   H41       1.0  0.04106665358627741  0.12708094241929052  0.1391393110791981  1.0000
  H   H42       1.0  0.09791014035923241  0.6266596054071556  0.1392207873974272  1.0000
  H   H43       1.0  0.24204169562136  0.11552301402973345  0.1441863734159341  1.0000
  H   H44       1.0  0.9018317547925678  0.6154189068506496  0.1439857361911265  1.0000
  C   C1        1.0  0.2803930293962935  0.6261511112575774  0.719523807672971  1.0000
  C   C2        1.0  0.4389135595804561  0.1262731599768259  0.7194002911907236  1.0000
  C   C3        1.0  0.6188451774423314  0.1891727877592118  0.07931944968215994  1.0000
  C   C4        1.0  0.4606234062932301  0.6892651785371554  0.07926777921457522  1.0000
  C   C5        1.0  0.15622912710998088  0.637132720540379  0.6104009820616626  1.0000
  C   C6        1.0  0.4537029312702929  0.13707533132593847  0.610187823112547  1.0000
  C   C7        1.0  0.7557428453031606  0.16902513268487235  0.17944569263797663  1.0000
  C   C8        1.0  0.4236916750950002  0.6690393211369069  0.1792906668797016  1.0000
  C   C9        1.0  0.77239920556935  0.04910280368523699  0.21808371490698875  1.0000
  C   C10       1.0  0.44564968861606497  0.5491257581179028  0.21792170838178757  1.0000
  C   C11       1.0  0.1386436158289399  0.7543495030502287  0.5674618065360164  1.0000
  C   C12       1.0  0.42849878667473007  0.254290026935756  0.5672330018828617  1.0000
  C   C13       1.0  0.05230872866965801  0.5291618902275772  0.5482681801629425  1.0000
  C   C14       1.0  0.4955167573131832  0.02905631091262961  0.5481131646515822  1.0000
  C   C15       1.0  0.8739172776683476  0.2700268356948143  0.23580599740573413  1.0000
  C   C16       1.0  0.361795275068026  0.7699832238765579  0.23559929276332534  1.0000
  C   C17       1.0  0.9022659810116096  0.027084265142846703  0.31035619298371125  1.0000
  C   C18       1.0  0.4080719255348201  0.5270884582985432  0.310188307106948  1.0000
  C   C19       1.0  0.020578993881919402  0.12785751135564988  0.3644794893816298  1.0000
  C   C20       1.0  0.34385239139952267  0.6278563382868895  0.3642939542762775  1.0000
  C   C21       1.0  0.019263345696003898  0.7680553124734574  0.46694632004147973  1.0000
  C   C22       1.0  0.4475190175067781  0.26792713247294125  0.46674868460660696  1.0000
  C   C23       1.0  0.006603552350043199  0.2470322650708141  0.3277609421218629  1.0000
  C   C24       1.0  0.3210365860143298  0.7469998560352308  0.32753137386902864  1.0000
  C   C25       1.0  0.9123688755850168  0.6613412233303747  0.40836141401467074  1.0000
  C   C26       1.0  0.495814766800784  0.1611765671888179  0.40823732881938923  1.0000
  C   C27       1.0  0.9285065636310749  0.544191991202517  0.44862261525304353  1.0000
  C   C28       1.0  0.5197374998026589  0.044000282076233105  0.44848250726504807  1.0000
  C   C29       1.0  0.21932476401221385  0.275076619210637  0.012027565587956724  1.0000
  C   C30       1.0  0.7930231576779719  0.7749045584423937  0.011837339534629626  1.0000
  C   C31       1.0  0.6561056449650308  0.5371425063470596  0.7893638036399437  1.0000
  C   C32       1.0  0.13337788630717992  0.037246375922876496  0.7895072072424727  1.0000
  C   C33       1.0  0.6891053123683835  0.6191441824282721  0.6314145809668262  1.0000
  C   C34       1.0  0.9423225733296974  0.11919953153050503  0.6315456528161506  1.0000
  C   C35       1.0  0.7960129287718088  0.40812085454052743  0.6864534021487004  1.0000
  C   C36       1.0  0.8904189755569548  0.9082297747610254  0.686569101417021  1.0000
  C   C37       1.0  0.9339018174615531  0.21853964636865442  0.9381620343756651  1.0000
  C   C38       1.0  0.004657922189622397  0.7181218968196461  0.9381104199368409  1.0000
  C   C39       1.0  0.11754691162620652  0.11042490259202248  0.08895997953271012  1.0000
  C   C40       1.0  0.9712884657533891  0.6101204692283417  0.08888246080984169  1.0000
  N   N1        1.0  0.9044872094133751  0.9034166282231482  0.3423282268190422  1.0000
  N   N2        1.0  0.43779229058640823  0.40335759580581526  0.342136070049115  1.0000
  N   N3        1.0  0.014791467031116695  0.8908247080280703  0.4332611256397101  1.0000
  N   N4        1.0  0.4184558603754739  0.39074559883067644  0.4330716984771713  1.0000
  N   N5        1.0  0.09438887990040713  0.20734143213104522  0.0145908950682525  1.0000
  N   N6        1.0  0.9204481481444874  0.7070597738883534  0.014484466402500049  1.0000
  N   N7        1.0  0.712619460120287  0.5229666054207484  0.7061628513497383  1.0000
  N   N8        1.0  0.9935961656781559  0.0230524063355801  0.7063130915244429  1.0000
  O   O1        1.0  0.6064393168430515  0.3051449222390731  0.05218668669071044  1.0000
  O   O2        1.0  0.4457653464975166  0.805235302494239  0.052121366504095955  1.0000
  O   O3        1.0  0.29129899236252044  0.5133977827420965  0.752624501656456  1.0000
  O   O4        1.0  0.4613008884835139  0.013564790042735805  0.7525890617377798  1.0000
  O   O5        1.0  0.5210855958255322  0.0964965597848462  0.025246298059158793  1.0000
  O   O6        1.0  0.5044787028568296  0.59665397891483  0.025248428050083767  1.0000
  O   O7        1.0  0.06919290916867028  0.412517454822911  0.5827691568701852  1.0000
  O   O8        1.0  0.5131139445921563  0.9124475342091001  0.5826815862666878  1.0000
  O   O9        1.0  0.3694680489490736  0.7235562129788987  0.7745628150594542  1.0000
  O   O10       1.0  0.40513095600736904  0.22374647752324958  0.774498440995217  1.0000
  O   O11       1.0  0.8635536113444999  0.3871419402022979  0.20228332930645374  1.0000
  O   O12       1.0  0.33833439448192604  0.8870097099621147  0.20196643634083958  1.0000
  O   O13       1.0  0.215163395830956  0.35135837664286385  0.9438251631322458  1.0000
  O   O14       1.0  0.7291879197925938  0.8512629289743856  0.9436232363541778  1.0000
  O   O15       1.0  0.6688997324921645  0.4549423146609328  0.8541964908505978  1.0000
  O   O16       1.0  0.18548080687020974  0.9550326445246069  0.8542918851960267  1.0000
