data_image0
_chemical_formula_structural       Al4H48C72N4O28
_chemical_formula_sum              "Al4 H48 C72 N4 O28"
_cell_length_a       6.648860864151849
_cell_length_b       20.947079392825863
_cell_length_c       21.406642802514106
_cell_angle_alpha    90.00003063593344
_cell_angle_beta     90.00174483091335
_cell_angle_gamma    96.23969967990236

_space_group_name_H-M_alt    "P 1"
_space_group_IT_number       1

loop_
  _space_group_symop_operation_xyz
  'x, y, z'

loop_
  _atom_site_type_symbol
  _atom_site_label
  _atom_site_symmetry_multiplicity
  _atom_site_fract_x
  _atom_site_fract_y
  _atom_site_fract_z
  _atom_site_occupancy
  Al  Al1       1.0  0.9281047853847966  0.6901004185505784  0.4966482326736426  1.0000
  Al  Al2       1.0  0.07191108109510938  0.30990362615461453  0.9966511378202726  1.0000
  Al  Al3       1.0  0.4275314035406764  0.690115394407833  0.49496371743026674  1.0000
  Al  Al4       1.0  0.5724757894520209  0.3098847100483296  0.9949647367991402  1.0000
  H   H1        1.0  0.0001844784578963783  0.5111434489953339  0.0524362182250684  1.0000
  H   H2        1.0  0.9999187740120306  0.4888459802736164  0.5524244476163247  1.0000
  H   H3        1.0  0.9356145388075418  0.6562588167141783  0.21818700997355484  1.0000
  H   H4        1.0  0.0644482527295693  0.34373509980693473  0.7181758940307504  1.0000
  H   H5        1.0  0.010050945129052006  0.607419281704324  0.12135599431394441  1.0000
  H   H6        1.0  0.9900580344313711  0.3925738446705012  0.6213408576295762  1.0000
  H   H7        1.0  0.48173910711054196  0.4815789194466262  0.4541282980814429  1.0000
  H   H8        1.0  0.5182351474486921  0.5184239731276888  0.9541409245746734  1.0000
  H   H9        1.0  0.5777990642717725  0.38053192282120557  0.40511328547022174  1.0000
  H   H10       1.0  0.42214957652741  0.6194651984884273  0.9051214148625492  1.0000
  H   H11       1.0  0.7854741836488658  0.6501058274343023  0.3233358666666248  1.0000
  H   H12       1.0  0.2145532336255656  0.3498909576624313  0.8233341855216026  1.0000
  H   H13       1.0  0.4257228638289093  0.8065185311975186  0.3424274541937748  1.0000
  H   H14       1.0  0.5742217821470987  0.193491689965711  0.8424312109686056  1.0000
  H   H15       1.0  0.44620833177800284  0.9006393070285627  0.2680711629829347  1.0000
  H   H16       1.0  0.5537652873436798  0.0993714426431893  0.7680747857957045  1.0000
  H   H17       1.0  0.41588971966481136  0.028891543741330794  0.13017392226139182  1.0000
  H   H18       1.0  0.5841307571496301  0.9711101221757303  0.6301824010974073  1.0000
  H   H19       1.0  0.47055763626895697  0.12935802295128698  0.0653254925659823  1.0000
  H   H20       1.0  0.5294722122164899  0.8706372728921321  0.5653397799293957  1.0000
  H   H21       1.0  0.02874535039462237  0.867186943520295  0.4071290844268702  1.0000
  H   H22       1.0  0.9712122221239597  0.1328217800095217  0.9071123161273178  1.0000
  H   H23       1.0  0.04352626632508103  0.9639243014669387  0.3363104703860458  1.0000
  H   H24       1.0  0.9564509316112435  0.03608102324765379  0.8362973247429935  1.0000
  H   H25       1.0  0.06815344989155392  0.08960968395881248  0.2685868749414341  1.0000
  H   H26       1.0  0.9318294058824109  0.9104083582077819  0.7685788507644915  1.0000
  H   H27       1.0  0.18483446937448636  0.20640986906612108  0.1048669193807683  1.0000
  H   H28       1.0  0.8152066603599053  0.7935809362938357  0.6048677343598072  1.0000
  H   H29       1.0  0.5456297534883136  0.30444059973049054  0.23411674890918022  1.0000
  H   H30       1.0  0.5703215821167973  0.3154326860848541  0.1522183883665988  1.0000
  H   H31       1.0  0.3688915811262703  0.40450434728512624  0.24161973140946458  1.0000
  H   H32       1.0  0.38462060142813215  0.41318097746080423  0.1592658874806645  1.0000
  H   H33       1.0  0.18794856801807214  0.30226866653997314  0.14757192300783833  1.0000
  H   H34       1.0  0.04928403516667861  0.3534259631153844  0.1920345161675172  1.0000
  H   H35       1.0  0.17727391816050903  0.2953300392127716  0.22995894409601902  1.0000
  H   H36       1.0  0.45435150128322027  0.6955543114969628  0.7341329858926429  1.0000
  H   H37       1.0  0.4296269520096487  0.6845749009033427  0.6522321914427067  1.0000
  H   H38       1.0  0.6310949623220806  0.5954954439541851  0.7416174072229822  1.0000
  H   H39       1.0  0.615299961293765  0.5868176855845916  0.6592634996271798  1.0000
  H   H40       1.0  0.8119631166022147  0.697732235220684  0.6475689297507472  1.0000
  H   H41       1.0  0.9506691488517661  0.6465674824551328  0.6920100483841694  1.0000
  H   H42       1.0  0.8227303881969518  0.7046632189984691  0.7299550604935021  1.0000
  H   H43       1.0  0.7483617477962382  0.32422783992497267  0.32037166399409506  1.0000
  H   H44       1.0  0.25155319656869307  0.6757661401813876  0.820386204500636  1.0000
  H   H45       1.0  0.16258308784288997  0.6576200751284772  0.4208156728777368  1.0000
  H   H46       1.0  0.837402551151783  0.34238329913188176  0.9208214294062529  1.0000
  H   H47       1.0  0.66393158481241  0.660628965218059  0.5712428041893105  1.0000
  H   H48       1.0  0.33608820814203  0.33937101909989303  0.07124963812646709  1.0000
  C   C1        1.0  0.14315689263211337  0.6076930950194991  0.5764883270167402  1.0000
  C   C2        1.0  0.856875919009191  0.39230754614116836  0.0764929155588163  1.0000
  C   C3        1.0  0.21738255219269584  0.7828579371179885  0.562674115038007  1.0000
  C   C4        1.0  0.7826580791398854  0.21714034971577684  0.06267084634465903  1.0000
  C   C5        1.0  0.7152829438357172  0.7754682395115818  0.42149268984361743  1.0000
  C   C6        1.0  0.2846817818018437  0.2245353636909896  0.9214930591874904  1.0000
  C   C7        1.0  0.6404760945158473  0.6000704644655811  0.4249091936589693  1.0000
  C   C8        1.0  0.35952421733600204  0.39992831737590245  0.9249136854523528  1.0000
  C   C9        1.0  0.9566611911421674  0.5597907864776345  0.1391335207385822  1.0000
  C   C10       1.0  0.0434190438879725  0.4402025432784811  0.6391186495291024  1.0000
  C   C11       1.0  0.868201091355573  0.4459774469913284  0.12307195241859861  1.0000
  C   C12       1.0  0.13182860612808867  0.5540166439648286  0.6230649530433396  1.0000
  C   C13       1.0  0.5646815082529032  0.48316028732413235  0.4101336971970753  1.0000
  C   C14       1.0  0.4352954211314781  0.5168386313781353  0.910134337329133  1.0000
  C   C15       1.0  0.6147550946269008  0.42668207430128297  0.3817734168096223  1.0000
  C   C16       1.0  0.38520382811086046  0.5733169913943142  0.8817795123970953  1.0000
  C   C17       1.0  0.7278253965453202  0.4290428942790784  0.3270158576996566  1.0000
  C   C18       1.0  0.2721421349589619  0.5709527043831244  0.8270182636293413  1.0000
  C   C19       1.0  0.7658390980941404  0.4875756401149332  0.2927546185871037  1.0000
  C   C20       1.0  0.23416079526975858  0.5124206895722947  0.7927577820455411  1.0000
  C   C21       1.0  0.7370319529556398  0.5454835414641366  0.3253883785769744  1.0000
  C   C22       1.0  0.262980485769063  0.4545121139480413  0.8253836713059144  1.0000
  C   C23       1.0  0.8269491514386332  0.4916784646629537  0.2275338566505312  1.0000
  C   C24       1.0  0.1730672702077385  0.5083168443760329  0.7275335215671886  1.0000
  C   C25       1.0  0.8928261048460372  0.5535578544114941  0.201906905826533  1.0000
  C   C26       1.0  0.10722169040737842  0.4464343797318193  0.7019011502622946  1.0000
  C   C27       1.0  0.8841111069538812  0.6098105866450537  0.23904164176775572  1.0000
  C   C28       1.0  0.11592936148833391  0.3901831445624281  0.7390349493207253  1.0000
  C   C29       1.0  0.8019498728799164  0.6063190164723763  0.2973462874914787  1.0000
  C   C30       1.0  0.19808029336932978  0.3936748254414083  0.7973427039337508  1.0000
  C   C31       1.0  0.807021061778933  0.43824360402872026  0.185549639348892  1.0000
  C   C32       1.0  0.1929776504452079  0.5617561080454506  0.6855484767196174  1.0000
  C   C33       1.0  0.9486903425178282  0.506802224084268  0.10078838299977382  1.0000
  C   C34       1.0  0.05138710573884706  0.49319235327951105  0.6007782455066035  1.0000
  C   C35       1.0  0.6415723598283022  0.5418061288638754  0.3850467850282869  1.0000
  C   C36       1.0  0.3584285843055213  0.4581968073049508  0.8850489731041905  1.0000
  C   C37       1.0  0.769631497629547  0.15643622770483742  0.10020027540406319  1.0000
  C   C38       1.0  0.23040154855309677  0.8435621188829856  0.6002083012784424  1.0000
  C   C39       1.0  0.9263436185119502  0.13971763211489477  0.1405254259307114  1.0000
  C   C40       1.0  0.07368121558528874  0.8602759919271957  0.6405282110770116  1.0000
  C   C41       1.0  0.8917839797680783  0.08530950022093012  0.1793399322223408  1.0000
  C   C42       1.0  0.1082426291489256  0.9146914806689848  0.6793405431436739  1.0000
  C   C43       1.0  0.7050075323620181  0.0462187882942402  0.174979245974356  1.0000
  C   C44       1.0  0.29502430941797536  0.9537817595748876  0.6749833747717631  1.0000
  C   C45       1.0  0.5574873856069543  0.060280569494309995  0.1320007296557293  1.0000
  C   C46       1.0  0.4425435181263353  0.939719315220053  0.6320086653755439  1.0000
  C   C47       1.0  0.5883175656615479  0.1158732214164644  0.0964333397321582  1.0000
  C   C48       1.0  0.41170798387521046  0.8841211907407281  0.5964448641656476  1.0000
  C   C49       1.0  0.5713753068700811  0.892555853390938  0.298940314570018  1.0000
  C   C50       1.0  0.4285922510751448  0.10745303316131324  0.798936939408641  1.0000
  C   C51       1.0  0.5611062273406021  0.8407984299502331  0.3397168743956414  1.0000
  C   C52       1.0  0.43884596001704784  0.1592137856742966  0.8397145035085104  1.0000
  C   C53       1.0  0.7471087257708434  0.9365826056685618  0.29818014158245637  1.0000
  C   C54       1.0  0.2528665782940607  0.06342780708842347  0.7981751549368499  1.0000
  C   C55       1.0  0.7268089183789003  0.8314347830544762  0.37828044111250136  1.0000
  C   C56       1.0  0.2731426432303579  0.16857423027022378  0.8782741931418911  1.0000
  C   C57       1.0  0.9021164580308891  0.8752802705482169  0.376901300536872  1.0000
  C   C58       1.0  0.0978306767479467  0.12473011957080617  0.8768850341419636  1.0000
  C   C59       1.0  0.910654115700467  0.9285425750593886  0.3379494052230498  1.0000
  C   C60       1.0  0.08931461112109669  0.07146408983449959  0.8379382129189992  1.0000
  C   C61       1.0  0.05634354164290299  0.065965022948582  0.22228065898839594  1.0000
  C   C62       1.0  0.9436852788413006  0.9340490798500409  0.7222680217609536  1.0000
  C   C63       1.0  0.132623560042596  0.17520989709250048  0.14440033592455143  1.0000
  C   C64       1.0  0.8674113771351982  0.8247857788752738  0.6443994947293988  1.0000
  C   C65       1.0  0.5579247575985348  0.34062543665130807  0.19673539578364801  1.0000
  C   C66       1.0  0.37518005122350223  0.3777398715786902  0.19756471833088804  1.0000
  C   C67       1.0  0.18693396328040987  0.3297065185277076  0.1911443855593902  1.0000
  C   C68       1.0  0.44202335110753666  0.6593756242644699  0.6967454919586729  1.0000
  C   C69       1.0  0.6247814497267469  0.6222599184733255  0.6975628545482735  1.0000
  C   C70       1.0  0.8130274838514495  0.670290851987623  0.6911348391392879  1.0000
  C   C71       1.0  0.8397657684137343  0.3721057128013499  0.31670616328042206  1.0000
  C   C72       1.0  0.16016250039635344  0.6278831487073973  0.8167035189057118  1.0000
  N   N1        1.0  0.6603742610235983  0.9906860769659784  0.2119586311492156  1.0000
  N   N2        1.0  0.33962564609129225  0.009320456366602099  0.711961873318451  1.0000
  N   N3        1.0  0.7722903092265837  0.9912609246149273  0.2596216133343106  1.0000
  N   N4        1.0  0.22770460404877468  0.008743347580789899  0.75962070405064  1.0000
  O   O1        1.0  0.38113499427918646  0.767270388718906  0.539164421080855  1.0000
  O   O2        1.0  0.6188912086025766  0.23272715062733337  0.0391582206336238  1.0000
  O   O3        1.0  0.9769861875284177  0.6191514447415043  0.5514509159473207  1.0000
  O   O4        1.0  0.023042193639568595  0.3808471276242002  0.0514496105437203  1.0000
  O   O5        1.0  0.8137020375600273  0.6314506466141765  0.4341052673840124  1.0000
  O   O6        1.0  0.18631278979002996  0.36854595446961014  0.9341086319499466  1.0000
  O   O7        1.0  0.046242589010738314  0.7496584168017646  0.5569778927955298  1.0000
  O   O8        1.0  0.9537777278685838  0.2503405591313026  0.0569799490316498  1.0000
  O   O9        1.0  0.878801727830222  0.7629381290245475  0.4474975330842739  1.0000
  O   O10       1.0  0.12117178800311018  0.23706616367597624  0.9474973054132435  1.0000
  O   O11       1.0  0.31737651891966584  0.6359858204625083  0.5632511782280645  1.0000
  O   O12       1.0  0.6826535337124754  0.3640118624538644  0.0632551048907573  1.0000
  O   O13       1.0  0.1755610749751  0.6861767864198355  0.456655048076847  1.0000
  O   O14       1.0  0.8244379439219857  0.31382737236411634  0.9566584032337885  1.0000
  O   O15       1.0  0.5426568589876339  0.7434865534815458  0.4293427276102051  1.0000
  O   O16       1.0  0.45731688130700837  0.2565181473418647  0.9293409523653511  1.0000
  O   O17       1.0  0.47367909072376346  0.6133905246331038  0.4480423626457295  1.0000
  O   O18       1.0  0.5263377420504369  0.386611900012788  0.9480465288485859  1.0000
  O   O19       1.0  0.6764183607245684  0.6896730398095057  0.5357113422713198  1.0000
  O   O20       1.0  0.3235943524451557  0.3103271944413777  0.0357162434587721  1.0000
  O   O21       1.0  0.1710079883952673  0.026876525217197394  0.2056733972571365  1.0000
  O   O22       1.0  0.8290654907531448  0.9731471429004374  0.7056458787253135  1.0000
  O   O23       1.0  0.2437210084479915  0.16847527880364047  0.189359947881286  1.0000
  O   O24       1.0  0.7563069864817109  0.831524801991499  0.6893535613488311  1.0000
  O   O25       1.0  0.7496511394928974  0.3785736617734513  0.21019793841528409  1.0000
  O   O26       1.0  0.2503243466761447  0.6214258693826478  0.7102012291603118  1.0000
  O   O27       1.0  0.0246763711079154  0.3768208284903309  0.3140405311093843  1.0000
  O   O28       1.0  0.9752576295718143  0.6231551692772114  0.814032489884859  1.0000
