data_image0
_chemical_formula_structural       K4Zn4P8H36C16O24
_chemical_formula_sum              "K4 Zn4 P8 H36 C16 O24"
_cell_length_a       4.826653467036871
_cell_length_b       14.213590157154764
_cell_length_c       14.29750186839145
_cell_angle_alpha    91.24297631800238
_cell_angle_beta     89.99960585967489
_cell_angle_gamma    89.99979289982163

_space_group_name_H-M_alt    "P 1"
_space_group_IT_number       1

loop_
  _space_group_symop_operation_xyz
  'x, y, z'

loop_
  _atom_site_type_symbol
  _atom_site_label
  _atom_site_symmetry_multiplicity
  _atom_site_fract_x
  _atom_site_fract_y
  _atom_site_fract_z
  _atom_site_occupancy
  K   K1        1.0  0.7818425290087987  0.8238198519647141  0.1193211887091294  1.0000
  K   K2        1.0  0.2818441075231847  0.6761796158096659  0.38068883598372594  1.0000
  K   K3        1.0  0.2181598485851381  0.176181364525327  0.8806817828917985  1.0000
  K   K4        1.0  0.7181624136874376  0.32381738298128226  0.6193203425152589  1.0000
  Zn  Zn1       1.0  0.7977510395790192  0.5075742039626191  0.3877235834575075  1.0000
  Zn  Zn2       1.0  0.2977568166769373  0.992424532577502  0.1122765972598287  1.0000
  Zn  Zn3       1.0  0.20224097893688514  0.49242278715748716  0.6122751035523348  1.0000
  Zn  Zn4       1.0  0.7022414172774775  0.0075759791737510995  0.8877249608116742  1.0000
  P   P1        1.0  0.8137948289456036  0.5953784436317663  0.1838616386332959  1.0000
  P   P2        1.0  0.3138118719806259  0.9046209771235213  0.3161399180570967  1.0000
  P   P3        1.0  0.18619718952609082  0.40462136440604013  0.8161399047786803  1.0000
  P   P4        1.0  0.6861967211435029  0.095378829367661  0.683859527034265  1.0000
  P   P5        1.0  0.804945553090093  0.11346791913667431  0.07780162766178482  1.0000
  P   P6        1.0  0.3049399003154321  0.38653335135347794  0.4221946201491349  1.0000
  P   P7        1.0  0.19505268092358113  0.8865361055695901  0.9221923099725373  1.0000
  P   P8        1.0  0.6950521181712049  0.6134650487374886  0.5778061944955084  1.0000
  H   H1        1.0  0.37694571032251645  0.6401839290349758  0.1466466426597606  1.0000
  H   H2        1.0  0.8769596785044342  0.8598168204389084  0.35335759330780536  1.0000
  H   H3        1.0  0.6230463081309594  0.3598165837442693  0.8533563142864935  1.0000
  H   H4        1.0  0.12304891459106675  0.1401829881003138  0.646644649518521  1.0000
  H   H5        1.0  0.9544613903946272  0.49311714703197407  0.05990884441482788  1.0000
  H   H6        1.0  0.4544739139472185  0.006886045424934701  0.44008989519122105  1.0000
  H   H7        1.0  0.04553062806475341  0.5068861790809223  0.9400920728973786  1.0000
  H   H8        1.0  0.5455326073610962  0.9931165738892248  0.5599068108347822  1.0000
  H   H9        1.0  0.12141118577545032  0.46917412239076123  0.16670019109869122  1.0000
  H   H10       1.0  0.621424921285673  0.0308259769177752  0.3332985551912912  1.0000
  H   H11       1.0  0.8785766890307086  0.5308270930845324  0.8333013816517293  1.0000
  H   H12       1.0  0.37857952820219515  0.9691738280400415  0.666698791603693  1.0000
  H   H13       1.0  0.702753767317951  0.38781621377166425  0.22548088133152788  1.0000
  H   H14       1.0  0.20276234263668164  0.11218378201982658  0.2745183740283608  1.0000
  H   H15       1.0  0.2972465384984845  0.6121821852899882  0.7745185344359413  1.0000
  H   H16       1.0  0.7972421068362365  0.8878174308848302  0.7254797015339562  1.0000
  H   H17       1.0  0.5167500202508253  0.4145075829263192  0.1231123941595058  1.0000
  H   H18       1.0  0.016760928715818604  0.08549124382864191  0.3768879666111218  1.0000
  H   H19       1.0  0.4832419982435995  0.58548940972981  0.8768883911515529  1.0000
  H   H20       1.0  0.9832455925859735  0.9145099690746931  0.6231101089487652  1.0000
  H   H21       1.0  0.8116121606230778  0.31503951170488165  0.0255411242843948  1.0000
  H   H22       1.0  0.31161172701792594  0.18496104909835506  0.4744585904201556  1.0000
  H   H23       1.0  0.18838607334175353  0.6849617027397699  0.9744590495864215  1.0000
  H   H24       1.0  0.688392722458879  0.8150394600888902  0.5255394704753655  1.0000
  H   H25       1.0  0.06011546515432541  0.3036625851079363  0.11511079926337688  1.0000
  H   H26       1.0  0.560120168488929  0.1963375936239871  0.3848894893579171  1.0000
  H   H27       1.0  0.9398827688105059  0.6963386293367222  0.8848893746074393  1.0000
  H   H28       1.0  0.4398863528056936  0.803663619791351  0.6151092856357181  1.0000
  H   H29       1.0  0.7296844768600652  0.21224164650323019  0.2114260209227226  1.0000
  H   H30       1.0  0.22968468092636127  0.28775620421058096  0.2885738268531099  1.0000
  H   H31       1.0  0.27032204443193564  0.7877574567838722  0.7885741089380075  1.0000
  H   H32       1.0  0.7703156248894417  0.712243601773899  0.7114249188142096  1.0000
  H   H33       1.0  0.4658648119231472  0.22422830621349016  0.1262185417177051  1.0000
  H   H34       1.0  0.9658668254811575  0.27577065089734987  0.3737821815131426  1.0000
  H   H35       1.0  0.5341375657111058  0.7757707970762624  0.8737815881478781  1.0000
  H   H36       1.0  0.03413555216415181  0.7242277481629812  0.6262172342519036  1.0000
  C   C1        1.0  0.9180047784682942  0.48271071321032366  0.134832416170255  1.0000
  C   C2        1.0  0.4180207961083937  0.0172904147179409  0.3651663647524472  1.0000
  C   C3        1.0  0.08198516818432473  0.5172912044450442  0.865167072943315  1.0000
  C   C4        1.0  0.5819877970189964  0.9827100949786569  0.6348323955719621  1.0000
  C   C5        1.0  0.7252296793312213  0.3992348118109632  0.14990347789306915  1.0000
  C   C6        1.0  0.22523890161971852  0.10076585895217251  0.3500957395314259  1.0000
  C   C7        1.0  0.2747623391508895  0.6007656989202489  0.8500966813182271  1.0000
  C   C8        1.0  0.7747655478642487  0.8992346497230627  0.6499016219303541  1.0000
  C   C9        1.0  0.8360403441281437  0.3094586471820763  0.1018241610702617  1.0000
  C   C10       1.0  0.3360455555992204  0.1905404749405122  0.3981754671236644  1.0000
  C   C11       1.0  0.16395996168050433  0.6905411593144065  0.898175284030799  1.0000
  C   C12       1.0  0.663960965703197  0.8094593310399959  0.6018232785363793  1.0000
  C   C13       1.0  0.6915013953269807  0.22081048891238447  0.1361459991563549  1.0000
  C   C14       1.0  0.19150015029734394  0.2791888175590955  0.363853267882689  1.0000
  C   C15       1.0  0.30850305412835877  0.7791900218108836  0.8638541600403968  1.0000
  C   C16       1.0  0.8085001555256214  0.7208109879133813  0.6361447783508893  1.0000
  O   O1        1.0  0.062458210972579295  0.6611472463726854  0.1798749732105165  1.0000
  O   O2        1.0  0.5624772257405297  0.8388524978740434  0.3201299694274411  1.0000
  O   O3        1.0  0.9375358793247133  0.3388518584583906  0.8201272549659819  1.0000
  O   O4        1.0  0.43753965464507866  0.16114801591331943  0.6798743863571985  1.0000
  O   O5        1.0  0.5730301061562671  0.6368374716568609  0.11944744732484479  1.0000
  O   O6        1.0  0.07304212870268152  0.8631629617669105  0.3805560863787107  1.0000
  O   O7        1.0  0.42696398411440856  0.3631651522733108  0.8805555536193734  1.0000
  O   O8        1.0  0.9269685362437841  0.13683543831212566  0.6194447282441189  1.0000
  O   O9        1.0  0.6863660723260737  0.5821649510638734  0.28085306005852567  1.0000
  O   O10       1.0  0.1863891029382785  0.9178304103569205  0.2191487068516125  1.0000
  O   O11       1.0  0.31362801797774864  0.41783556017801965  0.719147798584089  1.0000
  O   O12       1.0  0.81362777752922  0.08216306318421118  0.7808513056626438  1.0000
  O   O13       1.0  0.1253649262642185  0.1112904869825257  0.08275301103816449  1.0000
  O   O14       1.0  0.6253544896310431  0.3887089051034707  0.41724780966140423  1.0000
  O   O15       1.0  0.8746415950492477  0.8887086147685537  0.9172450205213494  1.0000
  O   O16       1.0  0.3746375288302275  0.6112902002409372  0.5827551179512582  1.0000
  O   O17       1.0  0.7083642640900508  0.11822087915567182  0.9747870891185498  1.0000
  O   O18       1.0  0.20834192245427374  0.38178139692189467  0.5252116354079917  1.0000
  O   O19       1.0  0.29164018534255126  0.8817824469492732  0.02521382817911899  1.0000
  O   O20       1.0  0.7916397369166434  0.6182170011276682  0.47478638151381597  1.0000
  O   O21       1.0  0.688734542034524  0.0269280477428069  0.1284653300120411  1.0000
  O   O22       1.0  0.18873314869853894  0.4730712607313805  0.37153184520135335  1.0000
  O   O23       1.0  0.3112616201124894  0.9730724624737448  0.8715341297606612  1.0000
  O   O24       1.0  0.8112609416345438  0.52692784153966  0.6284668858064464  1.0000
