data_image0
_chemical_formula_structural       Zr6H20C50N10O52
_chemical_formula_sum              "Zr6 H20 C50 N10 O52"
_cell_length_a       14.777480147543706
_cell_length_b       14.7741071699047
_cell_length_c       14.836834713729981
_cell_angle_alpha    59.74270624603622
_cell_angle_beta     59.860816907929355
_cell_angle_gamma    60.25905564016249

_space_group_name_H-M_alt    "P 1"
_space_group_IT_number       1

loop_
  _space_group_symop_operation_xyz
  'x, y, z'

loop_
  _atom_site_type_symbol
  _atom_site_label
  _atom_site_symmetry_multiplicity
  _atom_site_fract_x
  _atom_site_fract_y
  _atom_site_fract_z
  _atom_site_occupancy
  Zr  Zr1       1.0  0.8821809190852151  0.8774393765513511  0.620485568319843  1.0000
  Zr  Zr2       1.0  0.12407118216817281  0.11654803522282714  0.3807828299037368  1.0000
  Zr  Zr3       1.0  0.12107928848865891  0.8766341707234416  0.6210225723929312  1.0000
  Zr  Zr4       1.0  0.8849627782024356  0.11786942539205107  0.3797832906913  1.0000
  Zr  Zr5       1.0  0.12211812230806648  0.8780692270976403  0.38114928583004837  1.0000
  Zr  Zr6       1.0  0.8838750026651354  0.11679336934209784  0.6192430037049732  1.0000
  H   H1        1.0  0.09317573007416513  0.7141705589008751  0.5973971606162108  1.0000
  H   H2        1.0  0.09803960657177409  0.09379863540647188  0.21784744056674302  1.0000
  H   H3        1.0  0.0980350257014067  0.09042918392116651  0.5946341324526686  1.0000
  H   H4        1.0  0.7206794389279026  0.09165249120680129  0.5926975343625783  1.0000
  H   H5        1.0  0.149811468180886  0.5847740119824819  0.35868809707695704  1.0000
  H   H6        1.0  0.8447081958944904  0.4246822855311405  0.6230610785570149  1.0000
  H   H7        1.0  0.6053604673350891  0.12791591358499932  0.9237891576649773  1.0000
  H   H8        1.0  0.39765172581397945  0.8723109135540525  0.07414054554799766  1.0000
  H   H9        1.0  0.8517852000811247  0.1324813980937449  0.09582632637593494  1.0000
  H   H10       1.0  0.14593011342512335  0.8558579303472412  0.9119977689887051  1.0000
  H   H11       1.0  0.5894199688631544  0.4086767145043028  0.3586339745831141  1.0000
  H   H12       1.0  0.42322753307830413  0.592661639193409  0.6350428274369547  1.0000
  H   H13       1.0  0.1470110857846549  0.4196870339802529  0.08506095586194816  1.0000
  H   H14       1.0  0.14366430794630253  0.5879055021498232  0.9170261237232396  1.0000
  H   H15       1.0  0.7319921225141927  0.6375870268227927  0.9832763086995226  1.0000
  H   H16       1.0  0.808658428874061  0.5543449906227097  0.8977985950411378  1.0000
  H   H17       1.0  0.8134252852280001  0.38219570740547953  0.06763696614004996  1.0000
  H   H18       1.0  0.7359805500165139  0.46637363938377513  0.15274640938002176  1.0000
  H   H19       1.0  0.5933770515902244  0.8520563572923265  0.6400869300843226  1.0000
  H   H20       1.0  0.41863696458132443  0.138173139167506  0.3530727392524041  1.0000
  C   C1        1.0  0.9954637010285268  0.7007059956181011  0.49412335603275187  1.0000
  C   C2        1.0  0.30988894521893673  0.9950109788006573  0.20069048922146462  1.0000
  C   C3        1.0  0.0024733594091798077  0.30353841766162765  0.49481824722118267  1.0000
  C   C4        1.0  0.6982007984618973  0.9983031034183085  0.8027973470822403  1.0000
  C   C5        1.0  0.9953695527045099  0.6998073463433911  0.8095568475058599  1.0000
  C   C6        1.0  0.703426624575386  0.9956125203961645  0.4949878856442138  1.0000
  C   C7        1.0  0.0007239376623858228  0.3052959243046516  0.20333131256452927  1.0000
  C   C8        1.0  0.30967271020254117  0.9926509463404259  0.4983094923384216  1.0000
  C   C9        1.0  0.3087419227058278  0.6964980309200896  0.4970818899428905  1.0000
  C   C10       1.0  0.997826818712561  0.9942193709475261  0.8077855145772048  1.0000
  C   C11       1.0  0.703630816967369  0.30480408356576305  0.4966264842702799  1.0000
  C   C12       1.0  0.0010731131120068147  0.9948849077405201  0.19905582652136639  1.0000
  C   C13       1.0  0.0012423273355679227  0.4072984475975119  0.4905811612342177  1.0000
  C   C14       1.0  0.9925990774445025  0.6028061436452107  0.4904509429106552  1.0000
  C   C15       1.0  0.08546979599967129  0.4549424060088115  0.41577382858186945  1.0000
  C   C16       1.0  0.907034487558022  0.556757645357166  0.562828136948184  1.0000
  C   C17       1.0  0.0823787093158544  0.5504708378225159  0.4155297757551182  1.0000
  C   C18       1.0  0.911198367793773  0.46003795358286953  0.5648447983925137  1.0000
  C   C19       1.0  0.4082012375010107  0.9994274792554522  0.09697017594447728  1.0000
  C   C20       1.0  0.5935870869324943  0.0021556413040639986  0.9004460925766933  1.0000
  C   C21       1.0  0.4656654985236345  0.0734938665812592  0.050590677475668075  1.0000
  C   C22       1.0  0.5309630599042945  0.9339929522094434  0.9424214361916866  1.0000
  C   C23       1.0  0.5587364648345458  0.07334002709282572  0.9557885583608864  1.0000
  C   C24       1.0  0.44266058496513955  0.9287117107253238  0.04101756088905257  1.0000
  C   C25       1.0  0.9965542581068405  0.9955942690983479  0.908826501364338  1.0000
  C   C26       1.0  0.0014259431499538979  0.9930728529256214  0.0987065714875896  1.0000
  C   C27       1.0  0.9154476681479623  0.0736526787554083  0.9614040034783499  1.0000
  C   C28       1.0  0.08327292287619767  0.915856065173884  0.04531166860369503  1.0000
  C   C29       1.0  0.9166457034000858  0.07250943845728841  0.05490603168941278  1.0000
  C   C30       1.0  0.0812677712356944  0.9160446333081821  0.9527330075356418  1.0000
  C   C31       1.0  0.41025457336441923  0.5957970621293427  0.49543347801509435  1.0000
  C   C32       1.0  0.6020711422190318  0.4054281007232063  0.49841732056373894  1.0000
  C   C33       1.0  0.45886241624563723  0.5423098783009194  0.41831921074827244  1.0000
  C   C34       1.0  0.5523764725718368  0.457812613450315  0.5766489544834954  1.0000
  C   C35       1.0  0.5531733816573805  0.4495777139456863  0.4186844483705413  1.0000
  C   C36       1.0  0.4592135906791554  0.5517425911970335  0.5750807514372767  1.0000
  C   C37       1.0  0.9925655640654439  0.6030255020942618  0.9130306457365122  1.0000
  C   C38       1.0  0.9962453894675963  0.4087376873096246  0.1068204973963135  1.0000
  C   C39       1.0  0.9090939556338352  0.5555558331954559  0.9687573788334022  1.0000
  C   C40       1.0  0.07983721350037601  0.4577378484805266  0.05254141046308551  1.0000
  C   C41       1.0  0.9111902144976015  0.4606039962186513  0.06327337779249813  1.0000
  C   C42       1.0  0.07780434231626993  0.5521659582401383  0.9583279171178989  1.0000
  C   C43       1.0  0.8024258984858081  0.5634111514870882  0.9698545821965682  1.0000
  C   C44       1.0  0.8049401472035884  0.4558151853547088  0.07640254656255505  1.0000
  C   C45       1.0  0.41075441933139695  0.9922638900112233  0.49881758260322345  1.0000
  C   C46       1.0  0.6021275424791387  0.9968482853712356  0.49400613200667454  1.0000
  C   C47       1.0  0.4611205182680319  0.9129365731054835  0.5792536010033514  1.0000
  C   C48       1.0  0.5508000698862431  0.07725524753921316  0.4144153181777739  1.0000
  C   C49       1.0  0.5551243272506668  0.9142881360320629  0.5773645483731967  1.0000
  C   C50       1.0  0.4571697971764763  0.07553525972212322  0.41573502834945936  1.0000
  N   N1        1.0  0.18449781234023996  0.40481807882918025  0.33435225628424087  1.0000
  N   N2        1.0  0.8047892302091384  0.6099411144563619  0.6393005100724591  1.0000
  N   N3        1.0  0.4313527863036911  0.15640548220468986  0.09960445204654175  1.0000
  N   N4        1.0  0.5489969382636561  0.8713102863509691  0.8792626572049473  1.0000
  N   N5        1.0  0.8236907691847294  0.16303640231495814  0.9201485269733709  1.0000
  N   N6        1.0  0.17842346750808954  0.8303065412731314  0.08290418350898676  1.0000
  N   N7        1.0  0.411882061506418  0.5800831123898292  0.33255529433428427  1.0000
  N   N8        1.0  0.5951148539202435  0.4157448212480973  0.6669093561131304  1.0000
  N   N9        1.0  0.4164475408278532  0.8232951033480803  0.6719910099985639  1.0000
  N   N10       1.0  0.5928720456220304  0.1697122257454781  0.324697056270601  1.0000
  O   O1        1.0  0.9210868751947389  0.7364354774108718  0.5734566150150185  1.0000
  O   O2        1.0  0.2719790299502663  0.0698706431719671  0.24142788590305744  1.0000
  O   O3        1.0  0.08035285402797139  0.26269863778374264  0.4201868716025459  1.0000
  O   O4        1.0  0.738817539124767  0.9190412058149633  0.7670622728691966  1.0000
  O   O5        1.0  0.07453994280285053  0.7385167065574975  0.76637807074772  1.0000
  O   O6        1.0  0.7436727265027585  0.07254736273927882  0.41832266051088135  1.0000
  O   O7        1.0  0.924761979808089  0.263571763657616  0.2421919276883528  1.0000
  O   O8        1.0  0.2694566037350866  0.9157711560655387  0.5751651767968937  1.0000
  O   O9        1.0  0.26929200115142754  0.7363427011754027  0.4206346933239828  1.0000
  O   O10       1.0  0.9215465378964823  0.07043038103872586  0.7680237677628412  1.0000
  O   O11       1.0  0.7441307652851281  0.26584712335802846  0.5720337499247349  1.0000
  O   O12       1.0  0.0774908771281062  0.9186769944045636  0.23841150139359255  1.0000
  O   O13       1.0  0.07563856818352117  0.9182227482900203  0.769142462086485  1.0000
  O   O14       1.0  0.740304832518511  0.2658577611877107  0.42088855619374504  1.0000
  O   O15       1.0  0.9254829010343144  0.07294773757197254  0.23586730673811468  1.0000
  O   O16       1.0  0.2695933969171095  0.7330806764053576  0.5752295652397451  1.0000
  O   O17       1.0  0.9202824280093441  0.7376496650185798  0.7682225877466493  1.0000
  O   O18       1.0  0.27090728237504885  0.07056183045776267  0.4219954490473369  1.0000
  O   O19       1.0  0.07969764956156673  0.2626999565938419  0.2407223785234081  1.0000
  O   O20       1.0  0.7407572090056433  0.9190321628164143  0.5727358233352432  1.0000
  O   O21       1.0  0.7387972204600144  0.07426545287060547  0.7642894536572554  1.0000
  O   O22       1.0  0.07454235997709442  0.7380612164656171  0.41932539523553913  1.0000
  O   O23       1.0  0.2706689075224773  0.9181834682360376  0.238712358959198  1.0000
  O   O24       1.0  0.9260242746931412  0.26385041322669184  0.5732967369860303  1.0000
  O   O25       1.0  0.8009386035389953  0.06525955534942789  0.5666988509163388  1.0000
  O   O26       1.0  0.07072527172593356  0.0636492410848105  0.5684752784302135  1.0000
  O   O27       1.0  0.0719524935976494  0.06438470678901347  0.2981626917444443  1.0000
  O   O28       1.0  0.06889529982175442  0.7945197922147004  0.5680565842890815  1.0000
  O   O29       1.0  0.15166488720137042  0.9467690511563236  0.4516127423571135  1.0000
  O   O30       1.0  0.9533973483914481  0.9479702328946046  0.45060811456904276  1.0000
  O   O31       1.0  0.954592474574227  0.14594258174992092  0.4507465901294907  1.0000
  O   O32       1.0  0.9523342277899116  0.9477407541960332  0.6491039666689815  1.0000
  O   O33       1.0  0.2623409047276155  0.3322434831941763  0.36741160964943737  1.0000
  O   O34       1.0  0.18241868024009023  0.4432993092123211  0.23970210865402916  1.0000
  O   O35       1.0  0.794667187508345  0.5674938461765887  0.7383283280163297  1.0000
  O   O36       1.0  0.7353063728995509  0.6892558081312286  0.5974816467698714  1.0000
  O   O37       1.0  0.3682864703340342  0.2487033289411259  0.06346782650691546  1.0000
  O   O38       1.0  0.4727583795647377  0.12753224361794216  0.16826134873645057  1.0000
  O   O39       1.0  0.5278892666112474  0.9284032233697201  0.7918421430620769  1.0000
  O   O40       1.0  0.5767452678909706  0.7695279647420108  0.9203677676731842  1.0000
  O   O41       1.0  0.8401722898339659  0.2517830179900997  0.8539334473613565  1.0000
  O   O42       1.0  0.737103992021332  0.14266807100798917  0.9597402702436069  1.0000
  O   O43       1.0  0.2606333104625163  0.8579440556788926  0.04396310903022273  1.0000
  O   O44       1.0  0.16953622001953061  0.7379333383489238  0.14503499829899613  1.0000
  O   O45       1.0  0.3384002672549046  0.5443273302254354  0.36068449627366317  1.0000
  O   O46       1.0  0.45386852499174085  0.6393844626931865  0.23938856317393944  1.0000
  O   O47       1.0  0.558068673405117  0.3468636922790367  0.7539435388613639  1.0000
  O   O48       1.0  0.6596883450029837  0.4573369382365654  0.6490653551765959  1.0000
  O   O49       1.0  0.34780174948848935  0.8440698397819446  0.7575369581002391  1.0000
  O   O50       1.0  0.45498176739592117  0.7340854669414725  0.6577060706533402  1.0000
  O   O51       1.0  0.5555624161902344  0.2552801978745263  0.3453110696492913  1.0000
  O   O52       1.0  0.6580287527385452  0.1551342054693236  0.2356582772995068  1.0000
