data_image0
_chemical_formula_structural       Na2H22C12S2O16
_chemical_formula_sum              "Na2 H22 C12 S2 O16"
_cell_length_a       5.590335366938648
_cell_length_b       6.455490243385935
_cell_length_c       14.991145964694828
_cell_angle_alpha    77.71328347657911
_cell_angle_beta     85.18173578992369
_cell_angle_gamma    83.81900460376785

_space_group_name_H-M_alt    "P 1"
_space_group_IT_number       1

loop_
  _space_group_symop_operation_xyz
  'x, y, z'

loop_
  _atom_site_type_symbol
  _atom_site_label
  _atom_site_symmetry_multiplicity
  _atom_site_fract_x
  _atom_site_fract_y
  _atom_site_fract_z
  _atom_site_occupancy
  Na  Na1       1.0  0.6561032747139564  0.7270811630074693  0.5033054253142096  1.0000
  Na  Na2       1.0  0.34388250608585474  0.2729237293595902  0.4966936698139435  1.0000
  H   H1        1.0  0.009857626771157897  0.8805533132765149  0.7860422674763186  1.0000
  H   H2        1.0  0.9901575882525293  0.11944342263164742  0.2139613814292289  1.0000
  H   H3        1.0  0.39635534945202977  0.05928014902039541  0.7463708429361021  1.0000
  H   H4        1.0  0.6036331470322481  0.9407151790311163  0.25362904342674136  1.0000
  H   H5        1.0  0.5521192924633314  0.8200962267781337  0.7250178094793327  1.0000
  H   H6        1.0  0.4479019668689972  0.17987501199807815  0.27498798359118837  1.0000
  H   H7        1.0  0.7181115511735001  0.2893496364703267  0.8590452437743537  1.0000
  H   H8        1.0  0.28191228707675015  0.7106502181494179  0.14096120530926728  1.0000
  H   H9        1.0  0.905593385925968  0.24580660716739544  0.7595679104572212  1.0000
  H   H10       1.0  0.09440717309978201  0.7541934085923643  0.24043453304239645  1.0000
  H   H11       1.0  0.033617111239266306  0.20340809297432833  0.8684540489610056  1.0000
  H   H12       1.0  0.966398441261198  0.7965854633138891  0.13154787825070707  1.0000
  H   H13       1.0  0.9119725560167071  0.8487652329596072  0.9769855855717678  1.0000
  H   H14       1.0  0.08803256664664622  0.15122521463780464  0.023014260284455197  1.0000
  H   H15       1.0  0.6059636896599373  0.8457745989379929  0.0267820417152933  1.0000
  H   H16       1.0  0.39403880120568147  0.15420632521066588  0.9732160792462139  1.0000
  H   H17       1.0  0.7524424418661866  0.6165087720063199  0.9890499194608751  1.0000
  H   H18       1.0  0.24756124267029384  0.38347851062241745  0.010946920982462393  1.0000
  H   H19       1.0  0.4784370517991691  0.590594841795678  0.34546660814080343  1.0000
  H   H20       1.0  0.5215266933255194  0.4094149626313099  0.6545340164478333  1.0000
  H   H21       1.0  0.25845628442188945  0.7143855883345722  0.39201339465456897  1.0000
  H   H22       1.0  0.7415114922861363  0.2856194135012303  0.6079888836161159  1.0000
  C   C1        1.0  0.16276602340168006  0.8121619722499606  0.7475658112749812  1.0000
  C   C2        1.0  0.8372455285223809  0.18783639125991414  0.2524324597130557  1.0000
  C   C3        1.0  0.400845153493563  0.8847183918445938  0.7659269386922675  1.0000
  C   C4        1.0  0.5991688386520339  0.11527359623064373  0.2340698401410393  1.0000
  C   C5        1.0  0.15622542092217634  0.5729313391600572  0.7703880726657957  1.0000
  C   C6        1.0  0.8437938773630548  0.4270606018744021  0.2296138923524182  1.0000
  C   C7        1.0  0.449227824187524  0.8153896339773965  0.8657742046042927  1.0000
  C   C8        1.0  0.5507807365891395  0.18462148272892887  0.1342209917596335  1.0000
  C   C9        1.0  0.8975425700455446  0.2988201315288279  0.8245917635643067  1.0000
  C   C10       1.0  0.10245806986564081  0.7011782813012531  0.17541549295633974  1.0000
  C   C11       1.0  0.7360164499125261  0.7907432919907295  0.9759299687950076  1.0000
  C   C12       1.0  0.2639972150919406  0.20925187724794378  0.024067864218252993  1.0000
  S   S1        1.0  0.09314535904358216  0.9113944071307787  0.6278474576317166  1.0000
  S   S2        1.0  0.9068373892662719  0.08862323225875464  0.3721512329278198  1.0000
  O   O1        1.0  0.40721043856515843  0.6180611167496296  0.4044847583828073  1.0000
  O   O2        1.0  0.5927887960257792  0.3819357510198956  0.5955073370512806  1.0000
  O   O3        1.0  0.8940713297279217  0.794149614872815  0.6148135321676023  1.0000
  O   O4        1.0  0.10591320752251221  0.20585052657433078  0.3851800279160571  1.0000
  O   O5        1.0  0.02858923847983869  0.14259193921480323  0.621067337713562  1.0000
  O   O6        1.0  0.9713810903420922  0.8574050888871699  0.37893625888178656  1.0000
  O   O7        1.0  0.3149267434817205  0.8730549985359918  0.5722823315636987  1.0000
  O   O8        1.0  0.6850580266874644  0.12696104796851423  0.42771177551390593  1.0000
  O   O9        1.0  0.3248198638291981  0.4420173335742916  0.7568041689279922  1.0000
  O   O10       1.0  0.675185112933562  0.5579921925264486  0.2432006156715047  1.0000
  O   O11       1.0  0.31630137815889725  0.7140575359633488  0.9244276955774282  1.0000
  O   O12       1.0  0.6836874692692235  0.2859886853366974  0.07557622097494487  1.0000
  O   O13       1.0  0.9386676529443748  0.5214754614360049  0.8070994010959467  1.0000
  O   O14       1.0  0.061347255609469215  0.47852445872258204  0.19290396696180068  1.0000
  O   O15       1.0  0.6595109226491473  0.8773572485206177  0.884146139558581  1.0000
  O   O16       1.0  0.34051012203249803  0.12263628850973164  0.1158489585882592  1.0000
