data_image0
_chemical_formula_structural       Ni2H40C44N4O8
_chemical_formula_sum              "Ni2 H40 C44 N4 O8"
_cell_length_a       8.697257705890928
_cell_length_b       8.697272276260971
_cell_length_c       13.226401982587094
_cell_angle_alpha    75.85504616876831
_cell_angle_beta     75.85517748983015
_cell_angle_gamma    75.82521824209485

_space_group_name_H-M_alt    "P 1"
_space_group_IT_number       1

loop_
  _space_group_symop_operation_xyz
  'x, y, z'

loop_
  _atom_site_type_symbol
  _atom_site_label
  _atom_site_symmetry_multiplicity
  _atom_site_fract_x
  _atom_site_fract_y
  _atom_site_fract_z
  _atom_site_occupancy
  Ni  Ni1       1.0  0.5840825288542248  0.4159174017271354  0.749999640629504  1.0000
  Ni  Ni2       1.0  0.4159142948245815  0.5840842675835418  0.2499993966608116  1.0000
  H   H1        1.0  0.18912486131672068  0.6157975591323748  0.7345341794411624  1.0000
  H   H2        1.0  0.3842043087271421  0.810874588442843  0.7654673568647326  1.0000
  H   H3        1.0  0.810870855255743  0.3842041667854589  0.26546957207001043  1.0000
  H   H4        1.0  0.615800301124338  0.18912965162445522  0.23453144533852568  1.0000
  H   H5        1.0  0.036397544477530575  0.7843294679294318  0.7640853567305826  1.0000
  H   H6        1.0  0.215666995937454  0.9636027680933876  0.735916662824458  1.0000
  H   H7        1.0  0.9635980146371848  0.21566740292308137  0.23591924049334523  1.0000
  H   H8        1.0  0.7843331548049478  0.03640020243160791  0.2640838620765393  1.0000
  H   H9        1.0  0.9845129273335045  0.6227449100397138  0.7311940370408508  1.0000
  H   H10       1.0  0.3772543772870023  0.0154879344911336  0.7688068784621436  1.0000
  H   H11       1.0  0.015481363668243417  0.37725801936417713  0.2688105081027956  1.0000
  H   H12       1.0  0.6227449676971445  0.9845186262814282  0.2311909081482994  1.0000
  H   H13       1.0  0.26415199374643095  0.1713482404736268  0.11765583772704245  1.0000
  H   H14       1.0  0.8286537096959989  0.735845612612259  0.3823442874868519  1.0000
  H   H15       1.0  0.7358406643485295  0.8286509874806995  0.8823473389369738  1.0000
  H   H16       1.0  0.17134939976730118  0.2641597561356618  0.6176507966115707  1.0000
  H   H17       1.0  0.25943786763976834  0.3316534998617087  0.17864384827363722  1.0000
  H   H18       1.0  0.6683440260970457  0.7405623824155898  0.32135794433872883  1.0000
  H   H19       1.0  0.740558178768815  0.6683409276221327  0.8213595666524681  1.0000
  H   H20       1.0  0.3316581949676944  0.25944179632001146  0.6786397589192035  1.0000
  H   H21       1.0  0.3833069869633761  0.3211013675963911  0.05309735677353444  1.0000
  H   H22       1.0  0.6788984993829743  0.6166940262974805  0.44690403048116417  1.0000
  H   H23       1.0  0.6166888033286994  0.6788942691042194  0.9469058973452674  1.0000
  H   H24       1.0  0.32110582941284344  0.3833113980514397  0.5530931070023613  1.0000
  H   H25       1.0  0.5486694137713926  0.15213687663658249  0.9407395909970405  1.0000
  H   H26       1.0  0.8478641893033154  0.4513270700627885  0.5592602813644947  1.0000
  H   H27       1.0  0.4513290915946442  0.847862379971282  0.0592588134681051  1.0000
  H   H28       1.0  0.15213771684592103  0.5486673985421645  0.44073911331896204  1.0000
  H   H29       1.0  0.7324317302918287  0.948907181821383  0.04678527150866073  1.0000
  H   H30       1.0  0.051089326544804706  0.2675656344733426  0.45321478405622884  1.0000
  H   H31       1.0  0.26756796836973956  0.05108594142966889  0.9532086732994713  1.0000
  H   H32       1.0  0.9489164937184853  0.7324277917178462  0.5467909315898113  1.0000
  H   H33       1.0  0.11405530395400379  0.2096348601680731  0.8723370519750445  1.0000
  H   H34       1.0  0.790366465918126  0.8859393237171175  0.6276634124253064  1.0000
  H   H35       1.0  0.8859441884693524  0.7903595221700356  0.12765973985065673  1.0000
  H   H36       1.0  0.20963757290132887  0.114056415436302  0.3723369203961724  1.0000
  H   H37       1.0  0.9137896450620387  0.3968381949345954  0.7744548198961426  1.0000
  H   H38       1.0  0.6031650806099833  0.0862055256615477  0.7255480319186418  1.0000
  H   H39       1.0  0.08620749708115479  0.6031623274971878  0.22554813798255677  1.0000
  H   H40       1.0  0.39683628836708357  0.9137913364417826  0.27444953723777843  1.0000
  C   C1        1.0  0.322668569759621  0.4424665236609826  0.8767660994055788  1.0000
  C   C2        1.0  0.5575381189994317  0.6773341401650584  0.6232369574398362  1.0000
  C   C3        1.0  0.6773252464178299  0.5575388615791467  0.12324037999211869  1.0000
  C   C4        1.0  0.44246213932242273  0.32267363555497036  0.3767597139235336  1.0000
  C   C5        1.0  0.15538591819912984  0.47472141461895495  0.9412177435749669  1.0000
  C   C6        1.0  0.5252801453548629  0.8446155285031622  0.5587836022852314  1.0000
  C   C7        1.0  0.8446083728026181  0.525281514784936  0.05878680156867941  1.0000
  C   C8        1.0  0.4747201254365693  0.15539225968443302  0.4412138210343599  1.0000
  C   C9        1.0  0.12783960461146648  0.4016381034009271  0.049598840135651315  1.0000
  C   C10       1.0  0.598362648937332  0.872160843414882  0.45040219718835317  1.0000
  C   C11       1.0  0.8721568803105343  0.5983599948666265  0.9504053937974248  1.0000
  C   C12       1.0  0.40163789044018466  0.1278457480235318  0.5495961388947563  1.0000
  C   C13       1.0  0.030899265196182985  0.5737665115267917  0.8905226723734856  1.0000
  C   C14       1.0  0.4262344715612514  0.9691012280575818  0.609477978655356  1.0000
  C   C15       1.0  0.9690940750591324  0.4262351655269113  0.10948073214858307  1.0000
  C   C16       1.0  0.5737660553466881  0.030905350913258196  0.39051960547153186  1.0000
  C   C17       1.0  0.0636268026250235  0.6515430660715679  0.7745307047928803  1.0000
  C   C18       1.0  0.34845852272085404  0.9363732497055537  0.7254691225961806  1.0000
  C   C19       1.0  0.9363674260288449  0.3484598009944547  0.22547008056968548  1.0000
  C   C20       1.0  0.6515448553285309  0.06363092229318572  0.2745268742657673  1.0000
  C   C21       1.0  0.26562174100426716  0.3014720169003695  0.10169475393562519  1.0000
  C   C22       1.0  0.6985288346586599  0.7343776690382242  0.3983066513384658  1.0000
  C   C23       1.0  0.7343750249733815  0.6985248970855692  0.8983111447171908  1.0000
  C   C24       1.0  0.30147429974379486  0.26562772464484397  0.6016899366723933  1.0000
  C   C25       1.0  0.6750473820327514  0.15967325951871197  0.9296711184486667  1.0000
  C   C26       1.0  0.8403255675558441  0.3249486294897039  0.5703285598413217  1.0000
  C   C27       1.0  0.32495331725354504  0.8403211659528224  0.07032697480591565  1.0000
  C   C28       1.0  0.159678714910548  0.675045887979387  0.4296711818312389  1.0000
  C   C29       1.0  0.7793992413683385  0.0469903677954449  0.9883063081595864  1.0000
  C   C30       1.0  0.9530099576926717  0.22059663116965567  0.5116925757485618  1.0000
  C   C31       1.0  0.22060285854953315  0.9530028292548849  0.01168948755008613  1.0000
  C   C32       1.0  0.046997238263038824  0.7793955416651881  0.48830933844013913  1.0000
  C   C33       1.0  0.9425289526914683  0.05917175068787369  0.9699842152024445  1.0000
  C   C34       1.0  0.9408295943099244  0.05746996604923989  0.5300126033531499  1.0000
  C   C35       1.0  0.057473097348100924  0.9408213964921687  0.030008572682355353  1.0000
  C   C36       1.0  0.05917735799885551  0.9425234284699326  0.4699899019844622  1.0000
  C   C37       1.0  0.9908704831321201  0.18880945607426716  0.8914537551973396  1.0000
  C   C38       1.0  0.8111926364738834  0.009126438700036498  0.6085462272071922  1.0000
  C   C39       1.0  0.009131591846596596  0.8111837160409222  0.10854053659989661  1.0000
  C   C40       1.0  0.18881431583489658  0.9908669558191436  0.3914562781304268  1.0000
  C   C41       1.0  0.8789046500830081  0.2962492557708315  0.8363171385371971  1.0000
  C   C42       1.0  0.7037525424577779  0.12109194034114519  0.6636827562084663  1.0000
  C   C43       1.0  0.12109480602946826  0.703751253187221  0.1636824065495261  1.0000
  C   C44       1.0  0.29625054561524405  0.8789025464620863  0.3363164359914279  1.0000
  N   N1        1.0  0.723132747734077  0.28305608660069487  0.8540623118502211  1.0000
  N   N2        1.0  0.7169434667065531  0.2768646930135148  0.6459392049476022  1.0000
  N   N3        1.0  0.2768672081418444  0.7169419914562667  0.1459368028948873  1.0000
  N   N4        1.0  0.28305913407260147  0.7231322371583887  0.35406116955012823  1.0000
  O   O1        1.0  0.370358817344389  0.3157760641214793  0.8346168461357308  1.0000
  O   O2        1.0  0.6842336719521639  0.6296403460035904  0.6653815663280368  1.0000
  O   O3        1.0  0.6296353625290223  0.6842329170969207  0.1653859405316354  1.0000
  O   O4        1.0  0.31576851170385817  0.3703637953292898  0.33461388106124457  1.0000
  O   O5        1.0  0.4165075787834809  0.5406510374762519  0.8619192864315223  1.0000
  O   O6        1.0  0.4593522929924205  0.5834986254624182  0.6380849107439488  1.0000
  O   O7        1.0  0.5834914399134304  0.4593519647207529  0.138084448777903  1.0000
  O   O8        1.0  0.5406480276773068  0.41650921259547147  0.3619155204005081  1.0000
