data_image0
_chemical_formula_structural       Cd2H14C14N2Cl4O2
_chemical_formula_sum              "Cd2 H14 C14 N2 Cl4 O2"
_cell_length_a       7.250035572907623
_cell_length_b       8.081558782019183
_cell_length_c       9.354874447583471
_cell_angle_alpha    109.3213932048848
_cell_angle_beta     94.9792777452882
_cell_angle_gamma    113.16156460456217

_space_group_name_H-M_alt    "P 1"
_space_group_IT_number       1

loop_
  _space_group_symop_operation_xyz
  'x, y, z'

loop_
  _atom_site_type_symbol
  _atom_site_label
  _atom_site_symmetry_multiplicity
  _atom_site_fract_x
  _atom_site_fract_y
  _atom_site_fract_z
  _atom_site_occupancy
  Cd  Cd1       1.0  0.2670939056075596  0.0166304071169279  0.076788153178974  1.0000
  Cd  Cd2       1.0  0.7329100285265756  0.9833710913355277  0.923211392830872  1.0000
  H   H1        1.0  0.2698112976193769  0.010090450119399498  0.6522701120466009  1.0000
  H   H2        1.0  0.7301830901673583  0.989914162455321  0.3477308110562518  1.0000
  H   H3        1.0  0.9875426637806941  0.6738978221045214  0.5711905507678096  1.0000
  H   H4        1.0  0.012457171567227499  0.3261037079994864  0.4288140916511479  1.0000
  H   H5        1.0  0.8068170588011017  0.4720575704856103  0.2828279904748214  1.0000
  H   H6        1.0  0.19318689204036596  0.5279438970585701  0.7171758235422061  1.0000
  H   H7        1.0  0.9145328618584971  0.626007141099997  0.09268082751705012  1.0000
  H   H8        1.0  0.08546624750405132  0.3739929372493549  0.9073212077195406  1.0000
  H   H9        1.0  0.6456656497645313  0.4645983819455496  0.6281619152286523  1.0000
  H   H10       1.0  0.3543388695677195  0.535398683476714  0.37183423630787615  1.0000
  H   H11       1.0  0.5839444325840902  0.2618577599384225  0.6844064288001518  1.0000
  H   H12       1.0  0.41605805793295053  0.7381408195505729  0.3155900368485618  1.0000
  H   H13       1.0  0.408345188898089  0.3591654778496435  0.679492146201177  1.0000
  H   H14       1.0  0.5916621389210448  0.6408344985612473  0.320505031226176  1.0000
  C   C1        1.0  0.24465378142097902  0.9934669548864079  0.414243868635495  1.0000
  C   C2        1.0  0.755337793702033  0.006534754426759501  0.5857549615747359  1.0000
  C   C3        1.0  0.18954857514768972  0.9215477448708499  0.5289322348685275  1.0000
  C   C4        1.0  0.810446538624419  0.0784583194585338  0.47107129541669207  1.0000
  C   C5        1.0  0.03117897887374004  0.731361464305607  0.482521172646365  1.0000
  C   C6        1.0  0.9688167946669495  0.268643101658938  0.517483030995173  1.0000
  C   C7        1.0  0.9312270963044258  0.6208979093311484  0.32462871207451377  1.0000
  C   C8        1.0  0.06877477203553178  0.37910209897906094  0.6753766832340489  1.0000
  C   C9        1.0  0.991714109739725  0.7053461785118101  0.21728535537681642  1.0000
  C   C10       1.0  0.008280104457590191  0.2946495373420177  0.7827161682586804  1.0000
  C   C11       1.0  0.42071876457420393  0.1912257348113684  0.45260514513022077  1.0000
  C   C12       1.0  0.5792768067517571  0.8087669147691656  0.5474073282340794  1.0000
  C   C13       1.0  0.5215765342877391  0.3273058451908568  0.6194651434268152  1.0000
  C   C14       1.0  0.4784259520524757  0.6726927420252125  0.38053025522010125  1.0000
  N   N1        1.0  0.14532702153971402  0.8859234981195244  0.2613182460101768  1.0000
  N   N2        1.0  0.8546665949290002  0.11407667394569641  0.7386834710932532  1.0000
  Cl  Cl1       1.0  0.059557055951962916  0.23575740058100078  0.14311132866544088  1.0000
  Cl  Cl2       1.0  0.9404482967382748  0.7642470631973239  0.8568848956947617  1.0000
  Cl  Cl3       1.0  0.5302156896455018  0.2111064304546559  0.9601278867115113  1.0000
  Cl  Cl4       1.0  0.4697861369261389  0.7888936551262445  0.03986683857908693  1.0000
  O   O1        1.0  0.4808488991258173  0.23920214508665796  0.34562677702376016  1.0000
  O   O2        1.0  0.5191602916602562  0.7607904788350695  0.6543576826249407  1.0000
