data_image0
_chemical_formula_structural       Zn2H22C54N4Cl6O12
_chemical_formula_sum              "Zn2 H22 C54 N4 Cl6 O12"
_cell_length_a       9.741759717135444
_cell_length_b       11.054790871080566
_cell_length_c       28.07778060465864
_cell_angle_alpha    89.85091752929108
_cell_angle_beta     90.69255856578403
_cell_angle_gamma    90.55785326476224

_space_group_name_H-M_alt    "P 1"
_space_group_IT_number       1

loop_
  _space_group_symop_operation_xyz
  'x, y, z'

loop_
  _atom_site_type_symbol
  _atom_site_label
  _atom_site_symmetry_multiplicity
  _atom_site_fract_x
  _atom_site_fract_y
  _atom_site_fract_z
  _atom_site_occupancy
  Zn  Zn1       1.0  0.6355864416878988  0.49865651794809196  0.4995018781391921  1.0000
  Zn  Zn2       1.0  0.35065526061364244  0.49410077000385394  0.5001729663671172  1.0000
  H   H1        1.0  0.2909707713239343  0.54302987292035  0.34572964224794606  1.0000
  H   H2        1.0  0.2881184318246569  0.4855964932762901  0.6544730805316166  1.0000
  H   H3        1.0  0.2990203864264771  0.4830595240890929  0.7438520870460082  1.0000
  H   H4        1.0  0.5684212885682314  0.18415508305866976  0.03104170723717201  1.0000
  H   H5        1.0  0.30581117315756506  0.8780763621824192  0.5405553168958052  1.0000
  H   H6        1.0  0.3064199563324125  0.1026191728882395  0.5445092844746996  1.0000
  H   H7        1.0  0.2928805138440325  0.5408035759702728  0.25672823087354874  1.0000
  H   H8        1.0  0.12263914268176991  0.40775535633645876  0.5659080568447694  1.0000
  H   H9        1.0  0.8634699490304742  0.4107679335353042  0.5659918860320448  1.0000
  H   H10       1.0  0.8606236709317372  0.5483802935510766  0.3894568218237922  1.0000
  H   H11       1.0  0.8626033441243095  0.6929555311972139  0.41687864547357384  1.0000
  H   H12       1.0  0.4575719944284771  0.7782786643370727  0.12307044474221843  1.0000
  H   H13       1.0  0.7256452423950465  0.5277616327474064  0.6496074140672691  1.0000
  H   H14       1.0  0.7379122599000568  0.5243599781827015  0.7389738858209399  1.0000
  H   H15       1.0  0.7057917506280378  0.4172052883982644  0.34986960342804724  1.0000
  H   H16       1.0  0.7092163624310929  0.4143584628005711  0.26081115325641957  1.0000
  H   H17       1.0  0.5060937341929446  0.18890799884394477  0.9636758213489716  1.0000
  H   H18       1.0  0.4936676534255826  0.198203035409378  0.8754167524471657  1.0000
  H   H19       1.0  0.8063538163065757  0.8878653169650051  0.4623448107845222  1.0000
  H   H20       1.0  0.1199237285028971  0.5466658916215152  0.389574593526696  1.0000
  H   H21       1.0  0.12499075624131709  0.6915160834859648  0.41770326149366366  1.0000
  H   H22       1.0  0.4854471506554248  0.7906412120424733  0.0358577657910431  1.0000
  C   C1        1.0  0.4871404814034009  0.7313448627053558  0.4966038511428296  1.0000
  C   C2        1.0  0.382840144234585  0.5131960093959124  0.27726098794965287  1.0000
  C   C3        1.0  0.5013516399315279  0.47782920637405357  0.25387810038492387  1.0000
  C   C4        1.0  0.5231659503790028  0.48130541313952335  0.10166299661281643  1.0000
  C   C5        1.0  0.49884430527906437  0.5895091103284075  0.1270599955303382  1.0000
  C   C6        1.0  0.48194943527362727  0.6977843572064443  0.10262719380744303  1.0000
  C   C7        1.0  0.5334773046697948  0.36903018965002593  0.12667298883771144  1.0000
  C   C8        1.0  0.4981286779313407  0.48083068992174555  0.35323251377990067  1.0000
  C   C9        1.0  0.5063135213052093  0.5061201269995407  0.646883812171126  1.0000
  C   C10       1.0  0.5582292904763123  0.6056718881112247  0.9755644339121476  1.0000
  C   C11       1.0  0.5333930420564243  0.3815647214859297  0.9729079699380707  1.0000
  C   C12       1.0  0.4976105057626938  0.4845036907781619  0.40661067854185273  1.0000
  C   C13       1.0  0.5428464529010597  0.4956322294532569  0.9490041230524897  1.0000
  C   C14       1.0  0.5990810741079571  0.7096759567414138  0.9501888424031794  1.0000
  C   C15       1.0  0.5971349223282444  0.7131137021678953  0.8993845159620337  1.0000
  C   C16       1.0  0.5595543908582385  0.6102282513312219  0.8731985593677297  1.0000
  C   C17       1.0  0.5406188481273945  0.4989612985052787  0.8980895454030391  1.0000
  C   C18       1.0  0.5208536564692211  0.3897028436624765  0.872442732681826  1.0000
  C   C19       1.0  0.5157769119157508  0.38774918201914216  0.8198518295597736  1.0000
  C   C20       1.0  0.5401946849232574  0.6136769537321313  0.8205262197471159  1.0000
  C   C21       1.0  0.6397580416203894  0.5158574195001081  0.7201663431354605  1.0000
  C   C22       1.0  0.6330329859952571  0.5175398067286565  0.6706275676776274  1.0000
  C   C23       1.0  0.4896929378674956  0.26172428790113866  0.5056159492375585  1.0000
  C   C24       1.0  0.38600728404318124  0.4938886053215086  0.6733713612423885  1.0000
  C   C25       1.0  0.39200378072114017  0.4926559481148019  0.7229301235029768  1.0000
  C   C26       1.0  0.5190694483110293  0.5033192547300658  0.7459692903223215  1.0000
  C   C27       1.0  0.5323881703360558  0.6015903670089529  0.026965139325398006  1.0000
  C   C28       1.0  0.5345622876637395  0.48736199369496086  0.05092267493362361  1.0000
  C   C29       1.0  0.5436393990421494  0.3775426456922589  0.024826546989274306  1.0000
  C   C30       1.0  0.49896446807945694  0.704076642769351  0.05345695291800471  1.0000
  C   C31       1.0  0.5534019086122441  0.2640501639592827  0.09974401214973483  1.0000
  C   C32       1.0  0.515450639385314  0.2762496367699185  0.9459572829290865  1.0000
  C   C33       1.0  0.508120056845776  0.28019784318396995  0.8964424417958271  1.0000
  C   C34       1.0  0.4999653718576767  0.5058741759617077  0.5934665102755474  1.0000
  C   C35       1.0  0.5562136705930386  0.2693117745582185  0.04978245428539911  1.0000
  C   C36       1.0  0.5902781420465786  0.9369073394848185  0.47796261599098255  1.0000
  C   C37       1.0  0.4885059537353629  0.8661135846575689  0.49889713892125104  1.0000
  C   C38       1.0  0.3873116620114916  0.9299140132222448  0.5234465012899394  1.0000
  C   C39       1.0  0.38849161302957214  0.05632445226439839  0.5260549156764329  1.0000
  C   C40       1.0  0.4924080021077231  0.12683786943152597  0.5051301534228969  1.0000
  C   C41       1.0  0.5932178941714028  0.062346355215162  0.4816002599850081  1.0000
  C   C42       1.0  0.7194476722973776  0.0757371535508398  0.4510699362802769  1.0000
  C   C43       1.0  0.7150706623529004  0.9305627108680168  0.4468873209509285  1.0000
  C   C44       1.0  0.06419954318295142  0.5408451333164591  0.46507370933922243  1.0000
  C   C45       1.0  0.4891956591205258  0.5911905283806006  0.1794998060409299  1.0000
  C   C46       1.0  0.06448899179114422  0.44689219587301915  0.5364068432190834  1.0000
  C   C47       1.0  0.9214051866308635  0.4487299360513433  0.5364952520154276  1.0000
  C   C48       1.0  0.9210547019382815  0.5422993088084809  0.46505992412551933  1.0000
  C   C49       1.0  0.9107973793510595  0.6036578583089849  0.41710999264929444  1.0000
  C   C50       1.0  0.07389615170226453  0.6026146643170022  0.41719145398291607  1.0000
  C   C51       1.0  0.5216378394474861  0.366288078676547  0.17935221079957137  1.0000
  C   C52       1.0  0.6180328608123348  0.4431471642947784  0.2796263511446996  1.0000
  C   C53       1.0  0.6161194546294554  0.44478841930444446  0.3291669058092098  1.0000
  C   C54       1.0  0.38184361097830083  0.51443808266783  0.32681494562825014  1.0000
  N   N1        1.0  0.5047903278753267  0.4789771197719189  0.20248201582874265  1.0000
  N   N2        1.0  0.5270275008557094  0.5008234897071375  0.7974111516299305  1.0000
  N   N3        1.0  0.139313035901381  0.49393228767976166  0.5000956325497228  1.0000
  N   N4        1.0  0.8463814915838057  0.49757948534531227  0.5002764904144785  1.0000
  Cl  Cl1       1.0  0.5735613656823092  0.12211550620870068  0.12393983820825842  1.0000
  Cl  Cl2       1.0  0.6972583310527654  0.15899276720818284  0.39785211631559764  1.0000
  Cl  Cl3       1.0  0.8721599482547618  0.1261724773508845  0.4817781834522422  1.0000
  Cl  Cl4       1.0  0.6886186183009002  0.8686842581851123  0.38915648643489936  1.0000
  Cl  Cl5       1.0  0.6438194819399  0.8456076529710616  0.8721722444647855  1.0000
  Cl  Cl6       1.0  0.6620926220579052  0.8368992334795283  0.9788651746170348  1.0000
  O   O1        1.0  0.6019527636928643  0.6811410000646629  0.48920352481273016  1.0000
  O   O2        1.0  0.5337790437114975  0.706997471711297  0.7968904667524159  1.0000
  O   O3        1.0  0.5255771056395844  0.27311649763878876  0.20316161694012186  1.0000
  O   O4        1.0  0.5014006363004313  0.2942233689405427  0.7966153232439627  1.0000
  O   O5        1.0  0.3722500156928846  0.6783090000229138  0.5028785242885974  1.0000
  O   O6        1.0  0.6133709620592072  0.4733782312847764  0.427633680349935  1.0000
  O   O7        1.0  0.3826822434620851  0.4989871811558898  0.4270513061298901  1.0000
  O   O8        1.0  0.6050552173117582  0.315601393582959  0.5090910615258012  1.0000
  O   O9        1.0  0.3721957380635815  0.3101970582466506  0.5016292232365559  1.0000
  O   O10       1.0  0.6130267051896326  0.5214414692189776  0.5717121022575713  1.0000
  O   O11       1.0  0.3827369049541787  0.48985945181515694  0.5738001912502214  1.0000
  O   O12       1.0  0.469919341607728  0.6846371419243339  0.20203708515918356  1.0000
