data_image0
_chemical_formula_structural       La2H34C24O14
_chemical_formula_sum              "La2 H34 C24 O14"
_cell_length_a       8.092128325670961
_cell_length_b       8.992890896111245
_cell_length_c       10.61013887542453
_cell_angle_alpha    71.69571968777032
_cell_angle_beta     83.36743864250903
_cell_angle_gamma    84.0038181409271

_space_group_name_H-M_alt    "P 1"
_space_group_IT_number       1

loop_
  _space_group_symop_operation_xyz
  'x, y, z'

loop_
  _atom_site_type_symbol
  _atom_site_label
  _atom_site_symmetry_multiplicity
  _atom_site_fract_x
  _atom_site_fract_y
  _atom_site_fract_z
  _atom_site_occupancy
  La  La1       1.0  0.2517426269843098  0.04909699038300631  0.9698072602638202  1.0000
  La  La2       1.0  0.7482552512867071  0.950903250612797  0.030192569811362046  1.0000
  H   H1        1.0  0.4869126221528361  0.23883120689713883  0.3418399272366698  1.0000
  H   H2        1.0  0.5130876414340334  0.7611702123809041  0.65816221172102  1.0000
  H   H3        1.0  0.7132723912070132  0.37858564588410104  0.18842995335674564  1.0000
  H   H4        1.0  0.2867291248167092  0.6214157794685277  0.8115692484089788  1.0000
  H   H5        1.0  0.5667835940890384  0.5184358736907626  0.09628365074703986  1.0000
  H   H6        1.0  0.43321418757636815  0.4815655407163674  0.9037168187007293  1.0000
  H   H7        1.0  0.6753980921756693  0.6233995081191214  0.2633658037462893  1.0000
  H   H8        1.0  0.32460093331949474  0.37660190963325146  0.7366345574697063  1.0000
  H   H9        1.0  0.614045508438778  0.45569658658305917  0.3920474212507371  1.0000
  H   H10       1.0  0.3859535256634813  0.544304833898657  0.607950111005067  1.0000
  H   H11       1.0  0.40843215031971875  0.6709703772370547  0.3905613640033962  1.0000
  H   H12       1.0  0.591568113267151  0.32903104204098815  0.6094407749542865  1.0000
  H   H13       1.0  0.2948261550577412  0.4146727911538406  0.45334291906273444  1.0000
  H   H14       1.0  0.705170291910349  0.5853297951389465  0.5466564120159417  1.0000
  H   H15       1.0  0.14951548154415656  0.5539462874112004  0.3596665157298843  1.0000
  H   H16       1.0  0.8504846940441909  0.44605630800752044  0.6403334336402009  1.0000
  H   H17       1.0  0.19019970306157313  0.310793951291636  0.2875513482226423  1.0000
  H   H18       1.0  0.8097993224335907  0.6892074664607364  0.7124490129933602  1.0000
  H   H19       1.0  0.2532260021689083  0.4752075053569558  0.15629871008729157  1.0000
  H   H20       1.0  0.7467743608926014  0.5247927414195458  0.8437018465110737  1.0000
  H   H21       1.0  0.8575389586884014  0.9771876210938187  0.6757788502133052  1.0000
  H   H22       1.0  0.14245920079236638  0.022809096938651397  0.324221890704301  1.0000
  H   H23       1.0  0.10376367648551367  0.19975705271173186  0.48636524983366747  1.0000
  H   H24       1.0  0.8962368797872172  0.8002408472421151  0.5136340280195169  1.0000
  H   H25       1.0  0.8986059499537119  0.2552482004579844  0.5384188012081592  1.0000
  H   H26       1.0  0.10139460344999653  0.7447496985860768  0.46158141963175564  1.0000
  H   H27       1.0  0.08515351369238287  0.7715702255668689  0.6909228997083259  1.0000
  H   H28       1.0  0.9148470425803481  0.22842767438697822  0.30907637814486577  1.0000
  H   H29       1.0  0.21885349189469844  0.9056157039437452  0.5780594744002198  1.0000
  H   H30       1.0  0.7811470643780324  0.09438219601010188  0.42193980345296467  1.0000
  H   H31       1.0  0.08383892440547672  0.42629869076011323  0.8892991246798228  1.0000
  H   H32       1.0  0.9161539355110476  0.5737015232080154  0.11071528312342585  1.0000
  H   H33       1.0  0.9511476494797434  0.3121567596442246  0.8806763986035475  1.0000
  H   H34       1.0  0.04885263705936174  0.6878446669120708  0.11931819646029136  1.0000
  C   C1        1.0  0.47100279027065983  0.21212587583838166  0.15366438822425005  1.0000
  C   C2        1.0  0.5290037890706358  0.787874386754531  0.8463365702019771  1.0000
  C   C3        1.0  0.4573922845341443  0.31807296370114807  0.24249070724927435  1.0000
  C   C4        1.0  0.5426079819217549  0.6819284564866808  0.757510488721685  1.0000
  C   C5        1.0  0.5894646843181802  0.4396823628079858  0.19690405642958805  1.0000
  C   C6        1.0  0.41053443491356484  0.5603178806232734  0.8030966084005509  1.0000
  C   C7        1.0  0.5824904754747494  0.5352711293666915  0.29403238961077693  1.0000
  C   C8        1.0  0.4175097144587525  0.4647314706009382  0.7059628448256489  1.0000
  C   C9        1.0  0.4071742972852661  0.6146607221689494  0.31191042175989026  1.0000
  C   C10       1.0  0.5928272158694269  0.3853407022739005  0.688089722992565  1.0000
  C   C11       1.0  0.274443460463246  0.49449028052923444  0.35275729046981025  1.0000
  C   C12       1.0  0.7255566213885204  0.5055134892105926  0.6472423552861314  1.0000
  C   C13       1.0  0.2832500373090454  0.39855871336718  0.25561930496041185  1.0000
  C   C14       1.0  0.71675156384417  0.6014415349349989  0.7443830293796407  1.0000
  C   C15       1.0  0.36676827484183144  0.7517326771786585  0.1895616174103479  1.0000
  C   C16       1.0  0.6332319887450382  0.2482687420993912  0.8104405215473419  1.0000
  C   C17       1.0  0.061806063689893186  0.045779159555244996  0.7487615812172305  1.0000
  C   C18       1.0  0.9381897956045152  0.9542152031445283  0.2512399833922102  1.0000
  C   C19       1.0  0.984165241542385  0.014250890189856601  0.6373773609292923  1.0000
  C   C20       1.0  0.015834068031558964  0.9857470055089622  0.3626229681423963  1.0000
  C   C21       1.0  0.9772802283873573  0.15896295814751935  0.5139955214909903  1.0000
  C   C22       1.0  0.022719169185108985  0.8410337614106352  0.48600699716830303  1.0000
  C   C23       1.0  0.08769539942823455  0.8760369134631816  0.6024672077406024  1.0000
  C   C24       1.0  0.9123040067513201  0.1239598088243099  0.39753248195849966  1.0000
  O   O1        1.0  0.007001280899380907  0.9753950106350399  0.8707471909558747  1.0000
  O   O2        1.0  0.9929953564109014  0.024605227925306398  0.12925180436435108  1.0000
  O   O3        1.0  0.33797443843502606  0.19126352482612669  0.10937484905721816  1.0000
  O   O4        1.0  0.6620247687952484  0.8087355424644613  0.8906280053605257  1.0000
  O   O5        1.0  0.22503627009956523  0.7710407940109292  0.14397129892868318  1.0000
  O   O6        1.0  0.7749614149602307  0.2289617938075352  0.85602980989168  1.0000
  O   O7        1.0  0.6146302623310403  0.15008148987624992  0.1304798441004209  1.0000
  O   O8        1.0  0.38536540375213946  0.8499152196461849  0.8695229992541936  1.0000
  O   O9        1.0  0.18241731222655486  0.13216087560220297  0.7241394095333857  1.0000
  O   O10       1.0  0.8175856408381533  0.8678382062730137  0.27585840525537725  1.0000
  O   O11       1.0  0.47544330438513766  0.8528355631636586  0.13685685368822934  1.0000
  O   O12       1.0  0.5245559028451366  0.14716350412692236  0.8631460007295143  1.0000
  O   O13       1.0  0.05766050436846371  0.3172787309223111  0.9164657377132097  1.0000
  O   O14       1.0  0.9423476401787527  0.6827180247894518  0.08352282150942601  1.0000
