data_image0
_chemical_formula_structural       Cu2H8C16N4Cl2O2
_chemical_formula_sum              "Cu2 H8 C16 N4 Cl2 O2"
_cell_length_a       3.674796773690088
_cell_length_b       9.017055790655705
_cell_length_c       11.07392847507743
_cell_angle_alpha    77.6225763398917
_cell_angle_beta     89.6201467510621
_cell_angle_gamma    86.68011593548682

_space_group_name_H-M_alt    "P 1"
_space_group_IT_number       1

loop_
  _space_group_symop_operation_xyz
  'x, y, z'

loop_
  _atom_site_type_symbol
  _atom_site_label
  _atom_site_symmetry_multiplicity
  _atom_site_fract_x
  _atom_site_fract_y
  _atom_site_fract_z
  _atom_site_occupancy
  Cu  Cu1       1.0  0.34123707969366984  0.9290908393907105  0.6466355963545283  1.0000
  Cu  Cu2       1.0  0.6587670525734737  0.07091282938934997  0.3533727144097654  1.0000
  H   H1        1.0  0.7397099149262586  0.5236396381017981  0.5931567440667537  1.0000
  H   H2        1.0  0.2602843211601851  0.4763581965796745  0.40684361220228743  1.0000
  H   H3        1.0  0.646994591052426  0.2535559641343497  0.5764211601096818  1.0000
  H   H4        1.0  0.3529964020452994  0.746445239775397  0.42357587874086283  1.0000
  H   H5        1.0  0.23249687448556952  0.43197342414702417  0.9535950490855073  1.0000
  H   H6        1.0  0.7675280137925213  0.5680199622726648  0.046405168107931216  1.0000
  H   H7        1.0  0.5294744769956309  0.6142071757217307  0.7802546471835043  1.0000
  H   H8        1.0  0.47055073789940854  0.3857839900724045  0.2197504888873354  1.0000
  C   C1        1.0  0.6055423273385045  0.44562359147398917  0.6663694736465756  1.0000
  C   C2        1.0  0.3944678268659701  0.5543766321352449  0.3336349397256271  1.0000
  C   C3        1.0  0.12678503516809767  0.13738630476408528  0.9405062354853087  1.0000
  C   C4        1.0  0.8732143212615427  0.8626137600261642  0.05948828905518164  1.0000
  C   C5        1.0  0.5548378760163857  0.2979775531113304  0.656046185617015  1.0000
  C   C6        1.0  0.4451525716873732  0.7020270624209103  0.3439502333024579  1.0000
  C   C7        1.0  0.3272982662183992  0.402327188511144  0.868351833332042  1.0000
  C   C8        1.0  0.6727235608689595  0.5976684299293212  0.13164527308659046  1.0000
  C   C9        1.0  0.4900752958325967  0.4979247487776915  0.7726047714220812  1.0000
  C   C10       1.0  0.5099296227929385  0.5020742851092735  0.22739715697296256  1.0000
  C   C11       1.0  0.1501044952098099  0.013434091079524497  0.8818056875048086  1.0000
  C   C12       1.0  0.8498835963077553  0.9865682399171688  0.11819115056862031  1.0000
  C   C13       1.0  0.3837548684440081  0.20182486588881682  0.7530787219523348  1.0000
  C   C14       1.0  0.6162339798487297  0.7981728732463365  0.24691533822385037  1.0000
  C   C15       1.0  0.9698245833495777  0.13831662871234576  0.060050897560294914  1.0000
  C   C16       1.0  0.030160417394036243  0.8616879773366718  0.9399464342103273  1.0000
  N   N1        1.0  0.2759663045916411  0.25630478121126277  0.8578234607826261  1.0000
  N   N2        1.0  0.7240352188304017  0.743698716079919  0.14217133907821736  1.0000
  N   N3        1.0  0.3021051750185961  0.05299279320617959  0.7675867023088189  1.0000
  N   N4        1.0  0.6978799705439798  0.9470107294247823  0.23241534169550704  1.0000
  Cl  Cl1       1.0  0.8507791597368097  0.8246972346319053  0.5770391515954786  1.0000
  Cl  Cl2       1.0  0.1492094742857475  0.1753178739571268  0.4229770343628232  1.0000
  O   O1        1.0  0.9297308694645211  0.2518579276570491  0.10785512950597824  1.0000
  O   O2        1.0  0.07027072031160496  0.7481284153380157  0.8921355669327939  1.0000
