data_image0
_chemical_formula_structural       In2Ag2H32C48N8O16
_chemical_formula_sum              "In2 Ag2 H32 C48 N8 O16"
_cell_length_a       11.557603420561502
_cell_length_b       13.286443532455198
_cell_length_c       14.094841152828716
_cell_angle_alpha    79.72994278350625
_cell_angle_beta     65.73826037431776
_cell_angle_gamma    64.25888661951801

_space_group_name_H-M_alt    "P 1"
_space_group_IT_number       1

loop_
  _space_group_symop_operation_xyz
  'x, y, z'

loop_
  _atom_site_type_symbol
  _atom_site_label
  _atom_site_symmetry_multiplicity
  _atom_site_fract_x
  _atom_site_fract_y
  _atom_site_fract_z
  _atom_site_occupancy
  In  In1       1.0  0.8748571770791215  0.25018645062818484  0.249729941715664  1.0000
  In  In2       1.0  0.1251454237103856  0.7498065425657215  0.7502701863016483  1.0000
  Ag  Ag1       1.0  0.6256857170718461  0.7498294278418239  0.7499196300438629  1.0000
  Ag  Ag2       1.0  0.3743228113937675  0.25016523984115924  0.25008416329548305  1.0000
  H   H1        1.0  0.5461527028578742  0.09816990072879858  0.4971490696279376  1.0000
  H   H2        1.0  0.956842582196451  0.40167385591341537  0.49660325965095375  1.0000
  H   H3        1.0  0.355566284125402  0.09823979986803269  0.0028924165774953485  1.0000
  H   H4        1.0  0.6412685634832229  0.40192837755871835  0.003032153133389666  1.0000
  H   H5        1.0  0.4538426005137806  0.9018306138889759  0.502860091038265  1.0000
  H   H6        1.0  0.04317017577719165  0.5983341778047091  0.5033768818037957  1.0000
  H   H7        1.0  0.6444354830709856  0.9017640588686003  0.9971134874691148  1.0000
  H   H8        1.0  0.35872816760069504  0.5980696264093693  0.9969628667728616  1.0000
  H   H9        1.0  0.9677018455180358  0.9373362379393981  0.4816230159421621  1.0000
  H   H10       1.0  0.5501551163021291  0.5629336195554941  0.48227583685221737  1.0000
  H   H11       1.0  0.09531598128847214  0.9369318598842469  0.017959485664370292  1.0000
  H   H12       1.0  0.8870517286873464  0.5629288466491644  0.01766299131458726  1.0000
  H   H13       1.0  0.03229827043870137  0.062670126666859  0.518380482206297  1.0000
  H   H14       1.0  0.4498456751049316  0.4370685652863814  0.5177225154204025  1.0000
  H   H15       1.0  0.9046868935848659  0.0630678180578386  0.9820371266214427  1.0000
  H   H16       1.0  0.11293999398652206  0.4370716658771556  0.9823431337013847  1.0000
  H   H17       1.0  0.4876081979091395  0.9675313574104504  0.6443541343311028  1.0000
  H   H18       1.0  0.8686426934996023  0.5322194557586428  0.6437304415000753  1.0000
  H   H19       1.0  0.5450518215117905  0.9674816624955154  0.8558945617818811  1.0000
  H   H20       1.0  0.5995469077250277  0.5323779336393812  0.8557503362264358  1.0000
  H   H21       1.0  0.5123978713868453  0.03246330904993039  0.3556483262222515  1.0000
  H   H22       1.0  0.13136821779433913  0.4677827297568057  0.356258064926152  1.0000
  H   H23       1.0  0.4549513458161556  0.0325104983216491  0.144116597260556  1.0000
  H   H24       1.0  0.4004466224991106  0.46762090544216756  0.14424646038781924  1.0000
  H   H25       1.0  0.8945688924383575  0.8117336891393021  0.6257173071766502  1.0000
  H   H26       1.0  0.4797715577869041  0.6883766061368135  0.6262826007365663  1.0000
  H   H27       1.0  0.2943683801369728  0.8111688071581113  0.874114004382598  1.0000
  H   H28       1.0  0.8325763516307484  0.688328097535248  0.8735594363652196  1.0000
  H   H29       1.0  0.10544007469101041  0.1882651538817726  0.3742747153021854  1.0000
  H   H30       1.0  0.520229156808547  0.3116197298259848  0.3737196005443267  1.0000
  H   H31       1.0  0.7056302280164674  0.18883254300613575  0.1258906035189327  1.0000
  H   H32       1.0  0.16741815438271593  0.31167241544105906  0.12644491202302532  1.0000
  C   C1        1.0  0.6253324740060434  0.0353420120791554  0.5240146851203632  1.0000
  C   C2        1.0  0.850771471354349  0.464558004876892  0.5237207071746256  1.0000
  C   C3        1.0  0.3393588594158529  0.0353163719771885  0.9759879765003208  1.0000
  C   C4        1.0  0.684568671733309  0.464795845551663  0.9760041311542978  1.0000
  C   C5        1.0  0.3746660490664835  0.9646568310409691  0.47599029261858317  1.0000
  C   C6        1.0  0.149236845602914  0.5354483578926263  0.4762664299852447  1.0000
  C   C7        1.0  0.660641480923495  0.9646866502790346  0.02401692787651648  1.0000
  C   C8        1.0  0.31543041459823223  0.5352004889791004  0.02399499759461315  1.0000
  C   C9        1.0  0.8607427657941997  0.9457620500105649  0.5144736367937455  1.0000
  C   C10       1.0  0.6245332093376135  0.5544015643524247  0.5148322278919508  1.0000
  C   C11       1.0  0.19380158313375495  0.9454681282318448  0.9852269611810132  1.0000
  C   C12       1.0  0.8212982650032427  0.5544054917854239  0.9849909299101967  1.0000
  C   C13       1.0  0.13926283589546531  0.05424013753407312  0.48552841752210446  1.0000
  C   C14       1.0  0.3754705815223501  0.4456006204243578  0.4851622748104561  1.0000
  C   C15       1.0  0.8061976586531827  0.0545323858538751  0.014775573697761477  1.0000
  C   C16       1.0  0.17869578436060612  0.4455883351068906  0.015012455128086804  1.0000
  C   C17       1.0  0.593150089439149  0.9632232776737056  0.6051169496429626  1.0000
  C   C18       1.0  0.8021388994276109  0.5366382017718081  0.6047468170213154  1.0000
  C   C19       1.0  0.44385343489908985  0.9630923327038587  0.8950299280631955  1.0000
  C   C20       1.0  0.6614977700611319  0.5368011153507055  0.8948807962792814  1.0000
  C   C21       1.0  0.4068547502720178  0.0367713881753744  0.3948848445173924  1.0000
  C   C22       1.0  0.19787159848079489  0.46336314838961085  0.39524342907062504  1.0000
  C   C23       1.0  0.5561482784614284  0.0369031698520317  0.10497915835787096  1.0000
  C   C24       1.0  0.3384976978904533  0.46319688985696666  0.10512010925791059  1.0000
  C   C25       1.0  0.820107608467232  0.8759118384275978  0.595247026020388  1.0000
  C   C26       1.0  0.5846907106379361  0.6241597566739756  0.5955609147452635  1.0000
  C   C27       1.0  0.30447459202671445  0.8755169817789789  0.9045929227399373  1.0000
  C   C28       1.0  0.7916828949937549  0.6241530439942764  0.9042202117641555  1.0000
  C   C29       1.0  0.17990151825217257  0.12408951323094901  0.4047501421737395  1.0000
  C   C30       1.0  0.41531372212483564  0.3758382501893252  0.4044349941052517  1.0000
  C   C31       1.0  0.6955233824932279  0.12448520446380232  0.0954137581843568  1.0000
  C   C32       1.0  0.20831018002802174  0.3758483034190975  0.09578139736888858  1.0000
  C   C33       1.0  0.7999938645359987  0.1050456847233221  0.3921619350757552  1.0000
  C   C34       1.0  0.8073328128651552  0.39522311841389507  0.39217800928727115  1.0000
  C   C35       1.0  0.0948152870541463  0.10495177105264733  0.1074007364967073  1.0000
  C   C36       1.0  0.7972499576493918  0.3952523758813768  0.1074305574710054  1.0000
  C   C37       1.0  0.19999732429172207  0.8949590054589434  0.6078417473208759  1.0000
  C   C38       1.0  0.1926663420086925  0.6047824068308997  0.6078137912825099  1.0000
  C   C39       1.0  0.9051851801829541  0.895050414561851  0.892600725189631  1.0000
  C   C40       1.0  0.20274078510049504  0.6047481336676552  0.8925662761855478  1.0000
  C   C41       1.0  0.7620564924962138  0.026779622352279403  0.4774982861218505  1.0000
  C   C42       1.0  0.7602196223364073  0.47332633850106737  0.4775496341086907  1.0000
  C   C43       1.0  0.2112356652533407  0.02666680641688401  0.022237594638092214  1.0000
  C   C44       1.0  0.7664387187010535  0.47341882745681113  0.02218882137306379  1.0000
  C   C45       1.0  0.2379460476353755  0.9732175509116631  0.5225073209677973  1.0000
  C   C46       1.0  0.23978260236481935  0.5266808591894615  0.5224420928581566  1.0000
  C   C47       1.0  0.7887651344230305  0.9733320365900368  0.9777642368053849  1.0000
  C   C48       1.0  0.23355377277335507  0.5265766705142951  0.9778152671005175  1.0000
  N   N1        1.0  0.6885603393210288  0.8841512567846195  0.6400277136794089  1.0000
  N   N2        1.0  0.6718360875890919  0.615754105722971  0.6399144078546115  1.0000
  N   N3        1.0  0.4277633458840738  0.8838468537344538  0.8600244556907415  1.0000
  N   N4        1.0  0.7129911610847017  0.6158231863211654  0.8597261549382157  1.0000
  N   N5        1.0  0.3114542110261382  0.11584090346652691  0.3599677138856949  1.0000
  N   N6        1.0  0.32817152719236725  0.38424390241105044  0.360082130507152  1.0000
  N   N7        1.0  0.5722354719455467  0.1161503195464633  0.13998570424385556  1.0000
  N   N8        1.0  0.28700013579967987  0.3841815036035641  0.14027649098717632  1.0000
  O   O1        1.0  0.9115889140715155  0.11743357889860562  0.3728727925144356  1.0000
  O   O2        1.0  0.7148898086228286  0.3830439528924642  0.3729522174045173  1.0000
  O   O3        1.0  0.9709381581053405  0.1172000865114242  0.1266086477959192  1.0000
  O   O4        1.0  0.901941124252609  0.38292445278064946  0.12660705733511426  1.0000
  O   O5        1.0  0.0883978917103504  0.8825761255983123  0.627136442798296  1.0000
  O   O6        1.0  0.2851079129568531  0.61695655950367  0.6270462084710361  1.0000
  O   O7        1.0  0.02906170260865049  0.8827987569624653  0.8733959598647875  1.0000
  O   O8        1.0  0.09804674594212044  0.6170752201917581  0.8733901832011456  1.0000
  O   O9        1.0  0.7215328797153475  0.1586618799649244  0.34196854617824374  1.0000
  O   O10       1.0  0.9360826612969292  0.3415346049627884  0.3418739748518789  1.0000
  O   O11       1.0  0.1194423356565579  0.15882158142133562  0.15760921860223223  1.0000
  O   O12       1.0  0.7221517165530995  0.34157516495756096  0.15772664608600453  1.0000
  O   O13       1.0  0.27846332579173355  0.8413369598241545  0.658027510279524  1.0000
  O   O14       1.0  0.06391427763099222  0.6584667403251743  0.658115492941029  1.0000
  O   O15       1.0  0.8805532836157611  0.8411822742587699  0.8423933534793876  1.0000
  O   O16       1.0  0.2778468442016048  0.6584220053941863  0.8422735192144303  1.0000
