data_image0
_chemical_formula_structural       Zn2H24C27N2O9
_chemical_formula_sum              "Zn2 H24 C27 N2 O9"
_cell_length_a       9.725463621530105
_cell_length_b       10.959482651615689
_cell_length_c       11.100652735488703
_cell_angle_alpha    88.99920026630807
_cell_angle_beta     90.28037424467624
_cell_angle_gamma    89.28611684693408

_space_group_name_H-M_alt    "P 1"
_space_group_IT_number       1

loop_
  _space_group_symop_operation_xyz
  'x, y, z'

loop_
  _atom_site_type_symbol
  _atom_site_label
  _atom_site_symmetry_multiplicity
  _atom_site_fract_x
  _atom_site_fract_y
  _atom_site_fract_z
  _atom_site_occupancy
  Zn  Zn1       1.0  0.36267978624422875  0.5031181784077178  0.504806087109678  1.0000
  Zn  Zn2       1.0  0.6449998852285359  0.49781799941203536  0.505793700248276  1.0000
  H   H1        1.0  0.5300087638103859  0.8960463318086125  0.3076873913984173  1.0000
  H   H2        1.0  0.8785919671498303  0.34130849403891983  0.6165673153760522  1.0000
  H   H3        1.0  0.6822907971457467  0.8985690803392572  0.3943676203298665  1.0000
  H   H4        1.0  0.13875296175311996  0.34339622056410957  0.6148458406547022  1.0000
  H   H5        1.0  0.12489785460254405  0.7766122463155015  0.42003149808000023  1.0000
  H   H6        1.0  0.1284405562677833  0.6874827884585386  0.2870218422040907  1.0000
  H   H7        1.0  0.8638382443742143  0.7728162794692679  0.41852421626713016  1.0000
  H   H8        1.0  0.8664399702428226  0.6829908437655234  0.285897849734539  1.0000
  H   H9        1.0  0.6727388467677711  0.11268903179124125  0.38264592348318877  1.0000
  H   H10       1.0  0.5111379150252162  0.10858037837513022  0.3097439656697745  1.0000
  H   H11       1.0  0.29991491812209853  0.9050812397936312  0.4129945561078685  1.0000
  H   H12       1.0  0.29070484693156823  0.8920204024954761  0.5711725528655478  1.0000
  H   H13       1.0  0.2945605281838794  0.11698845226554512  0.4296850828588815  1.0000
  H   H14       1.0  0.5062459493572573  0.8972866742923242  0.6944010210566489  1.0000
  H   H15       1.0  0.6694546370179139  0.8815865503088746  0.626842496604219  1.0000
  H   H16       1.0  0.6916091906906201  0.09294205780701502  0.5993799810215776  1.0000
  H   H17       1.0  0.4291614156588111  0.10069638488135983  0.7556448559551469  1.0000
  H   H18       1.0  0.2981148815506173  0.10467806218117909  0.5871484752868881  1.0000
  H   H19       1.0  0.7148541721274667  0.4320245408217859  0.11992817136462722  1.0000
  H   H20       1.0  0.7148178691463867  0.42753941104719934  0.8960790631651748  1.0000
  H   H21       1.0  0.22828913516961782  0.6595270219570468  0.8835992848009725  1.0000
  H   H22       1.0  0.17067335501758407  0.5057404942632503  0.8893475132902395  1.0000
  H   H23       1.0  0.2298028712033043  0.6652796988499504  0.1092082069395701  1.0000
  H   H24       1.0  0.16952779343689162  0.51178280819601  0.11657622951113919  1.0000
  C   C1        1.0  0.5057985080120844  0.4995666523220948  0.2690566425946201  1.0000
  C   C2        1.0  0.39000724376027307  0.5253890470509219  0.9403921911317284  1.0000
  C   C3        1.0  0.24238719834095682  0.5704626784320368  0.9293823623713564  1.0000
  C   C4        1.0  0.4994368976982812  0.7416089850051651  0.5013413055579363  1.0000
  C   C5        1.0  0.24218325019121065  0.5735100901929471  0.0718263420615273  1.0000
  C   C6        1.0  0.9293089662046509  0.5823875311059156  0.4513314395746661  1.0000
  C   C7        1.0  0.9346123004348355  0.41206344210521445  0.5679791026577945  1.0000
  C   C8        1.0  0.07814741575955958  0.413490307486029  0.5674243276595305  1.0000
  C   C9        1.0  0.07262955423352928  0.5841941333246724  0.45138401694126173  1.0000
  C   C10       1.0  0.07879844694353717  0.6990043820337635  0.37459842190249054  1.0000
  C   C11       1.0  0.9152434249213639  0.6964825717206864  0.3738990020344346  1.0000
  C   C12       1.0  0.4990159756536485  0.12062387800964562  0.5035099826445304  1.0000
  C   C13       1.0  0.506512528090269  0.4940453646856824  0.7408820693868917  1.0000
  C   C14       1.0  0.5039075210635742  0.2601688496927324  0.5049861579862522  1.0000
  C   C15       1.0  0.5755153608654735  0.9322329601911151  0.3904319976506159  1.0000
  C   C16       1.0  0.5694768759362033  0.07371312460825412  0.3885271536820555  1.0000
  C   C17       1.0  0.3495952150242869  0.9332533305385906  0.49703804670664914  1.0000
  C   C18       1.0  0.5682257345939872  0.925918732842604  0.6160672950763485  1.0000
  C   C19       1.0  0.4971206667916022  0.8815413822066136  0.5006855123012599  1.0000
  C   C20       1.0  0.5392604989717923  0.11777833747219554  0.7313766623253956  1.0000
  C   C21       1.0  0.35067280211460866  0.07383772543731482  0.5055761771601439  1.0000
  C   C22       1.0  0.5838107203178707  0.06709688780544812  0.6122183475049283  1.0000
  C   C23       1.0  0.3896375195689429  0.5272335839966618  0.066082738208955  1.0000
  C   C24       1.0  0.5053142160915769  0.4954741366504011  0.1348371454158652  1.0000
  C   C25       1.0  0.6227682377481826  0.4594616218416122  0.0694256725240194  1.0000
  C   C26       1.0  0.623021348716726  0.4573234365757556  0.943777478338454  1.0000
  C   C27       1.0  0.5059382632794038  0.4916808182301581  0.8750944102516556  1.0000
  N   N1        1.0  0.8568329638038887  0.4978727288545814  0.5084603386280975  1.0000
  N   N2        1.0  0.15053512577530626  0.5009301683875265  0.5079160688995046  1.0000
  O   O1        1.0  0.38865246834775036  0.5020527567446821  0.3203139440436971  1.0000
  O   O2        1.0  0.6223487986586418  0.5008502650672924  0.3222439776852752  1.0000
  O   O3        1.0  0.3837074265580113  0.6888060093050826  0.4984059278137281  1.0000
  O   O4        1.0  0.6165221639362598  0.6883509923922091  0.5053316270677044  1.0000
  O   O5        1.0  0.38938570173323933  0.5028969196782925  0.6888166725588079  1.0000
  O   O6        1.0  0.622597051365524  0.4890363668874329  0.6882083573364213  1.0000
  O   O7        1.0  0.3892195874795588  0.31709194367955723  0.5100476087223385  1.0000
  O   O8        1.0  0.621898775992669  0.308580975128578  0.5015768298545211  1.0000
  O   O9        1.0  0.6140400218597147  0.17105331356103903  0.8010643769874548  1.0000
