data_image0
_chemical_formula_structural       H20Pb2C20N4Cl4
_chemical_formula_sum              "H20 Pb2 C20 N4 Cl4"
_cell_length_a       4.134357441365172
_cell_length_b       9.524639323539118
_cell_length_c       16.408573545854615
_cell_angle_alpha    88.35736803397306
_cell_angle_beta     82.78867215415255
_cell_angle_gamma    76.74838663819266

_space_group_name_H-M_alt    "P 1"
_space_group_IT_number       1

loop_
  _space_group_symop_operation_xyz
  'x, y, z'

loop_
  _atom_site_type_symbol
  _atom_site_label
  _atom_site_symmetry_multiplicity
  _atom_site_fract_x
  _atom_site_fract_y
  _atom_site_fract_z
  _atom_site_occupancy
  H   H1        1.0  0.7445931968364904  0.8568404343865693  0.18293668881601377  1.0000
  H   H2        1.0  0.7881387617799832  0.14468024202807325  0.81757284045905  1.0000
  H   H3        1.0  0.3545754284991037  0.6444799692075023  0.6823337553810089  1.0000
  H   H4        1.0  0.6775720281476936  0.35710564323714067  0.31697405690103136  1.0000
  H   H5        1.0  0.7917834214239718  0.6350482738007412  0.2714597052646042  1.0000
  H   H6        1.0  0.6987905208816513  0.3660414110292294  0.7285324397422669  1.0000
  H   H7        1.0  0.17637550969205049  0.8658578429055339  0.7713759739584845  1.0000
  H   H8        1.0  0.8114422983004557  0.1350977194422285  0.22861071820256731  1.0000
  H   H9        1.0  0.20789052014804107  0.4084383302965263  0.22014870827410243  1.0000
  H   H10       1.0  0.8322777009934087  0.5910261107145942  0.7796048274841282  1.0000
  H   H11       1.0  0.3615878192433827  0.09073802063173278  0.720497934596821  1.0000
  H   H12       1.0  0.17511777878725365  0.9082897128278303  0.28004500836364327  1.0000
  H   H13       1.0  0.55897043794274  0.41441856417695516  0.08522639498965387  1.0000
  H   H14       1.0  0.054638636323609685  0.583865385593988  0.914685108302045  1.0000
  H   H15       1.0  0.7185713056619392  0.08358065317064238  0.5853828055082173  1.0000
  H   H16       1.0  0.3919621253899875  0.9142423449512336  0.41492449765377154  1.0000
  H   H17       1.0  0.48746566295204025  0.6477562407245968  0.0058822808613996054  1.0000
  H   H18       1.0  0.14474856751540016  0.3503549339623148  0.9940806490040968  1.0000
  H   H19       1.0  0.8883051892854753  0.8500328713360117  0.5060545072848938  1.0000
  H   H20       1.0  0.2435988466532138  0.1478315976761522  0.4940132297370709  1.0000
  Pb  Pb1       1.0  0.07598054222484758  0.0004533379097466999  0.0001767131581971005  1.0000
  Pb  Pb2       1.0  0.8286579179727057  0.5004522355605657  0.49963161855136906  1.0000
  C   C1        1.0  0.924850322885625  0.7564465740147311  0.16444788724434287  1.0000
  C   C2        1.0  0.848488267599123  0.24423104486389477  0.835815536176227  1.0000
  C   C3        1.0  0.4334112640285994  0.7439895098435868  0.6641470633773563  1.0000
  C   C4        1.0  0.8389199072960943  0.25662677776355036  0.3354982922186948  1.0000
  C   C5        1.0  0.9509763485448128  0.6328828440522967  0.21302708723363384  1.0000
  C   C6        1.0  0.7973293034629734  0.36761157449367227  0.7870294916393517  1.0000
  C   C7        1.0  0.3336727349457295  0.8673769401696628  0.7129454193559466  1.0000
  C   C8        1.0  0.9124524124793325  0.13294195976881437  0.2870328502044258  1.0000
  C   C9        1.0  0.18174369029895146  0.5078328266022323  0.18447973349652355  1.0000
  C   C10       1.0  0.8718463403018792  0.4918058557342844  0.8154653983473847  1.0000
  C   C11       1.0  0.4368458642035549  0.9915509762154426  0.684592697633924  1.0000
  C   C12       1.0  0.1140461142934442  0.007764165198970798  0.3156412060454769  1.0000
  C   C13       1.0  0.37807133234997553  0.5107110650870793  0.10907270266223178  1.0000
  C   C14       1.0  0.9961710200814405  0.4881904273284049  0.8908925003776316  1.0000
  C   C15       1.0  0.6363658778276576  0.9879181578356578  0.6091724364631048  1.0000
  C   C16       1.0  0.23552360374073794  0.010644954908123299  0.3910036516573497  1.0000
  C   C17       1.0  0.3373497055745673  0.6392990779013769  0.06482422684744898  1.0000
  C   C18       1.0  0.04333897392416474  0.3597057632699147  0.9352643977407664  1.0000
  C   C19       1.0  0.7278765781966708  0.859406904105036  0.5648179820252963  1.0000
  C   C20       1.0  0.15188937397963548  0.1393645398831751  0.4351171401033937  1.0000
  N   N1        1.0  0.11469931038012518  0.7599758382543199  0.09192042925145927  1.0000
  N   N2        1.0  0.9701912077501049  0.23997217243763197  0.90833773070063  1.0000
  N   N3        1.0  0.627913998296144  0.7396639931407589  0.5917015560305712  1.0000
  N   N4        1.0  0.9569422188273082  0.26016001755311885  0.4079642139746368  1.0000
  Cl  Cl1       1.0  0.47225389970096643  0.12587015890378686  0.10183423019478247  1.0000
  Cl  Cl2       1.0  0.7055192288566874  0.8776781087333773  0.8975285171805819  1.0000
  Cl  Cl3       1.0  0.3548610938977319  0.3776592455571333  0.6021684593988823  1.0000
  Cl  Cl4       1.0  0.324810506367285  0.6260948413455907  0.3981054488156629  1.0000
