data_image0
_chemical_formula_structural       Zn4H24C28N4O22
_chemical_formula_sum              "Zn4 H24 C28 N4 O22"
_cell_length_a       7.7842408475393325
_cell_length_b       8.012664986218425
_cell_length_c       14.226671362615537
_cell_angle_alpha    91.78475027402308
_cell_angle_beta     97.91229109122341
_cell_angle_gamma    113.02643271956609

_space_group_name_H-M_alt    "P 1"
_space_group_IT_number       1

loop_
  _space_group_symop_operation_xyz
  'x, y, z'

loop_
  _atom_site_type_symbol
  _atom_site_label
  _atom_site_symmetry_multiplicity
  _atom_site_fract_x
  _atom_site_fract_y
  _atom_site_fract_z
  _atom_site_occupancy
  Zn  Zn1       1.0  0.93864957735223  0.05685505754063061  0.7926975764782397  1.0000
  Zn  Zn2       1.0  0.06135048787377432  0.9431451156225846  0.20730223008036572  1.0000
  Zn  Zn3       1.0  0.529509211740681  0.1723550850837583  0.28964924182691476  1.0000
  Zn  Zn4       1.0  0.4704884256917198  0.827642364498999  0.7103503401551733  1.0000
  H   H1        1.0  0.12420817682787096  0.9797059855111954  0.6581860940162726  1.0000
  H   H2        1.0  0.8757926182235423  0.020292818785676996  0.341813044585308  1.0000
  H   H3        1.0  0.986477293440245  0.07773018906839009  0.6147213786221214  1.0000
  H   H4        1.0  0.01352350008789934  0.9222686087428187  0.3852770568541004  1.0000
  H   H5        1.0  0.8401433801260436  0.5061069164145379  0.2800890379648919  1.0000
  H   H6        1.0  0.15985555718322794  0.49389054574591995  0.7199120485723043  1.0000
  H   H7        1.0  0.6294996152616577  0.48893732111368127  0.2264236463282643  1.0000
  H   H8        1.0  0.370499322047614  0.5110601410467694  0.7735774402089318  1.0000
  H   H9        1.0  0.4954950659546782  0.09016175760184811  0.10574077210655732  1.0000
  H   H10       1.0  0.504506294578377  0.909838408682063  0.8942584296310798  1.0000
  H   H11       1.0  0.6463641099427732  0.009672249856024  0.15332025363591836  1.0000
  H   H12       1.0  0.35363725363683335  0.9903279293992143  0.8466803543524292  1.0000
  H   H13       1.0  0.7018560773172879  0.23651508835945384  0.883536281470647  1.0000
  H   H14       1.0  0.29814268955511386  0.7634850787117315  0.11646272365820917  1.0000
  H   H15       1.0  0.7098329880246155  0.3627774700097746  0.0474864597588436  1.0000
  H   H16       1.0  0.2901670756781131  0.6372226966677701  0.9525126436744029  1.0000
  H   H17       1.0  0.986211660475206  0.4010995328728201  0.17483981953334649  1.0000
  H   H18       1.0  0.013787273787521353  0.5988979163163107  0.825159860753132  1.0000
  H   H19       1.0  0.2417668561630535  0.2748174970078878  0.39033429908551637  1.0000
  H   H20       1.0  0.7582307858391674  0.7251799720318672  0.609667392272641  1.0000
  H   H21       1.0  0.2219392276490808  0.347589299973464  0.5604830911330936  1.0000
  H   H22       1.0  0.7780654624631324  0.6524095225994914  0.4395184517577206  1.0000
  H   H23       1.0  0.47066833395177105  0.33870772251899683  0.6893608612216012  1.0000
  H   H24       1.0  0.5293380510820923  0.6612951795294179  0.31064016795204447  1.0000
  C   C1        1.0  0.8175142164289823  0.25437354720874333  0.9407208319536693  1.0000
  C   C2        1.0  0.18248268813145788  0.7456252582690367  0.05927801173473309  1.0000
  C   C3        1.0  0.8240302347194229  0.3251758180001475  0.03255372634270508  1.0000
  C   C4        1.0  0.1759677992810182  0.6748257049660537  0.9674445404924653  1.0000
  C   C5        1.0  0.9756895914561738  0.3450997217006062  0.10243668921145137  1.0000
  C   C6        1.0  0.02430731310426645  0.6548990837771669  0.897562154476951  1.0000
  C   C7        1.0  0.11931191280697111  0.2950591179984272  0.0789787932478916  1.0000
  C   C8        1.0  0.8806874195470727  0.7049424110597969  0.9210202750170211  1.0000
  C   C9        1.0  0.100575187010044  0.2200888029295456  0.9862157865930854  1.0000
  C   C10       1.0  0.8994273060095637  0.7799140938141066  0.013784244542023288  1.0000
  C   C11       1.0  0.24019681710331756  0.1499656160097445  0.9554059806098537  1.0000
  C   C12       1.0  0.7598086676682598  0.8500413598157337  0.044593635112477194  1.0000
  C   C13       1.0  0.2896693809763988  0.32839949871772933  0.1530754394285481  1.0000
  C   C14       1.0  0.7103293874192785  0.6716006748391122  0.84692426882566  1.0000
  C   C15       1.0  0.3470099567006741  0.2734643823171794  0.44893945978699185  1.0000
  C   C16       1.0  0.6529901100486057  0.7265357973316924  0.5510610498969584  1.0000
  C   C17       1.0  0.33718245403697716  0.3141129405064547  0.5434367974990479  1.0000
  C   C18       1.0  0.6628213388595086  0.6858899688148908  0.45656473819116866  1.0000
  C   C19       1.0  0.47553549953246943  0.3090063315954836  0.6148043284594208  1.0000
  C   C20       1.0  0.5244671593541881  0.6909938407804573  0.3851956747079655  1.0000
  C   C21       1.0  0.6223427928298618  0.2650607943551009  0.5908881076946102  1.0000
  C   C22       1.0  0.37765670996104456  0.7349380297923956  0.4091130419786353  1.0000
  C   C23       1.0  0.6213625413686755  0.2237017331666422  0.49437858122620776  1.0000
  C   C24       1.0  0.3786363928940446  0.7762957160224816  0.5056210990602779  1.0000
  C   C25       1.0  0.7665362901336296  0.164472698619953  0.4607489850365312  1.0000
  C   C26       1.0  0.23346450491779086  0.8355261056769194  0.5392501535650425  1.0000
  C   C27       1.0  0.7724704926622437  0.2637771065519487  0.6697211493337035  1.0000
  C   C28       1.0  0.22753233209145662  0.7362203414562742  0.33027882586594604  1.0000
  N   N1        1.0  0.9514191962239167  0.20054003195429707  0.9192332964860127  1.0000
  N   N2        1.0  0.04858272979078051  0.7994614963166596  0.08076596838768779  1.0000
  N   N3        1.0  0.48555285692277284  0.2287811753520899  0.4258049357355631  1.0000
  N   N4        1.0  0.5144447805096277  0.7712162742306745  0.5741946462465322  1.0000
  O   O1        1.0  0.19897283393470389  0.07452005262771172  0.8692364089200666  1.0000
  O   O2        1.0  0.8010257701171993  0.9254828517825116  0.13076403042722257  1.0000
  O   O3        1.0  0.049621524866466885  0.051784961260153785  0.6744143944177239  1.0000
  O   O4        1.0  0.9503779748778953  0.9482138499160158  0.3255853490048182  1.0000
  O   O5        1.0  0.3823585444487279  0.16607384701200087  0.013714311577196298  1.0000
  O   O6        1.0  0.617647109236451  0.8339304174170863  0.9862866824281155  1.0000
  O   O7        1.0  0.7008515229171977  0.44327714418483316  0.2749144994293928  1.0000
  O   O8        1.0  0.2991459547412489  0.5567230557082894  0.7250879230218459  1.0000
  O   O9        1.0  0.5484186580598518  0.0564028739529192  0.1657035184750981  1.0000
  O   O10       1.0  0.4515801103358256  0.9435972996039224  0.8342961897791098  1.0000
  O   O11       1.0  0.2772385071972678  0.20144466921200885  0.21032887570020617  1.0000
  O   O12       1.0  0.7227589658913586  0.798555511224137  0.7896714373749631  1.0000
  O   O13       1.0  0.42594391089905775  0.47877881112649595  0.1588770272967253  1.0000
  O   O14       1.0  0.5740542935382535  0.5212200069289709  0.8411233209467779  1.0000
  O   O15       1.0  0.7466117079665082  0.125043906835721  0.370042534730345  1.0000
  O   O16       1.0  0.25338592946588545  0.8749535427470435  0.6299570472517431  1.0000
  O   O17       1.0  0.8945547357385308  0.15437101119406546  0.5204331681992471  1.0000
  O   O18       1.0  0.10544662479452432  0.8456291550898456  0.47956603353839  1.0000
  O   O19       1.0  0.7315827030947303  0.1145824464070841  0.7107219164208871  1.0000
  O   O20       1.0  0.268416960993406  0.8854136339157036  0.28927709590856665  1.0000
  O   O21       1.0  0.9172336819941194  0.4072960261809441  0.6939968814250577  1.0000
  O   O22       1.0  0.08276711458056961  0.592702784601592  0.3060029603018748  1.0000
