data_image0
_chemical_formula_structural       Mg6H24C42N6O18
_chemical_formula_sum              "Mg6 H24 C42 N6 O18"
_cell_length_a       6.803251275638175
_cell_length_b       23.217992615490537
_cell_length_c       23.22108523471556
_cell_angle_alpha    119.04968402143953
_cell_angle_beta     95.61515082853597
_cell_angle_gamma    95.61319239815816

_space_group_name_H-M_alt    "P 1"
_space_group_IT_number       1

loop_
  _space_group_symop_operation_xyz
  'x, y, z'

loop_
  _atom_site_type_symbol
  _atom_site_label
  _atom_site_symmetry_multiplicity
  _atom_site_fract_x
  _atom_site_fract_y
  _atom_site_fract_z
  _atom_site_occupancy
  Mg  Mg1       1.0  0.5390816937376002  0.31575451725245784  0.7008155581293138  1.0000
  Mg  Mg2       1.0  0.7932853357025281  0.6743009296018629  0.3821245298836475  1.0000
  Mg  Mg3       1.0  0.22356285410393187  0.385044622951753  0.6841906661159244  1.0000
  Mg  Mg4       1.0  0.11893874711978483  0.7078811928021411  0.3256985752423206  1.0000
  Mg  Mg5       1.0  0.8383824391806273  0.2991313295933865  0.6149564866708346  1.0000
  Mg  Mg6       1.0  0.4110907153698166  0.6178883548676383  0.29214970744205004  1.0000
  H   H1        1.0  0.7450554887367461  0.12770626082846806  0.555424776653652  1.0000
  H   H2        1.0  0.5295353361654874  0.9856284469483824  0.39169473324556486  1.0000
  H   H3        1.0  0.8807196418011429  0.04141723679463641  0.4628355386335343  1.0000
  H   H4        1.0  0.501280565394005  0.895452184726672  0.40969776775541805  1.0000
  H   H5        1.0  0.20660503216839035  0.8703713767189287  0.4537958117030245  1.0000
  H   H6        1.0  0.1260902496325329  0.9824858145673829  0.48394551779448136  1.0000
  H   H7        1.0  0.2198528124963417  0.0299856834305601  0.4012507035281486  1.0000
  H   H8        1.0  0.054768376225624124  0.1286715305533903  0.465313911069579  1.0000
  H   H9        1.0  0.617460356289378  0.4275970919565353  0.8722604242497098  1.0000
  H   H10       1.0  0.5439149036695241  0.4059825752659806  0.01434833758550982  1.0000
  H   H11       1.0  0.8394763680320596  0.42143811369992784  0.9587105823335946  1.0000
  H   H12       1.0  0.6055139781546334  0.5143529535527025  0.10449035056369388  1.0000
  H   H13       1.0  0.336038085460203  0.5835330466009767  0.12976315248110384  1.0000
  H   H14       1.0  0.14363572493716256  0.5014482254533946  0.017652209436555256  1.0000
  H   H15       1.0  0.1898089554093545  0.3711624112946835  0.969925333851819  1.0000
  H   H16       1.0  0.9259834467385063  0.3366484045764936  0.8712350567493773  1.0000
  H   H17       1.0  0.19003253978164744  0.4445759090971677  0.5723216297210101  1.0000
  H   H18       1.0  0.13822667416670956  0.6083014059453546  0.5939187248764172  1.0000
  H   H19       1.0  0.418149152758332  0.5371872838877607  0.5785071388848947  1.0000
  H   H20       1.0  0.09148441099188902  0.590182142964686  0.48566382463030777  1.0000
  H   H21       1.0  0.7526340059021166  0.5462427069566758  0.4165275049764361  1.0000
  H   H22       1.0  0.6422099688370082  0.51608950909214  0.49850684186092303  1.0000
  H   H23       1.0  0.8192494747172107  0.5987752409613023  0.6288390321936818  1.0000
  H   H24       1.0  0.5901355872072431  0.5347195736220558  0.6635179609360763  1.0000
  C   C1        1.0  0.5052575098787813  0.1838933070624691  0.5697169301860824  1.0000
  C   C2        1.0  0.5927099809370588  0.1266565979703387  0.5352837613856636  1.0000
  C   C3        1.0  0.49206302470746277  0.07116955349268042  0.4757252298742571  1.0000
  C   C4        1.0  0.8069805414138929  0.9473395154191666  0.4486638250481151  1.0000
  C   C5        1.0  0.6574840283180095  0.8914575098161421  0.41976667036122006  1.0000
  C   C6        1.0  0.7018092975718702  0.8272863668790366  0.4020612259038502  1.0000
  C   C7        1.0  0.9036110541275025  0.8187381274036698  0.4142902943073922  1.0000
  C   C8        1.0  0.052241644881270685  0.8766317812618923  0.44437192426175204  1.0000
  C   C9        1.0  0.006745716443560872  0.9390639769882368  0.46098743146500004  1.0000
  C   C10       1.0  0.533023839022917  0.7711551300561155  0.3685614525690042  1.0000
  C   C11       1.0  0.2969264780661192  0.07229695151061581  0.44876966792489276  1.0000
  C   C12       1.0  0.2058513673140467  0.1267044757701328  0.4842726095160117  1.0000
  C   C13       1.0  0.30153872634813444  0.18283173544733702  0.5455623125248579  1.0000
  C   C14       1.0  0.18769304487322813  0.236387249397744  0.5805685075824557  1.0000
  C   C15       1.0  0.3214597916013133  0.38576644448695424  0.8160655147540226  1.0000
  C   C16       1.0  0.46616685477287956  0.4085058195362381  0.8732949300852582  1.0000
  C   C17       1.0  0.42091159215613777  0.4044468175326089  0.9287736965930833  1.0000
  C   C18       1.0  0.8595023612847257  0.5013792951477924  0.052706816364619206  1.0000
  C   C19       1.0  0.7657204662131537  0.5284394015553533  0.1085284515611279  1.0000
  C   C20       1.0  0.8741544220608548  0.5749143882324219  0.17271653790547967  1.0000
  C   C21       1.0  0.08455077029257313  0.595687811291633  0.1813013078346941  1.0000
  C   C22       1.0  0.17539798988345723  0.5678402423707284  0.12345603496306279  1.0000
  C   C23       1.0  0.06762978249830814  0.5219477590166478  0.06103074681409743  1.0000
  C   C24       1.0  0.7616250922799139  0.5974976303505386  0.22885821319862737  1.0000
  C   C25       1.0  0.22458714075050779  0.376384795433836  0.92762617216939  1.0000
  C   C26       1.0  0.07909533741133866  0.3575388632686868  0.8732222016180059  1.0000
  C   C27       1.0  0.11875839648328687  0.36270255372502913  0.8171064996103966  1.0000
  C   C28       1.0  0.9513977626160968  0.34417088391821  0.7635330955784527  1.0000
  C   C29       1.0  0.9360235934671477  0.43029664201309004  0.6142418283617346  1.0000
  C   C30       1.0  0.05790136845843117  0.46472577667228177  0.5914254597046876  1.0000
  C   C31       1.0  0.016817623420145447  0.5242996956890026  0.5955303248105751  1.0000
  C   C32       1.0  0.3582293529990253  0.5512630115607281  0.4985826971681392  1.0000
  C   C33       1.0  0.23758188159159493  0.580131137770195  0.47158318909562524  1.0000
  C   C34       1.0  0.2995633206672396  0.5978841442676954  0.4251387277379166  1.0000
  C   C35       1.0  0.48912119822006156  0.5856736121777643  0.40436930129205  1.0000
  C   C36       1.0  0.6077099353241877  0.5556269640508091  0.4322111568290978  1.0000
  C   C37       1.0  0.5457374778655932  0.539013882363065  0.4780327167255507  1.0000
  C   C38       1.0  0.164458122275903  0.6314499509535666  0.4025492534910667  1.0000
  C   C39       1.0  0.8488609714003986  0.551284068471162  0.6237015173746983  1.0000
  C   C40       1.0  0.7222738123103625  0.5157737268354696  0.6426100268700667  1.0000
  C   C41       1.0  0.7565983127404506  0.4544536096911075  0.6373949003423078  1.0000
  C   C42       1.0  0.6076564301209828  0.4193875347068214  0.6558803789146808  1.0000
  N   N1        1.0  0.5773971027177822  0.014952094446343302  0.44196446348301777  1.0000
  N   N2        1.0  0.7671932851672028  0.011685924194644301  0.4665755179780859  1.0000
  N   N3        1.0  0.5624505538930294  0.4269268036303019  0.9850210075157904  1.0000
  N   N4        1.0  0.7554972980157901  0.45486649858153805  0.9883594613809664  1.0000
  N   N5        1.0  0.13567808415178464  0.558022102417418  0.5729758653113137  1.0000
  N   N6        1.0  0.30070957818846017  0.5333792819419045  0.5450499152416413  1.0000
  O   O1        1.0  0.004367540798924095  0.2318843830160304  0.5580387178922025  1.0000
  O   O2        1.0  0.27453768853911953  0.2887773166042607  0.6365149480414446  1.0000
  O   O3        1.0  0.6203059041639066  0.2370935427919534  0.6227297846490814  1.0000
  O   O4        1.0  0.3575843140199738  0.7801111408306269  0.3537581714687691  1.0000
  O   O5        1.0  0.5660221774196472  0.7120292223545307  0.3543076126260872  1.0000
  O   O6        1.0  0.9610166438034325  0.7596714611550368  0.3986863840601842  1.0000
  O   O7        1.0  0.7725490303505468  0.32614985094123483  0.7680120500050124  1.0000
  O   O8        1.0  0.9860328356918446  0.3477118421859943  0.7111607666233581  1.0000
  O   O9        1.0  0.3833483141467583  0.3855638693358047  0.7628693273559577  1.0000
  O   O10       1.0  0.5772439267438544  0.57371910751192  0.21990530301555122  1.0000
  O   O11       1.0  0.8538402359272654  0.6423418611600269  0.28798129107950393  1.0000
  O   O12       1.0  0.20111800493498322  0.6391024788871391  0.2403688597788119  1.0000
  O   O13       1.0  0.4469514095947532  0.4419353452461225  0.6739474190909577  1.0000
  O   O14       1.0  0.6383805444663581  0.36339855593154624  0.6522492208019414  1.0000
  O   O15       1.0  0.9979383670211347  0.3772640000744333  0.6144068274395877  1.0000
  O   O16       1.0  0.003906735196814279  0.6462914921430211  0.42632388449776937  1.0000
  O   O17       1.0  0.21176079103592832  0.6457130799326407  0.35768976585440265  1.0000
  O   O18       1.0  0.5622750213788521  0.6012645223690001  0.3609128811057829  1.0000
