data_image0
_chemical_formula_structural       Gd18H74C144N24O76
_chemical_formula_sum              "Gd18 H74 C144 N24 O76"
_cell_length_a       16.99407415630698
_cell_length_b       16.99406450105395
_cell_length_c       21.13166985159661
_cell_angle_alpha    66.29711376679575
_cell_angle_beta     66.29713488298063
_cell_angle_gamma    60.0047064593663

_space_group_name_H-M_alt    "P 1"
_space_group_IT_number       1

loop_
  _space_group_symop_operation_xyz
  'x, y, z'

loop_
  _atom_site_type_symbol
  _atom_site_label
  _atom_site_symmetry_multiplicity
  _atom_site_fract_x
  _atom_site_fract_y
  _atom_site_fract_z
  _atom_site_occupancy
  Gd  Gd1       1.0  0.9485689025894074  0.8460335839276988  0.10234298569321972  1.0000
  Gd  Gd2       1.0  0.10307117132043689  0.9485676069035589  0.10232525002258092  1.0000
  Gd  Gd3       1.0  0.8460582342491919  0.10303293983481841  0.10237038778133475  1.0000
  Gd  Gd4       1.0  0.551430655286495  0.3969284628548024  0.3976774024869841  1.0000
  Gd  Gd5       1.0  0.3969658136683591  0.653942624377663  0.39763031624665496  1.0000
  Gd  Gd6       1.0  0.6539623582143574  0.5514329120423439  0.3976589488115393  1.0000
  Gd  Gd7       1.0  0.0514331667435641  0.1539640654485978  0.8976579138794489  1.0000
  Gd  Gd8       1.0  0.8969259812826776  0.051430098852456786  0.8976762742331132  1.0000
  Gd  Gd9       1.0  0.15394664462193933  0.8969629330664117  0.8976292314024477  1.0000
  Gd  Gd10      1.0  0.44856860470405724  0.603074176259767  0.6023223190394659  1.0000
  Gd  Gd11      1.0  0.6030362557177327  0.3460550250519461  0.6023691636215034  1.0000
  Gd  Gd12      1.0  0.3460340921524717  0.4485695756213558  0.6023426763421539  1.0000
  Gd  Gd13      1.0  0.7755777124726749  0.724421218872358  0.2500004757831887  1.0000
  Gd  Gd14      1.0  0.2500064243466014  0.775565208442586  0.24999092944170792  1.0000
  Gd  Gd15      1.0  0.7244342465344928  0.24999156777078477  0.25001093588493734  1.0000
  Gd  Gd16      1.0  0.22442084507409277  0.27557913319477473  0.7499987924395626  1.0000
  Gd  Gd17      1.0  0.749990026066456  0.22443792188087003  0.750010014731032  1.0000
  Gd  Gd18      1.0  0.27556571563921756  0.7500062893827815  0.7499901044480168  1.0000
  H   H1        1.0  0.7219392525589682  0.8698540527038217  0.9382092750000267  1.0000
  H   H2        1.0  0.4699988329325392  0.7219733100640509  0.9381842388584617  1.0000
  H   H3        1.0  0.8698630697998552  0.4699739399466905  0.9382315241230189  1.0000
  H   H4        1.0  0.7780272649778793  0.030001662798419218  0.561815528744866  1.0000
  H   H5        1.0  0.030026367338969396  0.630136695174407  0.5617676045353618  1.0000
  H   H6        1.0  0.6301448923395513  0.7780609929663241  0.5617907734595703  1.0000
  H   H7        1.0  0.2780607097465406  0.13014637503542295  0.06179046111360981  1.0000
  H   H8        1.0  0.5300018317557829  0.2780268342080347  0.06181536183884624  1.0000
  H   H9        1.0  0.13013689247713237  0.5300258451505753  0.061768419736736725  1.0000
  H   H10       1.0  0.2219733996819215  0.9699978388316876  0.43818427969856105  1.0000
  H   H11       1.0  0.9699735949665396  0.36986373256483746  0.4382321315782745  1.0000
  H   H12       1.0  0.36985506993743655  0.22193879213094186  0.4382091704001851  1.0000
  H   H13       1.0  0.6181594180207738  0.7826105602882545  0.01980729015718929  1.0000
  H   H14       1.0  0.5794090441376413  0.6182160626233326  0.01979941998717999  1.0000
  H   H15       1.0  0.7825507252443203  0.5794151601272187  0.019827511117654212  1.0000
  H   H16       1.0  0.8817833568584277  0.9205906562284056  0.4802011212508431  1.0000
  H   H17       1.0  0.9205843777366666  0.7174502936600002  0.4801721030195339  1.0000
  H   H18       1.0  0.717389154017276  0.8818406585612235  0.48019397509924744  1.0000
  H   H19       1.0  0.38184124660361374  0.21738894130631778  0.9801934647559064  1.0000
  H   H20       1.0  0.42059162053297433  0.3817840816309824  0.980200653944962  1.0000
  H   H21       1.0  0.21744993941548066  0.420584341502895  0.9801722973257725  1.0000
  H   H22       1.0  0.1182180101094445  0.0794072766328213  0.5197994405033272  1.0000
  H   H23       1.0  0.07941558454032101  0.2825494914372726  0.5198278408402216  1.0000
  H   H24       1.0  0.2826101058699991  0.11816005260963884  0.5198068429003939  1.0000
  H   H25       1.0  0.6212927718056634  0.7149027851622587  0.14895287553076733  1.0000
  H   H26       1.0  0.5148198355224665  0.6212901036778788  0.14895363975375633  1.0000
  H   H27       1.0  0.7148695318127096  0.5148278179425247  0.14898739416657492  1.0000
  H   H28       1.0  0.8787089031928305  0.9851796938114032  0.3510470871812929  1.0000
  H   H29       1.0  0.9851709543333769  0.785131617227449  0.3510133716943501  1.0000
  H   H30       1.0  0.7850983630149955  0.8787065888738749  0.3510476875232273  1.0000
  H   H31       1.0  0.37870648808851115  0.2850972834021731  0.8510472037453242  1.0000
  H   H32       1.0  0.4851801267368073  0.3787096814016166  0.8510467773408407  1.0000
  H   H33       1.0  0.2851311328470914  0.4851716836875822  0.8510124142768517  1.0000
  H   H34       1.0  0.1212917614669706  0.014819807818703581  0.6489527212621268  1.0000
  H   H35       1.0  0.014829007925897001  0.21486816785204607  0.6489870454002471  1.0000
  H   H36       1.0  0.2149015992442855  0.12129319620562026  0.6489527295713698  1.0000
  H   H37       1.0  0.5685425775926307  0.961795845664994  0.2932158755899437  1.0000
  H   H38       1.0  0.1764062385818974  0.5685780831669474  0.29322015683662533  1.0000
  H   H39       1.0  0.9618061214492926  0.17640337753253718  0.29322565145032786  1.0000
  H   H40       1.0  0.9314218269842484  0.32359415558441645  0.20677984428453283  1.0000
  H   H41       1.0  0.32359788146304425  0.538193595480351  0.20677414036049396  1.0000
  H   H42       1.0  0.5382045272165215  0.9314565915085847  0.20678404041895962  1.0000
  H   H43       1.0  0.4314580870671705  0.03820365596511979  0.706783932853483  1.0000
  H   H44       1.0  0.8235937237059048  0.4314223445545265  0.7067800525118456  1.0000
  H   H45       1.0  0.0381938408847304  0.8235976928486862  0.7067738769171896  1.0000
  H   H46       1.0  0.0685781353212604  0.6764062721548353  0.7932198918291034  1.0000
  H   H47       1.0  0.6764013784596443  0.4618071157260528  0.7932257311694785  1.0000
  H   H48       1.0  0.46179613744327946  0.06854291012152197  0.79321576802446  1.0000
  H   H49       1.0  0.45456701935857063  0.07469981482577734  0.3708134737883313  1.0000
  H   H50       1.0  0.09991815024604732  0.45457287351651127  0.3707948088154325  1.0000
  H   H51       1.0  0.07471840126306968  0.09989255720095261  0.3708087866860836  1.0000
  H   H52       1.0  0.04542723014200329  0.4000818830930938  0.12920506244022079  1.0000
  H   H53       1.0  0.400107441353228  0.42528140976745  0.12919120486086647  1.0000
  H   H54       1.0  0.425300331080635  0.045432413437204305  0.12918661016069416  1.0000
  H   H55       1.0  0.545432942872189  0.9252993276117465  0.6291871510523849  1.0000
  H   H56       1.0  0.9000818120417549  0.5454275542049629  0.6292054005330455  1.0000
  H   H57       1.0  0.9252815610424392  0.9001078705382922  0.62919094942756  1.0000
  H   H58       1.0  0.9545727321172778  0.5999179019864014  0.8707953546543764  1.0000
  H   H59       1.0  0.5998925209414666  0.5747183753475936  0.8708082657640545  1.0000
  H   H60       1.0  0.5746996311963457  0.9545673716600613  0.8708133336990613  1.0000
  H   H61       1.0  0.4997178341788881  0.19911796976317933  0.3660784092002771  1.0000
  H   H62       1.0  0.9350634307136473  0.49974181407944207  0.3660690201926186  1.0000
  H   H63       1.0  0.19913756224914178  0.935072251103875  0.3660746400084066  1.0000
  H   H64       1.0  0.00025766010229230006  0.5649369200466693  0.1339316015446741  1.0000
  H   H65       1.0  0.5649281669264213  0.3008623752441863  0.1339258027034162  1.0000
  H   H66       1.0  0.300882094719725  0.00028303744662138385  0.13392123248382157  1.0000
  H   H67       1.0  0.5002828304740206  0.8008821744733648  0.6339221379667067  1.0000
  H   H68       1.0  0.06493653159186148  0.5002586136598026  0.633930715921018  1.0000
  H   H69       1.0  0.8008631023929526  0.06492725050846093  0.6339256416698545  1.0000
  H   H70       1.0  0.9997415997741682  0.4350631484999851  0.8660689509662518  1.0000
  H   H71       1.0  0.43507249773337964  0.6991371263859208  0.8660740057400031  1.0000
  H   H72       1.0  0.6991178676320119  0.9997180329523726  0.8660778226488617  1.0000
  H   H73       1.0  1.2167970596000023e-06  8.38932272999995e-07  0.9999974506749751  1.0000
  H   H74       1.0  0.49999998112078703  0.4999998925308659  0.5000004451647156  1.0000
  C   C1        1.0  0.789702326441514  0.7895752306208831  0.0912830183457631  1.0000
  C   C2        1.0  0.3294373256070671  0.7897137371447298  0.09127312166013013  1.0000
  C   C3        1.0  0.7895329430834578  0.32942155470693285  0.09130923539305515  1.0000
  C   C4        1.0  0.7102873977759073  0.17056315655600673  0.4087259788925621  1.0000
  C   C5        1.0  0.17057739064319583  0.7104672255641089  0.4086911440242744  1.0000
  C   C6        1.0  0.710424933005278  0.7102978298286117  0.4087171366791935  1.0000
  C   C7        1.0  0.21029693347036732  0.21042483796131242  0.908716587695487  1.0000
  C   C8        1.0  0.6705633390566562  0.21028704971602233  0.9087276909955688  1.0000
  C   C9        1.0  0.21046772153011517  0.6705773042634318  0.9086912540313321  1.0000
  C   C10       1.0  0.2897125645296015  0.8294372711832378  0.5912737572210744  1.0000
  C   C11       1.0  0.8294225716623131  0.28953320217514283  0.591308592089362  1.0000
  C   C12       1.0  0.2895757316368162  0.28970167178372447  0.5912831449990676  1.0000
  C   C13       1.0  0.7852485860781045  0.8396447418072341  0.019314399448717125  1.0000
  C   C14       1.0  0.35579624141583105  0.7852673522682988  0.019288633500053824  1.0000
  C   C15       1.0  0.8396082449855697  0.3557781479203825  0.01931969866260648  1.0000
  C   C16       1.0  0.7147334744848449  0.14420446384532673  0.48071002267968055  1.0000
  C   C17       1.0  0.14422233337481316  0.6603909016544092  0.480679569215944  1.0000
  C   C18       1.0  0.660354841053703  0.714752560062372  0.48068514771595977  1.0000
  C   C19       1.0  0.21475207863873888  0.16035604510683032  0.9806849935024643  1.0000
  C   C20       1.0  0.6442044231908497  0.2147321493084958  0.9807125946478833  1.0000
  C   C21       1.0  0.16039171736616714  0.6442229224786115  0.9806793564700768  1.0000
  C   C22       1.0  0.2852671901749558  0.85579503778478  0.5192897857637462  1.0000
  C   C23       1.0  0.8557776289306885  0.3396095260848354  0.5193201668976926  1.0000
  C   C24       1.0  0.3396451212695126  0.28524786769464316  0.5193141151628424  1.0000
  C   C25       1.0  0.72395399424952  0.8346868243132657  0.9938135677515304  1.0000
  C   C26       1.0  0.447545019321538  0.7239660066936293  0.9937945136740893  1.0000
  C   C27       1.0  0.8345870985622668  0.4475536199372881  0.9938119859059781  1.0000
  C   C28       1.0  0.7760352917657372  0.05245465916831885  0.5062052831857714  1.0000
  C   C29       1.0  0.05244626381326609  0.665412959488833  0.5061871843596606  1.0000
  C   C30       1.0  0.6653119080077374  0.7760483181041664  0.5061863562144282  1.0000
  C   C31       1.0  0.2760466704388024  0.16531331995881968  0.006186032945777207  1.0000
  C   C32       1.0  0.5524542406011577  0.27603470451277456  0.006205357855883284  1.0000
  C   C33       1.0  0.16541216137813564  0.5524470912868864  0.006187412389159883  1.0000
  C   C34       1.0  0.22396537284783588  0.9475441998020382  0.4937952062386089  1.0000
  C   C35       1.0  0.9475544008573492  0.33458718476548904  0.4938128895724817  1.0000
  C   C36       1.0  0.33468735194347227  0.22395303574421627  0.4938133075694182  1.0000
  C   C37       1.0  0.6664409259331378  0.7869258532248434  0.03870481186885395  1.0000
  C   C38       1.0  0.5079181466103648  0.666467489738082  0.03869696089108737  1.0000
  C   C39       1.0  0.7868961868927115  0.5079111736157244  0.038723019385202055  1.0000
  C   C40       1.0  0.8335323920202241  0.9920813618602646  0.46130348769220575  1.0000
  C   C41       1.0  0.9920886333940117  0.7131045980728956  0.4612761134751083  1.0000
  C   C42       1.0  0.7130742418675454  0.8335598104808566  0.4612956457082261  1.0000
  C   C43       1.0  0.3335597387374776  0.21307429102947145  0.9612952620632883  1.0000
  C   C44       1.0  0.4920811133123236  0.3335332214683218  0.9613029106388853  1.0000
  C   C45       1.0  0.2131037754413185  0.492089896765499  0.9612765089823158  1.0000
  C   C46       1.0  0.16646827263957684  0.007918139769841988  0.5386963207512139  1.0000
  C   C47       1.0  0.007911328911489999  0.28689582966634924  0.5387236226385353  1.0000
  C   C48       1.0  0.2869257203917357  0.16643997459864576  0.5387047713863709  1.0000
  C   C49       1.0  0.6688609300971607  0.74825375922898  0.11045232017701773  1.0000
  C   C50       1.0  0.47244500232846326  0.6688920545872602  0.11043439348092933  1.0000
  C   C51       1.0  0.7481676611198367  0.4724548070843326  0.11045753335744023  1.0000
  C   C52       1.0  0.8311073896495955  0.02755382111897831  0.38956627457704945  1.0000
  C   C53       1.0  0.0275453740587466  0.7518334089149761  0.3895416738943283  1.0000
  C   C54       1.0  0.7517474613712167  0.8311392969553493  0.3895484132540401  1.0000
  C   C55       1.0  0.33113903217982715  0.25174602586829303  0.8895476236827377  1.0000
  C   C56       1.0  0.5275556623205232  0.3311068044186456  0.8895651494737817  1.0000
  C   C57       1.0  0.2518330035684854  0.5275453371877531  0.8895420673398675  1.0000
  C   C58       1.0  0.16889327498168433  0.9724450378691569  0.6104337416124962  1.0000
  C   C59       1.0  0.9724552906295756  0.24816673535710967  0.6104579268029723  1.0000
  C   C60       1.0  0.2482532032639853  0.16886084726343137  0.6104526071477777  1.0000
  C   C61       1.0  0.837242004117897  0.8999696520824042  0.9743503315748826  1.0000
  C   C62       1.0  0.28839485451082686  0.8372525483879795  0.9743398275826111  1.0000
  C   C63       1.0  0.900007919915339  0.2883892519913545  0.9743636179546585  1.0000
  C   C64       1.0  0.6627496120145934  0.21160609045664103  0.5256583228577796  1.0000
  C   C65       1.0  0.21161131963857827  0.5999902092176155  0.5256350168876762  1.0000
  C   C66       1.0  0.6000290881812232  0.6627607342732841  0.5256485077642098  1.0000
  C   C67       1.0  0.1627586605596107  0.10002984956548026  0.025649003633709807  1.0000
  C   C68       1.0  0.7116072149254223  0.16274702893202422  0.025659975516866454  1.0000
  C   C69       1.0  0.0999927448083966  0.7116108923162796  0.025635036272973394  1.0000
  C   C70       1.0  0.33725175501032106  0.788393127688536  0.4743418234041528  1.0000
  C   C71       1.0  0.7883886426384022  0.4000095758796576  0.47436492697207916  1.0000
  C   C72       1.0  0.39997087415280663  0.3372403361079391  0.4743510206033079  1.0000
  C   C73       1.0  0.6903694977090639  0.0909329198421672  0.2545533091528966  1.0000
  C   C74       1.0  0.9641006005792859  0.6904250053862596  0.2545601169007982  1.0000
  C   C75       1.0  0.0909476993393739  0.9641492847000562  0.2545080795128882  1.0000
  C   C76       1.0  0.8095757508608656  0.5358995080570707  0.24544034717796848  1.0000
  C   C77       1.0  0.5358514777347523  0.40905219260930176  0.24549178734619656  1.0000
  C   C78       1.0  0.4090667200862725  0.809631080223447  0.24544719277097476  1.0000
  C   C79       1.0  0.30963116689369485  0.909065296503989  0.7454469147827683  1.0000
  C   C80       1.0  0.0358993617655585  0.3095767076191719  0.7454396769554351  1.0000
  C   C81       1.0  0.909051560640364  0.035852711790305185  0.7454913765248464  1.0000
  C   C82       1.0  0.19042350898707383  0.46409991784760485  0.7545604130790834  1.0000
  C   C83       1.0  0.46414988935408985  0.5909476682133955  0.7545072046999337  1.0000
  C   C84       1.0  0.5909332422084218  0.19036870489158986  0.7545522778539465  1.0000
  C   C85       1.0  0.6693028600887132  0.02243783894894588  0.2503542917599191  1.0000
  C   C86       1.0  0.05784467356561859  0.6693437937597293  0.2503906837950253  1.0000
  C   C87       1.0  0.0224457045919806  0.05789196560572659  0.2503484537425535  1.0000
  C   C88       1.0  0.8306561157545785  0.44215586649355004  0.24960926075008444  1.0000
  C   C89       1.0  0.44210665647185005  0.4775552240698175  0.24965256747336886  1.0000
  C   C90       1.0  0.47756190669831966  0.8306979450323336  0.24964563140736828  1.0000
  C   C91       1.0  0.33069780456026626  0.977561020056953  0.749645251194785  1.0000
  C   C92       1.0  0.9421552887221835  0.33065663396174444  0.7496095255534455  1.0000
  C   C93       1.0  0.9775535552667803  0.9421081029231569  0.7496525720032141  1.0000
  C   C94       1.0  0.16934454893374348  0.5578442777785424  0.7503903399472164  1.0000
  C   C95       1.0  0.5578940082449934  0.5224455628442468  0.7503468254778198  1.0000
  C   C96       1.0  0.5224373531958477  0.16930212353209131  0.7503544478687232  1.0000
  C   C97       1.0  0.5838830663677755  0.016534126432041735  0.2939094062750058  1.0000
  C   C98       1.0  0.1056426312018033  0.5838913428305118  0.2939212894574084  1.0000
  C   C99       1.0  0.016523791971216898  0.10564511539750039  0.29392734319819164  1.0000
  C   C100      1.0  0.916109293992278  0.3943578174994542  0.20607892858263452  1.0000
  C   C101      1.0  0.39435529989215473  0.48347663509078814  0.20607278492036585  1.0000
  C   C102      1.0  0.48346564187572477  0.9161179488652917  0.20609091138269534  1.0000
  C   C103      1.0  0.41611759827431877  0.9834653751802946  0.7060908754032553  1.0000
  C   C104      1.0  0.8943566287031856  0.4161093683581213  0.7060790553073987  1.0000
  C   C105      1.0  0.9834768726993984  0.8943550288568144  0.7060727307339506  1.0000
  C   C106      1.0  0.08389137072457228  0.6056429694146104  0.7939204643685471  1.0000
  C   C107      1.0  0.6056453647391249  0.5165222238973398  0.7939272312691796  1.0000
  C   C108      1.0  0.5165336179830362  0.08388211966359192  0.7939101143630722  1.0000
  C   C109      1.0  0.5212502141322517  0.07856061797956225  0.3369439578636673  1.0000
  C   C110      1.0  0.0631944605255228  0.5212848345953275  0.33698408147046877  1.0000
  C   C111      1.0  0.0785738865148033  0.06322945969645127  0.33693667653750475  1.0000
  C   C112      1.0  0.9787146155147397  0.4368059130277615  0.1630155989092117  1.0000
  C   C113      1.0  0.43677134819323976  0.42142602057540307  0.16306397056061428  1.0000
  C   C114      1.0  0.42143867742275626  0.9787501598459722  0.1630557680360526  1.0000
  C   C115      1.0  0.47875045048132137  0.9214382409908022  0.6630565315607129  1.0000
  C   C116      1.0  0.9368040969858313  0.4787155174362567  0.6630161332219585  1.0000
  C   C117      1.0  0.9214260757444704  0.936770325383044  0.6630637405570924  1.0000
  C   C118      1.0  0.021285346819290393  0.5631951573534622  0.8369839294583059  1.0000
  C   C119      1.0  0.5632293164311477  0.5785734810191626  0.8369367843524814  1.0000
  C   C120      1.0  0.5785612848542314  0.021249625251293508  0.836944175823703  1.0000
  C   C121      1.0  0.5458725387596814  0.14655537393804238  0.33524515024350887  1.0000
  C   C122      1.0  0.9722932827217078  0.5459077148468481  0.3352456823977406  1.0000
  C   C123      1.0  0.1465774976019887  0.9723243496982903  0.3352317032478281  1.0000
  C   C124      1.0  0.954093205401925  0.5277060843233912  0.1647545018651471  1.0000
  C   C125      1.0  0.5276769181984376  0.35342143101221496  0.1647697333724737  1.0000
  C   C126      1.0  0.35344465962593574  0.9541274092958286  0.16475399959757903  1.0000
  C   C127      1.0  0.4541281259001194  0.8534441276920641  0.664754658199911  1.0000
  C   C128      1.0  0.0277052748644024  0.45409392248646424  0.6647536435676074  1.0000
  C   C129      1.0  0.8534217622567724  0.027675718830593554  0.6647693224979391  1.0000
  C   C130      1.0  0.04590675686817039  0.47229434338031234  0.8352461807181654  1.0000
  C   C131      1.0  0.47232374646136316  0.646578070617899  0.8352300750709459  1.0000
  C   C132      1.0  0.6465546003144664  0.04587330192834583  0.835245398697559  1.0000
  C   C133      1.0  0.7341896146622274  0.9560701391795307  0.20450979609172742  1.0000
  C   C134      1.0  0.1051472183094333  0.7342346435973964  0.20453663586824436  1.0000
  C   C135      1.0  0.9560693415686784  0.10518255076579659  0.20453650543638704  1.0000
  C   C136      1.0  0.765764263749361  0.39485437235003906  0.2954632922491598  1.0000
  C   C137      1.0  0.39481748257829  0.5439296459138487  0.2954643944647799  1.0000
  C   C138      1.0  0.543927337041957  0.7658101526141576  0.2954918168770747  1.0000
  C   C139      1.0  0.26581034767180256  0.04393093120169302  0.7954897322757901  1.0000
  C   C140      1.0  0.8948541487685944  0.26576457460110003  0.7954620906891705  1.0000
  C   C141      1.0  0.0439306206620742  0.894816591671727  0.7954641194043289  1.0000
  C   C142      1.0  0.23423499620184876  0.6051469814983432  0.7045363715346936  1.0000
  C   C143      1.0  0.6051817773335841  0.45607042266835424  0.7045352115764699  1.0000
  C   C144      1.0  0.45606981570376354  0.2341907663517516  0.7045086686480175  1.0000
  N   N1        1.0  0.7278907222918604  0.7498631111845878  0.13616821033451745  1.0000
  N   N2        1.0  0.3860797483961917  0.7278767471077783  0.13616184394211225  1.0000
  N   N3        1.0  0.7498250545311363  0.38608173515817173  0.13619165317557966  1.0000
  N   N4        1.0  0.7721232840089558  0.11391921973640948  0.3638381080346491  1.0000
  N   N5        1.0  0.1139188006676193  0.750175560237103  0.3638075904520903  1.0000
  N   N6        1.0  0.7501359444434287  0.772110113818954  0.3638325553481179  1.0000
  N   N7        1.0  0.2721092399566061  0.2501360312707062  0.8638319412713571  1.0000
  N   N8        1.0  0.6139209162281957  0.27212275448679435  0.8638389109709834  1.0000
  N   N9        1.0  0.25017561015718576  0.6139184091139211  0.8638079475217211  1.0000
  N   N10       1.0  0.22787808306217977  0.8860806410685168  0.6361613572463227  1.0000
  N   N11       1.0  0.8860818640669307  0.24982522669473164  0.636191329264257  1.0000
  N   N12       1.0  0.24986191072444794  0.22789180694596914  0.6361678525032346  1.0000
  N   N13       1.0  0.6278610185771142  0.15210216686416084  0.2954950860714689  1.0000
  N   N14       1.0  0.9245091196221366  0.627905336537019  0.29550111866737444  1.0000
  N   N15       1.0  0.1520834528647654  0.9245454385827185  0.29548769004701103  1.0000
  N   N16       1.0  0.8720938048228177  0.5754914633285749  0.20449829544234188  1.0000
  N   N17       1.0  0.5754565271822044  0.3479148916179966  0.2045132389215283  1.0000
  N   N18       1.0  0.34789728765176153  0.8721388017293064  0.20450666171511506  1.0000
  N   N19       1.0  0.37213894361430283  0.8478956903071757  0.7045054810266507  1.0000
  N   N20       1.0  0.0754908427187786  0.37209509123776735  0.7044976709765862  1.0000
  N   N21       1.0  0.8479144022283548  0.07545519688049038  0.7045136065314209  1.0000
  N   N22       1.0  0.1279047526885364  0.42450888870301634  0.7955019192500857  1.0000
  N   N23       1.0  0.424544137420554  0.6520833247281598  0.7954869850141364  1.0000
  N   N24       1.0  0.6521026746075193  0.12786098335018897  0.7954937553794821  1.0000
  O   O1        1.0  0.8870141714381105  0.912501262638905  0.0001698038086388411  1.0000
  O   O2        1.0  0.20027773381983852  0.8869967621761388  0.00016275167218536465  1.0000
  O   O3        1.0  0.9124976534415126  0.2002830037007611  0.00017318366287359825  1.0000
  O   O4        1.0  0.6130075733737994  0.29972516225073076  0.4998359436930214  1.0000
  O   O5        1.0  0.2997178901642741  0.5874977703283619  0.49982432496359763  1.0000
  O   O6        1.0  0.5874929482380865  0.6129906424596709  0.4998284026294115  1.0000
  O   O7        1.0  0.11298508851310629  0.08750009120947769  0.9998298599752147  1.0000
  O   O8        1.0  0.7997236332335973  0.113003098611017  0.999837186843628  1.0000
  O   O9        1.0  0.08750230887088858  0.7997167814320532  0.9998258137272058  1.0000
  O   O10       1.0  0.3869930912505879  0.700274339343835  0.5001648112200741  1.0000
  O   O11       1.0  0.7002806673578944  0.4125032243274305  0.5001761552175452  1.0000
  O   O12       1.0  0.4125063116846092  0.3870100687467397  0.500171468900561  1.0000
  O   O13       1.0  0.8299108040957108  0.9450030227443021  0.9109426577296417  1.0000
  O   O14       1.0  0.3141022413753872  0.8298689440928582  0.9109469181854307  1.0000
  O   O15       1.0  0.9450158618298232  0.31412420279531966  0.9109484647487776  1.0000
  O   O16       1.0  0.6701313059752676  0.1858971677626258  0.5890518744710606  1.0000
  O   O17       1.0  0.1858755496537512  0.5549835512450085  0.5890509671496389  1.0000
  O   O18       1.0  0.5549983328522714  0.6700886679553403  0.5890578094235438  1.0000
  O   O19       1.0  0.17008845576993536  0.054996403178144165  0.08905762929256869  1.0000
  O   O20       1.0  0.6858984232952282  0.17013120016146366  0.08905315574671134  1.0000
  O   O21       1.0  0.0549841005042069  0.6858768675859038  0.08905106361873995  1.0000
  O   O22       1.0  0.3298700610171963  0.8141001225099344  0.4109474753247113  1.0000
  O   O23       1.0  0.8141237102118951  0.44501587467743753  0.4109493198725716  1.0000
  O   O24       1.0  0.44500162945323757  0.32991175978390413  0.4109419266900929  1.0000
  O   O25       1.0  0.8502037710683722  0.7779008482545747  0.12024934894854766  1.0000
  O   O26       1.0  0.25163760705478916  0.8501973586893212  0.12024218000631481  1.0000
  O   O27       1.0  0.7778837719349098  0.25161777553731934  0.12028776757261278  1.0000
  O   O28       1.0  0.6498021359654159  0.24836213943576976  0.379757682512853  1.0000
  O   O29       1.0  0.24838154573281196  0.7221165123391626  0.3797119826288051  1.0000
  O   O30       1.0  0.7220991384419478  0.6497961133399311  0.37974953464633643  1.0000
  O   O31       1.0  0.14979478643216743  0.22209886115280847  0.8797506002551572  1.0000
  O   O32       1.0  0.748361652931834  0.1498039951946026  0.8797565373078554  1.0000
  O   O33       1.0  0.22211689277801128  0.7483817261460998  0.8797106211663036  1.0000
  O   O34       1.0  0.3501978262938649  0.7516376456437256  0.6202427345817368  1.0000
  O   O35       1.0  0.7516184165549902  0.27788391538231133  0.6202882267196658  1.0000
  O   O36       1.0  0.27789871675052774  0.35020516483633185  0.6202496612466246  1.0000
  O   O37       1.0  0.808030890901257  0.9677208789112507  0.1570782419161178  1.0000
  O   O38       1.0  0.0671487342652668  0.8080456903514558  0.157066070180626  1.0000
  O   O39       1.0  0.9677562026305395  0.06714862512357198  0.1570733541909205  1.0000
  O   O40       1.0  0.6919533868952853  0.4328515647129974  0.3429346888761274  1.0000
  O   O41       1.0  0.4328530920895232  0.5322420096035568  0.34292678095242485  1.0000
  O   O42       1.0  0.5322797105671455  0.691967312455766  0.3429223997272997  1.0000
  O   O43       1.0  0.19196907143277286  0.0322801914699724  0.8429212864514  1.0000
  O   O44       1.0  0.9328498231929672  0.19195466162681626  0.8429355642163116  1.0000
  O   O45       1.0  0.0322430573669052  0.9328533713845598  0.8429256286119722  1.0000
  O   O46       1.0  0.3080451706445899  0.5671494299605652  0.6570653180701811  1.0000
  O   O47       1.0  0.5671475726165057  0.4677581346862991  0.6570723465100485  1.0000
  O   O48       1.0  0.46772095410347  0.3080328317985489  0.6570776742048423  1.0000
  O   O49       1.0  0.7147183559779221  0.889315322651782  0.21368239270611175  1.0000
  O   O50       1.0  0.18223742380912705  0.7147313501981569  0.21366602468420132  1.0000
  O   O51       1.0  0.8893243628172555  0.18224961273814  0.21368205565136117  1.0000
  O   O52       1.0  0.7852688052886165  0.31776399690913565  0.2863340323613741  1.0000
  O   O53       1.0  0.3177498746498629  0.6106760414409248  0.286319029668107  1.0000
  O   O54       1.0  0.6106824576051152  0.785279976015509  0.28631958801776136  1.0000
  O   O55       1.0  0.28528160624594523  0.1106844623921717  0.7863189708581543  1.0000
  O   O56       1.0  0.8177632408614881  0.285268794056158  0.786334049247941  1.0000
  O   O57       1.0  0.11067700420765898  0.8177496054070372  0.7863180906105641  1.0000
  O   O58       1.0  0.21473115696377218  0.6822364307767969  0.7136671234567729  1.0000
  O   O59       1.0  0.6822500876733527  0.38932438631609056  0.7136802332106953  1.0000
  O   O60       1.0  0.3893160998954243  0.21471973339187403  0.7136803611859435  1.0000
  O   O61       1.0  0.7693095478842196  0.10153984727214996  0.22105396862986035  1.0000
  O   O62       1.0  0.9080785122299203  0.7693559591703616  0.2210337374409549  1.0000
  O   O63       1.0  0.10151525545116868  0.9080948876701167  0.22102782851209207  1.0000
  O   O64       1.0  0.7306434700336127  0.5919205511142136  0.2789665411389706  1.0000
  O   O65       1.0  0.5919038706272063  0.3984855353852123  0.2789714520996681  1.0000
  O   O66       1.0  0.39846179238370627  0.7306890709760764  0.2789460499263754  1.0000
  O   O67       1.0  0.23069041430030518  0.8984586525056242  0.7789473371918164  1.0000
  O   O68       1.0  0.0919207476396551  0.23064475198273005  0.7789675537935282  1.0000
  O   O69       1.0  0.8984825996773721  0.09190574782862636  0.7789725215966642  1.0000
  O   O70       1.0  0.2693557898389258  0.40807823220180217  0.7210330071596829  1.0000
  O   O71       1.0  0.4080953893417174  0.6015158184809408  0.7210277384493436  1.0000
  O   O72       1.0  0.6015388722475734  0.26930978801205896  0.7210539662631703  1.0000
  O   O73       1.0  0.9782700772247493  0.9782690176458072  0.06514791823310877  1.0000
  O   O74       1.0  0.5217307566168685  0.5217302559680732  0.4348532519054801  1.0000
  O   O75       1.0  0.021729884970589797  0.021730124756174994  0.9348536530772833  1.0000
  O   O76       1.0  0.47826990802522557  0.4782692456442702  0.5651470297727812  1.0000
