data_image0
_chemical_formula_structural       Cu12H42C72N24
_chemical_formula_sum              "Cu12 H42 C72 N24"
_cell_length_a       20.98491819359611
_cell_length_b       21.72193134712461
_cell_length_c       21.913233824189447
_cell_angle_alpha    91.75724810588999
_cell_angle_beta     90.81485057019957
_cell_angle_gamma    93.80010699556411

_space_group_name_H-M_alt    "P 1"
_space_group_IT_number       1

loop_
  _space_group_symop_operation_xyz
  'x, y, z'

loop_
  _atom_site_type_symbol
  _atom_site_label
  _atom_site_symmetry_multiplicity
  _atom_site_fract_x
  _atom_site_fract_y
  _atom_site_fract_z
  _atom_site_occupancy
  Cu  Cu1       1.0  0.1794130998833907  0.2082625912675411  0.9072272671742213  1.0000
  Cu  Cu2       1.0  0.1131885697318538  0.2525837892894528  0.7907289396075684  1.0000
  Cu  Cu3       1.0  0.22847034906936867  0.16539332757209724  0.779056958753884  1.0000
  Cu  Cu4       1.0  0.24284316572775574  0.7833300807755847  0.13547865883717242  1.0000
  Cu  Cu5       1.0  0.1412202338603947  0.7732285686770055  0.2429770623045258  1.0000
  Cu  Cu6       1.0  0.22313481232606588  0.8981692719208069  0.2163723288052496  1.0000
  Cu  Cu7       1.0  0.7590502514574096  0.1996195463943948  0.1257477308395281  1.0000
  Cu  Cu8       1.0  0.8610581336824339  0.2078219238794006  0.2333091263279812  1.0000
  Cu  Cu9       1.0  0.8087075912859517  0.07888332922516379  0.17598796108184445  1.0000
  Cu  Cu10      1.0  0.7853735528715616  0.759256195539265  0.8607405090636818  1.0000
  Cu  Cu11      1.0  0.9126714031649001  0.8113354528342923  0.8079649670428708  1.0000
  Cu  Cu12      1.0  0.7806557754924054  0.8522625343811825  0.7538611046239794  1.0000
  H   H1        1.0  0.0909609627343002  0.26717666454024414  0.0087120568913264  1.0000
  H   H2        1.0  0.0368724501685591  0.3648433974607315  0.8486564707516778  1.0000
  H   H3        1.0  0.3522301750196988  0.0962709992507271  0.8181907828321189  1.0000
  H   H4        1.0  0.2617840502507888  0.1277002132725613  0.9917611397018151  1.0000
  H   H5        1.0  0.022375065355760206  0.19341174822875473  0.6883177957042221  1.0000
  H   H6        1.0  0.18468072292164087  0.0826520892639024  0.6658545242486795  1.0000
  H   H7        1.0  0.1770502299790451  0.6907914609781823  0.0399174790816232  1.0000
  H   H8        1.0  0.04515626472732491  0.6669591187800563  0.188564930548722  1.0000
  H   H9        1.0  0.2937037280627521  0.0009146304422599988  0.13411455542201622  1.0000
  H   H10       1.0  0.3522669141129668  0.832920651476705  0.04644331606888131  1.0000
  H   H11       1.0  0.05881368673372827  0.8175703455338732  0.3557788354885361  1.0000
  H   H12       1.0  0.15538386585721034  0.989242609744522  0.3025172505968428  1.0000
  H   H13       1.0  0.7985596675523398  0.31643927052710547  0.05468138871094651  1.0000
  H   H14       1.0  0.9479588179140775  0.3234372391956484  0.19308750789482332  1.0000
  H   H15       1.0  0.7420836331191226  0.980000682229594  0.07874491591385181  1.0000
  H   H16       1.0  0.6441254858550777  0.1436344906249474  0.0383694757130471  1.0000
  H   H17       1.0  0.926825703242386  0.16402087414660826  0.3570858797440266  1.0000
  H   H18       1.0  0.8856129843139015  0.9905660801241107  0.257269738530681  1.0000
  H   H19       1.0  0.8315296707786857  0.6428136179006855  0.9328661027575224  1.0000
  H   H20       1.0  0.011455930435047898  0.7381593138934263  0.8869287223205334  1.0000
  H   H21       1.0  0.6575477376295497  0.9200819917255241  0.7837577920568678  1.0000
  H   H22       1.0  0.6798594379595998  0.8112568664802706  0.9437434133349286  1.0000
  H   H23       1.0  0.007149527826733506  0.9082548214031545  0.742475346647801  1.0000
  H   H24       1.0  0.8321897550380442  0.9290995773404159  0.6404602448656362  1.0000
  H   H25       1.0  0.9375768115893165  0.9370835127783083  0.5500832647066503  1.0000
  H   H26       1.0  0.0708685588762066  0.09540213079289118  0.5354926371325774  1.0000
  H   H27       1.0  0.9315183642151792  0.07189973835317429  0.45239284801321844  1.0000
  H   H28       1.0  0.0740920380760315  0.9395097045168656  0.4702534974396217  1.0000
  H   H29       1.0  0.012220561429686  0.0347846633662741  0.7123991730079597  1.0000
  H   H30       1.0  0.005554577638655185  0.9837504948745985  0.2920496677907849  1.0000
  H   H31       1.0  0.9065660028958433  0.46696397531665906  0.09482261953966291  1.0000
  H   H32       1.0  0.039397916123654377  0.45688390947942265  0.947251790315953  1.0000
  H   H33       1.0  0.050962797924491085  0.5409501897274536  0.09373896584431661  1.0000
  H   H34       1.0  0.9190577875692936  0.548031338035095  0.942146502027093  1.0000
  H   H35       1.0  0.9653684004034133  0.29063151888480115  0.030589539558846503  1.0000
  H   H36       1.0  0.02833221525112611  0.7129578464424852  0.006684489675066601  1.0000
  H   H37       1.0  0.4560004695284546  0.9228928831762883  0.02589730583959241  1.0000
  H   H38       1.0  0.4494649577762074  0.065742647238288  0.8945117911022535  1.0000
  H   H39       1.0  0.5218595029907291  0.9103860408477757  0.8811301529429301  1.0000
  H   H40       1.0  0.5493981045916385  0.0551703233062995  0.019589704123596598  1.0000
  H   H41       1.0  0.28658481564861654  0.021818755917585995  0.0071173572755683  1.0000
  H   H42       1.0  0.7087840773099143  0.955168379392489  0.9605259797374401  1.0000
  C   C1        1.0  0.08391569134682442  0.28441390301007624  0.9632962953926594  1.0000
  C   C2        1.0  0.046759498270667194  0.3320943558857721  0.9447550521464265  1.0000
  C   C3        1.0  0.0572612989149945  0.33532677009272055  0.8818160326593798  1.0000
  C   C4        1.0  0.32370367409711054  0.11101018703468667  0.8562184991501242  1.0000
  C   C5        1.0  0.32543990634319897  0.09407251239735358  0.9174843593559457  1.0000
  C   C6        1.0  0.27659235759522005  0.12614028569281996  0.9445111692617872  1.0000
  C   C7        1.0  0.0684262088120633  0.1734405913538808  0.6893506868620634  1.0000
  C   C8        1.0  0.08718062071752539  0.1195277267674015  0.6599398657646418  1.0000
  C   C9        1.0  0.1513481391826588  0.11710531790514267  0.6776112428680108  1.0000
  C   C10       1.0  0.15183365455565223  0.6913907041281745  0.08282692735672012  1.0000
  C   C11       1.0  0.09208767821075982  0.6632564648922425  0.09694320923713212  1.0000
  C   C12       1.0  0.08494004493012139  0.6785089439301045  0.1589577006084468  1.0000
  C   C13       1.0  0.3016717153796549  0.9538302598215861  0.1196613574151897  1.0000
  C   C14       1.0  0.3367254235983808  0.9323370589246809  0.0702356731797806  1.0000
  C   C15       1.0  0.33287716863593886  0.868078643309488  0.07569923160148313  1.0000
  C   C16       1.0  0.0896107075051873  0.853985798608342  0.33668372280137504  1.0000
  C   C17       1.0  0.08936169337751207  0.9180722849219618  0.34567449644785603  1.0000
  C   C18       1.0  0.1385692533711804  0.9415287282424034  0.3087006354708848  1.0000
  C   C19       1.0  0.8286792273017198  0.3111567972086532  0.0945965715775685  1.0000
  C   C20       1.0  0.8891787081003598  0.3393367397733869  0.10902411951322222  1.0000
  C   C21       1.0  0.9050162311762974  0.31454288784708945  0.16512013164267364  1.0000
  C   C22       1.0  0.7252734339032899  0.025999961771049098  0.07560014189355263  1.0000
  C   C23       1.0  0.6758616458809498  0.046500536164877794  0.0391428006650827  1.0000
  C   C24       1.0  0.6742127902652797  0.10925506762428938  0.055953449160853104  1.0000
  C   C25       1.0  0.9102761956398098  0.12659629868979042  0.3256172384598344  1.0000
  C   C26       1.0  0.9223036548262299  0.06389096014881089  0.3262302849839216  1.0000
  C   C27       1.0  0.8902795750043424  0.038276969883149485  0.2738362270137102  1.0000
  C   C28       1.0  0.8701291066705537  0.6722345730060507  0.9147257728978602  1.0000
  C   C29       1.0  0.9360688341411528  0.672780059100475  0.9265355540801393  1.0000
  C   C30       1.0  0.961917580841174  0.721806326938001  0.8923788828671277  1.0000
  C   C31       1.0  0.6692826719991842  0.8866665379527278  0.8172783488399135  1.0000
  C   C32       1.0  0.6502566207392206  0.8821772150370817  0.8780923832632581  1.0000
  C   C33       1.0  0.6814902759079118  0.8315614977932949  0.8990771886389693  1.0000
  C   C34       1.0  0.958594578971308  0.9067155454346576  0.724452416459002  1.0000
  C   C35       1.0  0.9344140111034349  0.9372029801801887  0.6744720543360785  1.0000
  C   C36       1.0  0.8696814440594521  0.9163701729765915  0.6713184741554842  1.0000
  C   C37       1.0  0.9671603813298403  0.9749852098504376  0.5718879343184683  1.0000
  C   C38       1.0  0.0033389800620539996  0.015771131899128897  0.535749013722544  1.0000
  C   C39       1.0  0.04247884816839329  0.06377932685433758  0.5636630148756083  1.0000
  C   C40       1.0  0.04597805237657579  0.07087227876182568  0.6273947526809849  1.0000
  C   C41       1.0  0.0097042776524248  0.029215253947739894  0.6627618579344913  1.0000
  C   C42       1.0  0.9700909980249437  0.9810246879001311  0.6358361218504528  1.0000
  C   C43       1.0  0.0025852088996174  0.006560832395443597  0.46811060873167076  1.0000
  C   C44       1.0  0.9632107594095273  0.039948003628367694  0.431149088342636  1.0000
  C   C45       1.0  0.962975099525323  0.0312671915937628  0.3674096993819305  1.0000
  C   C46       1.0  0.003955796879395697  0.9895934612486311  0.3416236197442757  1.0000
  C   C47       1.0  0.0442166462212157  0.9563573977548356  0.377724507182542  1.0000
  C   C48       1.0  0.042572704709719696  0.9644438543239316  0.44132286371318236  1.0000
  C   C49       1.0  0.934214317149589  0.43956438383415264  0.06361775105796852  1.0000
  C   C50       1.0  0.9730938084031421  0.4689466209710316  0.02016324733332911  1.0000
  C   C51       1.0  0.008239704696698906  0.4335619779537864  0.9800030119837473  1.0000
  C   C52       1.0  0.006964368040698292  0.36917106423698687  0.9837972752490816  1.0000
  C   C53       1.0  0.9680748796771466  0.34078553970388004  0.0277023665449292  1.0000
  C   C54       1.0  0.9310012953410407  0.3750877362176084  0.06717395611514121  1.0000
  C   C55       1.0  0.9831817876555603  0.5373971408586371  0.018412080825484605  1.0000
  C   C56       1.0  0.027862472780825  0.5674323826730187  0.05928611579596321  1.0000
  C   C57       1.0  0.045278452579701395  0.6304567504016274  0.0546433061483285  1.0000
  C   C58       1.0  0.016242976900500104  0.6634735192815879  0.009184114019781503  1.0000
  C   C59       1.0  0.9693345215430539  0.6350207026954705  0.9694743349773418  1.0000
  C   C60       1.0  0.953683916623106  0.5714144636069702  0.9741076264078362  1.0000
  C   C61       1.0  0.4292882716661239  0.9571259568847238  0.002959430679482003  1.0000
  C   C62       1.0  0.45906000257716767  0.9921693545462135  0.9574784831114302  1.0000
  C   C63       1.0  0.4259025778693157  0.03758495281152819  0.9290981462205465  1.0000
  C   C64       1.0  0.3633956811708359  0.048836130824803085  0.946843874481992  1.0000
  C   C65       1.0  0.33548391198135624  0.014434619721150498  0.993893255524803  1.0000
  C   C66       1.0  0.36763546790071894  0.9683385360339611  0.022179904222561195  1.0000
  C   C67       1.0  0.5287012776929886  0.9847791008194946  0.9496419032245029  1.0000
  C   C68       1.0  0.5534587024383981  0.9389402110661039  0.9120796481001961  1.0000
  C   C69       1.0  0.6186438622556523  0.9281905767843595  0.9160807263703816  1.0000
  C   C70       1.0  0.6581227489000057  0.9634680131885317  0.9580808594649995  1.0000
  C   C71       1.0  0.6345839122153832  0.010357992640628293  0.9949787786160441  1.0000
  C   C72       1.0  0.5695831379289658  0.020757316774556497  0.9895957048352103  1.0000
  N   N1        1.0  0.0975180273773972  0.29238293165290946  0.8641746916526787  1.0000
  N   N2        1.0  0.11457730369071578  0.2612293203644425  0.9150080137750152  1.0000
  N   N3        1.0  0.24772564232694796  0.15918546837688297  0.9024613538880432  1.0000
  N   N4        1.0  0.2767259271319489  0.14966107945726037  0.847371456889185  1.0000
  N   N5        1.0  0.16940490771172276  0.16567167107550057  0.7156242697938994  1.0000
  N   N6        1.0  0.1177539958984894  0.20085599100140422  0.72271239077012  1.0000
  N   N7        1.0  0.1365084040536786  0.7139806565229775  0.18016807461869894  1.0000
  N   N8        1.0  0.17829237060180958  0.7214611230551708  0.1328653430229849  1.0000
  N   N9        1.0  0.2972856929122258  0.8523056800895359  0.12442541728906782  1.0000
  N   N10       1.0  0.2784432516628214  0.9057208437679376  0.1519949036144439  1.0000
  N   N11       1.0  0.1659758254842245  0.8948445966449154  0.27943324932034136  1.0000
  N   N12       1.0  0.1354325744174787  0.8402752214946857  0.2964112064924862  1.0000
  N   N13       1.0  0.8574916680241386  0.27393383822300876  0.1825551640981686  1.0000
  N   N14       1.0  0.8099329144665076  0.2718020189372652  0.1385786940203673  1.0000
  N   N15       1.0  0.71950670207746  0.12495125021822416  0.0989979488221593  1.0000
  N   N16       1.0  0.7509370758209997  0.07307041922208408  0.11149426983834593  1.0000
  N   N17       1.0  0.8614580908035167  0.08246612388347067  0.24417007262849216  1.0000
  N   N18       1.0  0.874233845493549  0.1375779451967034  0.2759620991707408  1.0000
  N   N19       1.0  0.91478303021087  0.7484501578858344  0.8626370526638354  1.0000
  N   N20       1.0  0.8576382698749894  0.7180088318485855  0.8768767716295259  1.0000
  N   N21       1.0  0.7170360268715896  0.8080102326643085  0.8541914645071744  1.0000
  N   N22       1.0  0.7098997884961022  0.8425541798990677  0.8032392881540248  1.0000
  N   N23       1.0  0.8562716976007536  0.876659252813951  0.7164000622609735  1.0000
  N   N24       1.0  0.9117792222477586  0.8703117531374854  0.749097554237558  1.0000
