data_image0
_chemical_formula_structural       Dy2H22C30O18
_chemical_formula_sum              "Dy2 H22 C30 O18"
_cell_length_a       8.992260882264018
_cell_length_b       9.740377914893836
_cell_length_c       12.864160114399123
_cell_angle_alpha    68.44154568785684
_cell_angle_beta     85.21814371584131
_cell_angle_gamma    60.73530762590281

_space_group_name_H-M_alt    "P 1"
_space_group_IT_number       1

loop_
  _space_group_symop_operation_xyz
  'x, y, z'

loop_
  _atom_site_type_symbol
  _atom_site_label
  _atom_site_symmetry_multiplicity
  _atom_site_fract_x
  _atom_site_fract_y
  _atom_site_fract_z
  _atom_site_occupancy
  Dy  Dy1       1.0  0.7461778723303354  0.5516439833819147  0.4808725649985206  1.0000
  Dy  Dy2       1.0  0.2538257889575847  0.44835458855730775  0.51912662990253  1.0000
  H   H1        1.0  0.3700003329017392  0.7601133088698333  0.5032024154539343  1.0000
  H   H2        1.0  0.6299985348607606  0.2398929551612454  0.4967934459445118  1.0000
  H   H3        1.0  0.4361387068396426  0.8668177763827314  0.4058742978815815  1.0000
  H   H4        1.0  0.5638577052037307  0.1331909312802679  0.5941241433315625  1.0000
  H   H5        1.0  0.8717980767849697  0.6467559834620499  0.6370004402106417  1.0000
  H   H6        1.0  0.12819420552968105  0.3532565408722944  0.36299795813331315  1.0000
  H   H7        1.0  0.6667945966181251  0.7728441029635105  0.6007445953030341  1.0000
  H   H8        1.0  0.33319963838060573  0.22717600364569526  0.3992502618478966  1.0000
  H   H9        1.0  0.3533459291582943  0.40222949553079707  0.8620692316829093  1.0000
  H   H10       1.0  0.6466702816921313  0.5977465481979392  0.1379258853205131  1.0000
  H   H11       1.0  0.43112071510356037  0.34127880780577863  0.06286645680330591  1.0000
  H   H12       1.0  0.5688884880481454  0.6586632018894817  0.9371413997271033  1.0000
  H   H13       1.0  0.735565591439901  0.22587016541515229  0.1319487547824494  1.0000
  H   H14       1.0  0.2644401944574783  0.7740917337984496  0.8680627500797299  1.0000
  H   H15       1.0  0.9607548647667419  0.16525996561570364  0.001595025744805416  1.0000
  H   H16       1.0  0.03925428080760456  0.8347323927374999  0.9984008808460487  1.0000
  H   H17       1.0  0.23113062041145607  0.9385939543274727  0.5758553685094583  1.0000
  H   H18       1.0  0.7688600303570965  0.06140606002185929  0.4241446937774143  1.0000
  H   H19       1.0  0.8909619391178935  0.7721396097273824  0.7635204713607067  1.0000
  H   H20       1.0  0.10902697404215195  0.2278869093687347  0.2364721722421379  1.0000
  H   H21       1.0  0.7892193434689221  0.997542093626734  0.8415675028503314  1.0000
  H   H22       1.0  0.2107727996048112  0.002470260221144801  0.1584356113721554  1.0000
  C   C1        1.0  0.5534897713164499  0.3733041807528109  0.6984522569051919  1.0000
  C   C2        1.0  0.4465198619864169  0.6267060029857345  0.301533679871099  1.0000
  C   C3        1.0  0.6099530840325259  0.3238065680726905  0.8193675990101567  1.0000
  C   C4        1.0  0.3900440633067461  0.6762010121690024  0.1806272116639036  1.0000
  C   C5        1.0  0.4856967342588023  0.3509274816359208  0.8945547954891282  1.0000
  C   C6        1.0  0.5143054077596292  0.649053396878429  0.10545125992253902  1.0000
  C   C7        1.0  0.5296803429936716  0.315877634111743  0.006266824135750023  1.0000
  C   C8        1.0  0.4703224586786518  0.6840768147874812  0.9937451126155068  1.0000
  C   C9        1.0  0.700107469880699  0.25168262587114737  0.04514656079218329  1.0000
  C   C10       1.0  0.29989746637277653  0.7482743071063068  0.954864673394475  1.0000
  C   C11       1.0  0.8262894753749848  0.2192379610960487  0.9727919750649292  1.0000
  C   C12       1.0  0.17371466198368088  0.7807452310100728  0.027218093660671714  1.0000
  C   C13       1.0  0.7810963051003413  0.253635397530992  0.8615009126512448  1.0000
  C   C14       1.0  0.2188981563303544  0.7463770049544534  0.13849977440183642  1.0000
  C   C15       1.0  0.9526457863891052  0.09564701726260685  0.7511951594568913  1.0000
  C   C16       1.0  0.047342851853940805  0.9043758720311245  0.24879452155639825  1.0000
  C   C17       1.0  0.0769150101873279  0.07866329300212979  0.6754399927336081  1.0000
  C   C18       1.0  0.923097251338007  0.921326035128082  0.32456901902258295  1.0000
  C   C19       1.0  0.13389769489067072  0.9506700027252603  0.6335752858320376  1.0000
  C   C20       1.0  0.8660897918271573  0.049338936603625386  0.3664210743623926  1.0000
  C   C21       1.0  0.06624220447854895  0.8405616033490939  0.66319165587106  1.0000
  C   C22       1.0  0.9337461086763668  0.1594522738015272  0.336805760978649  1.0000
  C   C23       1.0  0.941959110766028  0.8592706108906182  0.7384861980539342  1.0000
  C   C24       1.0  0.05803340193072872  0.1407481491732412  0.2615121716058511  1.0000
  C   C25       1.0  0.884968367242614  0.985253433412268  0.7826258890186536  1.0000
  C   C26       1.0  0.11504393901027038  0.014741903132168895  0.217389381891401  1.0000
  C   C27       1.0  0.13836037657220862  0.2043290028994703  0.632014896477081  1.0000
  C   C28       1.0  0.8616489046782194  0.7956668147696389  0.36798868858186046  1.0000
  C   C29       1.0  0.12269392737003684  0.7095429330947168  0.6139645374881085  1.0000
  C   C30       1.0  0.8772936969026193  0.29047212830603536  0.3860349379411758  1.0000
  O   O1        1.0  0.6287272090192816  0.4324405630820961  0.6221047254429733  1.0000
  O   O2        1.0  0.3712902448828573  0.5675727245372427  0.3778949353339555  1.0000
  O   O3        1.0  0.4282080091795493  0.35589887233794554  0.6801539550598221  1.0000
  O   O4        1.0  0.5717931984606394  0.6441134203305054  0.31984652430283944  1.0000
  O   O5        1.0  0.9138716735420969  0.21633189907373662  0.7944125722038963  1.0000
  O   O6        1.0  0.08613517914616874  0.7836803304949737  0.20558694810367228  1.0000
  O   O7        1.0  0.025075878132021518  0.3620041025707223  0.5834411503820932  1.0000
  O   O8        1.0  0.9749342991759492  0.6379967381633519  0.41656113339286094  1.0000
  O   O9        1.0  0.2960673437909732  0.15819900878334184  0.6363962202372164  1.0000
  O   O10       1.0  0.7039318626800939  0.8417943676841159  0.36361066763107175  1.0000
  O   O11       1.0  0.2253883558214227  0.7022399444630025  0.5382574380557372  1.0000
  O   O12       1.0  0.7745934645202656  0.29777169230717954  0.4617361039403178  1.0000
  O   O13       1.0  0.06916593744036709  0.6022280959074989  0.6452826260971563  1.0000
  O   O14       1.0  0.930839059148582  0.3977819905559129  0.3547081650179393  1.0000
  O   O15       1.0  0.46350514052741726  0.7908856930801487  0.4846891174962381  1.0000
  O   O16       1.0  0.5364944142386036  0.20911672394483816  0.5153092485558659  1.0000
  O   O17       1.0  0.7594051712883926  0.6565512074883698  0.6195633265595931  1.0000
  O   O18       1.0  0.24058628853931927  0.3434703188775145  0.3804281565427558  1.0000
