data_image0
_chemical_formula_structural       Cd2H52C76N4O8
_chemical_formula_sum              "Cd2 H52 C76 N4 O8"
_cell_length_a       10.156719219154574
_cell_length_b       11.725744252140611
_cell_length_c       14.164223473860645
_cell_angle_alpha    98.15189219528787
_cell_angle_beta     102.72185270983977
_cell_angle_gamma    109.1180310104748

_space_group_name_H-M_alt    "P 1"
_space_group_IT_number       1

loop_
  _space_group_symop_operation_xyz
  'x, y, z'

loop_
  _atom_site_type_symbol
  _atom_site_label
  _atom_site_symmetry_multiplicity
  _atom_site_fract_x
  _atom_site_fract_y
  _atom_site_fract_z
  _atom_site_occupancy
  Cd  Cd1       1.0  0.26822965095396956  0.9307763063446328  0.9003947671267769  1.0000
  Cd  Cd2       1.0  0.7317680660294671  0.0692178473696643  0.09960784955063673  1.0000
  H   H1        1.0  0.08835205566298746  0.31350951871792176  0.9605365830141039  1.0000
  H   H2        1.0  0.9116385901593915  0.6864846031948911  0.03946278222898056  1.0000
  H   H3        1.0  0.43441195707070085  0.3772767608058416  0.8180177762155908  1.0000
  H   H4        1.0  0.5655814688578857  0.6227191886386976  0.18198719744619044  1.0000
  H   H5        1.0  0.46160583730915744  0.8896032450921961  0.6451574903796599  1.0000
  H   H6        1.0  0.5383986787551082  0.11040208206680545  0.3548447467147896  1.0000
  H   H7        1.0  0.4278659810234728  0.16550029220766047  0.8305244881161472  1.0000
  H   H8        1.0  0.5721300469823091  0.8344993820744192  0.1694806480271325  1.0000
  H   H9        1.0  0.8106706043819614  0.9581477473495638  0.9063245736942562  1.0000
  H   H10       1.0  0.1893287180807519  0.04185014229732789  0.09367592955827321  1.0000
  H   H11       1.0  0.02845371067976995  0.4392266386475611  0.8541661204228747  1.0000
  H   H12       1.0  0.971540190488568  0.5607703299209916  0.145828462730222  1.0000
  H   H13       1.0  0.09856940509488511  0.10738251748864507  0.9683161081298834  1.0000
  H   H14       1.0  0.9014280916481566  0.892613484879547  0.031686698126016155  1.0000
  H   H15       1.0  0.8311090932309426  0.792029756741222  0.622777794155219  1.0000
  H   H16       1.0  0.1688898669729397  0.20796256763158277  0.3772233866527728  1.0000
  H   H17       1.0  0.044629956165102985  0.6579548570598985  0.8629487254725278  1.0000
  H   H18       1.0  0.9553700406720722  0.34204217873115533  0.13704401545067674  1.0000
  H   H19       1.0  0.49271796644310933  0.7897504165995668  0.9274051460738449  1.0000
  H   H20       1.0  0.5072847841181557  0.21024841631576405  0.0725967254653597  1.0000
  H   H21       1.0  0.7208943710498233  0.6517860010206035  0.4379632214686353  1.0000
  H   H22       1.0  0.2791110079707551  0.34821658713972425  0.5620352903547641  1.0000
  H   H23       1.0  0.4978493953557219  0.57762795692868  0.9195977585712855  1.0000
  H   H24       1.0  0.502149939835853  0.42236527101982085  0.08040641607779257  1.0000
  H   H25       1.0  0.4011658806722379  0.8498717739655602  0.32277802299575603  1.0000
  H   H26       1.0  0.5988417201614169  0.15013362937512648  0.6772183619075138  1.0000
  H   H27       1.0  0.6755900251039862  0.006146389415107498  0.45651301557759183  1.0000
  H   H28       1.0  0.32441628192100297  0.9938561085907905  0.5434969298651852  1.0000
  H   H29       1.0  0.18487873135298122  0.7570388364024511  0.44568933261782473  1.0000
  H   H30       1.0  0.8151211767093969  0.2429674498074944  0.5543045187858199  1.0000
  H   H31       1.0  0.44051978556507265  0.5786330426602574  0.6053909719557282  1.0000
  H   H32       1.0  0.5594771634376842  0.42136395951955313  0.39460269008242227  1.0000
  H   H33       1.0  0.8650042323684347  0.07270019568724  0.3688553283862035  1.0000
  H   H34       1.0  0.13500525395656368  0.9273097376948981  0.6311546168435741  1.0000
  H   H35       1.0  0.9166956365907382  0.7212026445354879  0.3569845200532741  1.0000
  H   H36       1.0  0.08330568216823045  0.2787999028641649  0.643014750297077  1.0000
  H   H37       1.0  0.3310297576049095  0.47850357985953434  0.36058487831732583  1.0000
  H   H38       1.0  0.6689723247827216  0.5215054667973504  0.6394131861213523  1.0000
  H   H39       1.0  0.2564889943325567  0.5099342120131067  0.69589293029415  1.0000
  H   H40       1.0  0.743509539043778  0.49006650177333466  0.30410143607696943  1.0000
  H   H41       1.0  0.9907547538269695  0.9334815079613815  0.32325974666958507  1.0000
  H   H42       1.0  0.009249345038206496  0.0665228669700042  0.6767451320994625  1.0000
  H   H43       1.0  0.2902165592653672  0.7675861143259863  0.1402540607176093  1.0000
  H   H44       1.0  0.7097854180387843  0.23241556097336508  0.8597395606218045  1.0000
  H   H45       1.0  0.006016308559807592  0.6955798310713275  0.5411927767917818  1.0000
  H   H46       1.0  0.9939835836732913  0.30442643689414683  0.4588031879302505  1.0000
  H   H47       1.0  0.23012285940488642  0.3963305212128459  0.17794331843536074  1.0000
  H   H48       1.0  0.7698720225321055  0.6036664180161891  0.822055653942499  1.0000
  H   H49       1.0  0.03922914819793986  0.5702286484062923  0.6652530069735436  1.0000
  H   H50       1.0  0.9607750350900233  0.42977582382894025  0.3347406007641212  1.0000
  H   H51       1.0  0.20610494505702084  0.5412745703385153  0.0671465986246602  1.0000
  H   H52       1.0  0.7938909756892727  0.45872240644740003  0.9328490141438908  1.0000
  C   C1        1.0  0.2621400935133167  0.36445771688693185  0.8893131876207578  1.0000
  C   C2        1.0  0.7378560263676874  0.6355373869191254  0.11068505332714551  1.0000
  C   C3        1.0  0.16555867083710746  0.28518867425758987  0.930201405096206  1.0000
  C   C4        1.0  0.8344354083602357  0.7148063970051483  0.069798623994096  1.0000
  C   C5        1.0  0.9751683441055474  0.862226778690811  0.8163674054539671  1.0000
  C   C6        1.0  0.024835243029912087  0.1377692848183898  0.1836342630115055  1.0000
  C   C7        1.0  0.6286285015782412  0.9292868186640746  0.780900507129971  1.0000
  C   C8        1.0  0.3713724390926175  0.07071014521702779  0.21910155409423032  1.0000
  C   C9        1.0  0.5476053871878008  0.9781612425967624  0.8424410918984366  1.0000
  C   C10       1.0  0.45239717696761533  0.0218348016000363  0.15756182285796433  1.0000
  C   C11       1.0  0.35909720549460633  0.32149983668389837  0.8528750860084103  1.0000
  C   C12       1.0  0.6409006873418263  0.6784970935859461  0.1471278963307299  1.0000
  C   C13       1.0  0.2632800736998249  0.49014423653162703  0.887782942423897  1.0000
  C   C14       1.0  0.7367162009284768  0.509853619504021  0.1122184819435859  1.0000
  C   C15       1.0  0.5664791684729522  0.8845383506467144  0.6779866877705203  1.0000
  C   C16       1.0  0.4335209409001379  0.11546138872200369  0.32201487208795504  1.0000
  C   C17       1.0  0.3566161460489639  0.20377687727877  0.8595338310947654  1.0000
  C   C18       1.0  0.6433815159942285  0.796221889481984  0.14047074970179105  1.0000
  C   C19       1.0  0.8311118544747559  0.8683912508671837  0.7692330551004789  1.0000
  C   C20       1.0  0.1688864630132088  0.1316019638504073  0.23077166140006977  1.0000
  C   C21       1.0  0.7611322870874773  0.921438661322803  0.8266124527502754  1.0000
  C   C22       1.0  0.23886644232315044  0.0785554995409186  0.1733903265151255  1.0000
  C   C23       1.0  0.637096009347715  0.8339183977267836  0.6189383937229496  1.0000
  C   C24       1.0  0.3628980751260613  0.16607667961744  0.3810609309278875  1.0000
  C   C25       1.0  0.13429351242401566  0.5139478216731703  0.871445970943846  1.0000
  C   C26       1.0  0.8657011651018467  0.4860509844542306  0.12855107769412655  1.0000
  C   C27       1.0  0.4340339770532466  0.7151720518611809  0.46399045083003193  1.0000
  C   C28       1.0  0.5659628884511321  0.2848342068190063  0.5360036172491078  1.0000
  C   C29       1.0  0.5757993516130782  0.787454437413494  0.509240058776257  1.0000
  C   C30       1.0  0.42419692083921495  0.21254809248352294  0.4907562853157543  1.0000
  C   C31       1.0  0.3253904994553523  0.6725328202660421  0.5193576241677322  1.0000
  C   C32       1.0  0.6746085953145382  0.3274715858146209  0.48063869282727734  1.0000
  C   C33       1.0  0.17116777269737327  0.16935131956885388  0.9353013000346524  1.0000
  C   C34       1.0  0.8288273294800135  0.8306437710062867  0.06469748276471414  1.0000
  C   C35       1.0  0.770897762173355  0.8280545132155692  0.6659623797873594  1.0000
  C   C36       1.0  0.22909652143511747  0.17193869114879584  0.3340395730428369  1.0000
  C   C37       1.0  0.14204593578329386  0.6352745872014225  0.8760816005550682  1.0000
  C   C38       1.0  0.8579520098173886  0.3647224038833342  0.12391433738945778  1.0000
  C   C39       1.0  0.3750067024653561  0.6699586391683923  0.3538916497130771  1.0000
  C   C40       1.0  0.6249942074713603  0.33004764202799913  0.6461037731574921  1.0000
  C   C41       1.0  0.3923896912353867  0.7091879124107264  0.9106520285994719  1.0000
  C   C42       1.0  0.6076116402524363  0.2908099732905356  0.08935091314742752  1.0000
  C   C43       1.0  0.6846573909581295  0.8242107248967515  0.45252825274870645  1.0000
  C   C44       1.0  0.3153424928981324  0.17579085704436886  0.5474742011277202  1.0000
  C   C45       1.0  0.7530103598547412  0.7444743599909529  0.4234405961126627  1.0000
  C   C46       1.0  0.24699054698156428  0.2555272412625769  0.5765606114728287  1.0000
  C   C47       1.0  0.3944972748818997  0.590705363699797  0.9061848271753236  1.0000
  C   C48       1.0  0.6055040302238055  0.4092924915940157  0.09382163676888673  1.0000
  C   C49       1.0  0.36270376348213756  0.7505065865203162  0.2909471118971396  1.0000
  C   C50       1.0  0.6372940933437334  0.24949965498332458  0.7090499365278334  1.0000
  C   C51       1.0  0.727833862936933  0.9432716679773064  0.43376655295362093  1.0000
  C   C52       1.0  0.2721708469856097  0.05673178012035148  0.5662390167596385  1.0000
  C   C53       1.0  0.20088414231876325  0.703249232166506  0.5010882969571784  1.0000
  C   C54       1.0  0.7991147977038224  0.29675242168457316  0.4989048366182516  1.0000
  C   C55       1.0  0.3440195614839253  0.6026884128747907  0.5902551007589879  1.0000
  C   C56       1.0  0.6559819278516202  0.39731690499892375  0.4097452396925547  1.0000
  C   C57       1.0  0.835736886792155  0.9817067803357064  0.38618009982189966  1.0000
  C   C58       1.0  0.16427605618952162  0.018299452860958396  0.613832771772721  1.0000
  C   C59       1.0  0.8635211059199791  0.7839979417657971  0.3779499131514755  1.0000
  C   C60       1.0  0.13648220075840103  0.21600457736226283  0.6220546134510911  1.0000
  C   C61       1.0  0.32403286893250527  0.5419369472939548  0.3119311190525238  1.0000
  C   C62       1.0  0.6759690428785562  0.4580693288888682  0.6880658752849556  1.0000
  C   C63       1.0  0.24103149027067158  0.5653695257483236  0.6418879055661862  1.0000
  C   C64       1.0  0.7589726613587402  0.4346349099979675  0.358109928808247  1.0000
  C   C65       1.0  0.9051528720679867  0.9024987801787743  0.3592687466570794  1.0000
  C   C66       1.0  0.0948576710716011  0.09750653514335277  0.6407408059204727  1.0000
  C   C67       1.0  0.3004536419259408  0.7041054255353456  0.1883267133986166  1.0000
  C   C68       1.0  0.6995460691777352  0.2958980597930817  0.8116695901011468  1.0000
  C   C69       1.0  0.10019220874115577  0.6685908385822615  0.5545614430093411  1.0000
  C   C70       1.0  0.899805687195695  0.3314107716304519  0.44543575461487  1.0000
  C   C71       1.0  0.2657430980936796  0.4957224092490122  0.20926352008901017  1.0000
  C   C72       1.0  0.7342564213277356  0.5042782812793973  0.7907345310674075  1.0000
  C   C73       1.0  0.11954290639234696  0.5988505955889636  0.6248208198874182  1.0000
  C   C74       1.0  0.8804656857628004  0.40115479057518383  0.37517854536168477  1.0000
  C   C75       1.0  0.2529575656937908  0.5768725809220214  0.14732401888994673  1.0000
  C   C76       1.0  0.7470433675246326  0.4231290507389573  0.852673666498241  1.0000
  N   N1        1.0  0.26883011027212683  0.7312978490376807  0.8966175164503626  1.0000
  N   N2        1.0  0.7311688372028938  0.26869913703351495  0.1033799929610808  1.0000
  N   N3        1.0  0.26608663930139187  0.12979602636282547  0.9011540941292538  1.0000
  N   N4        1.0  0.7339116549048654  0.8702018378901711  0.09884835985366892  1.0000
  O   O1        1.0  0.020187135745736287  0.8838461556972418  0.9116015430951097  1.0000
  O   O2        1.0  0.9798184213038469  0.11615453515727132  0.08840241466548796  1.0000
  O   O3        1.0  0.415167516407557  0.957769620437709  0.7988761033632203  1.0000
  O   O4        1.0  0.5848375896083837  0.0422347555616085  0.20112964243327977  1.0000
  O   O5        1.0  0.05047421316864127  0.8409890863884754  0.7601515314869759  1.0000
  O   O6        1.0  0.9495299903006115  0.159006056368483  0.2398501234832437  1.0000
  O   O7        1.0  0.6106111382966474  0.033999078877258185  0.9332408722766203  1.0000
  O   O8        1.0  0.38938519872434074  0.965989496332035  0.0667629638077187  1.0000
