data_image0
_chemical_formula_structural       Zn4H24C20N32
_chemical_formula_sum              "Zn4 H24 C20 N32"
_cell_length_a       4.7227679510303355
_cell_length_b       9.83045969238066
_cell_length_c       16.944406484306942
_cell_angle_alpha    90.00065945515239
_cell_angle_beta     89.99966510470325
_cell_angle_gamma    92.62654722839467

_space_group_name_H-M_alt    "P 1"
_space_group_IT_number       1

loop_
  _space_group_symop_operation_xyz
  'x, y, z'

loop_
  _atom_site_type_symbol
  _atom_site_label
  _atom_site_symmetry_multiplicity
  _atom_site_fract_x
  _atom_site_fract_y
  _atom_site_fract_z
  _atom_site_occupancy
  Zn  Zn1       1.0  0.7488166989196472  0.8932551540476651  0.35808979409217284  1.0000
  Zn  Zn2       1.0  0.2511805307991182  0.606748041841321  0.8580834026620604  1.0000
  Zn  Zn3       1.0  0.2511755437012866  0.10674681105353302  0.6419122019027836  1.0000
  Zn  Zn4       1.0  0.7488157791594006  0.3932528451260069  0.14191623264161274  1.0000
  H   H1        1.0  0.10655195536588735  0.6765158616956412  0.12669206202442496  1.0000
  H   H2        1.0  0.8934543176440644  0.8234822326309298  0.6266835731416333  1.0000
  H   H3        1.0  0.8934523295052087  0.32348185091740334  0.8733093436965897  1.0000
  H   H4        1.0  0.10654490504956728  0.1765237135102211  0.37331606224547886  1.0000
  H   H5        1.0  0.2229138497930876  0.7712511306805964  0.2103310898151846  1.0000
  H   H6        1.0  0.7770874145645338  0.7287526792933506  0.7103268874706498  1.0000
  H   H7        1.0  0.7771024414626951  0.22875559203360749  0.7896661848794719  1.0000
  H   H8        1.0  0.22289864708836402  0.2712503942321902  0.28967392823021487  1.0000
  H   H9        1.0  0.9374310168970936  0.9619680204811016  0.17703668233823314  1.0000
  H   H10       1.0  0.06255708978934389  0.5380259556541489  0.6770341292256885  1.0000
  H   H11       1.0  0.062560906031969  0.03803190900038799  0.8229617726293479  1.0000
  H   H12       1.0  0.9374255796263427  0.46196900514942735  0.32296491584222037  1.0000
  H   H13       1.0  0.15693392825836125  0.9219242489441654  0.09862573069917595  1.0000
  H   H14       1.0  0.8430503229372732  0.5780739907499849  0.5986251886186691  1.0000
  H   H15       1.0  0.8430579946766485  0.07807568051756421  0.9013733144336622  1.0000
  H   H16       1.0  0.1569333054706874  0.42192707718940164  0.4013762172177876  1.0000
  H   H17       1.0  0.5219477093885061  0.8472368941974294  0.11009681605943195  1.0000
  H   H18       1.0  0.4780563108997456  0.6527500969289618  0.6100938265298834  1.0000
  H   H19       1.0  0.47804892019043893  0.15276602862675756  0.8898992782885524  1.0000
  H   H20       1.0  0.5219449014081549  0.34724153864112134  0.3899075790897795  1.0000
  H   H21       1.0  0.682973297668191  0.9794408754384708  0.05324047896735348  1.0000
  H   H22       1.0  0.3170128264852465  0.5205511827756837  0.5532353516097357  1.0000
  H   H23       1.0  0.3170293530447665  0.020559921111988903  0.9467562054915386  1.0000
  H   H24       1.0  0.682970162616364  0.4794458136673682  0.44676664432029145  1.0000
  C   C1        1.0  0.8087223262050998  0.683362481995509  0.2191296715969883  1.0000
  C   C2        1.0  0.19129263220499831  0.81663238461153  0.7191240826188757  1.0000
  C   C3        1.0  0.1912926864975191  0.3166360975284093  0.7808746849373873  1.0000
  C   C4        1.0  0.8087160396598279  0.1833662856059277  0.2808749624466954  1.0000
  C   C5        1.0  0.04074057950204945  0.7499743142845147  0.1713472349096107  1.0000
  C   C6        1.0  0.959259578601042  0.7500300708563757  0.6713404693391706  1.0000
  C   C7        1.0  0.9592698863251738  0.2500222899437148  0.8286541707749746  1.0000
  C   C8        1.0  0.040737370687644194  0.2499748875282322  0.3286609365319534  1.0000
  C   C9        1.0  0.9698170808014197  0.8849336813352907  0.13175949976872656  1.0000
  C   C10       1.0  0.030180999962602997  0.6150652119737926  0.6317569450389011  1.0000
  C   C11       1.0  0.0301813427518312  0.11506717546014758  0.868240135528779  1.0000
  C   C12       1.0  0.9698139955713215  0.3849407944123228  0.3682456411868172  1.0000
  C   C13       1.0  0.7137430040558782  0.8768480507818875  0.07695374872704966  1.0000
  C   C14       1.0  0.2862613064350228  0.6231472673505181  0.5769465815559796  1.0000
  C   C15       1.0  0.2862554194914182  0.12315280603330343  0.9230452964051987  1.0000
  C   C16       1.0  0.7137333693772588  0.37685670351469713  0.42304951281608527  1.0000
  C   C17       1.0  0.7374735819674356  0.7784331861159615  0.010888222846354295  1.0000
  C   C18       1.0  0.2625321842654812  0.7215573353738874  0.5108811883607556  1.0000
  C   C19       1.0  0.2625193357955524  0.22155958799106662  0.9891137729811557  1.0000
  C   C20       1.0  0.7374888495175682  0.27843911805417315  0.48911844679722066  1.0000
  N   N1        1.0  0.6814588031675938  0.7333495821141723  0.2834081699301548  1.0000
  N   N2        1.0  0.3185416622015679  0.7666483461677628  0.7834006920748774  1.0000
  N   N3        1.0  0.31855573003294063  0.2666459438616116  0.7165944160546898  1.0000
  N   N4        1.0  0.6814603492228954  0.23334837882708115  0.21659835297335653  1.0000
  N   N5        1.0  0.47965381223709613  0.6390479885224849  0.307213683618336  1.0000
  N   N6        1.0  0.5203347715820925  0.8609505620935564  0.8072103015030119  1.0000
  N   N7        1.0  0.5203467248811222  0.36095283819987145  0.6927830008467166  1.0000
  N   N8        1.0  0.47966528608166936  0.13904721092256267  0.19278933373456644  1.0000
  N   N9        1.0  0.4809407789669392  0.5355460876570958  0.2598463316031782  1.0000
  N   N10       1.0  0.5190528702748196  0.9644535089164846  0.759844916687953  1.0000
  N   N11       1.0  0.5190600778074312  0.46445677480353714  0.7401503528977212  1.0000
  N   N12       1.0  0.48094718738298786  0.03554426411939459  0.2401541283843755  1.0000
  N   N13       1.0  0.6858893620424595  0.5599286401799334  0.20432937998886289  1.0000
  N   N14       1.0  0.3141178023360283  0.940073445523346  0.7043240457642521  1.0000
  N   N15       1.0  0.3141298778139117  0.4400698791187807  0.795671435541642  1.0000
  N   N16       1.0  0.6858890755902182  0.0599272906042856  0.2956749993433262  1.0000
  N   N17       1.0  0.5316498095822765  0.6857495478870986  0.9905071309706693  1.0000
  N   N18       1.0  0.4683627735113731  0.8142445986158363  0.49050449500656856  1.0000
  N   N19       1.0  0.4683528411961717  0.31425124844597707  0.009496045306036597  1.0000
  N   N20       1.0  0.5316371243064495  0.18575215659042496  0.5094933697173258  1.0000
  N   N21       1.0  0.6298460591298608  0.6195090698774947  0.9284840286608467  1.0000
  N   N22       1.0  0.37015370980649454  0.8804965363835747  0.42848607374462216  1.0000
  N   N23       1.0  0.37015495752616795  0.3804948102744276  0.07151796734527237  1.0000
  N   N24       1.0  0.6298466675372296  0.11950327229178007  0.5715159221898245  1.0000
  N   N25       1.0  0.8971146616200586  0.6696194417870274  0.9133152030099931  1.0000
  N   N26       1.0  0.102882208185811  0.830384156895569  0.41331804451308307  1.0000
  N   N27       1.0  0.10288456110929897  0.3303865042355482  0.08668797336865447  1.0000
  N   N28       1.0  0.8971162153793487  0.16961669986034164  0.5866827711149366  1.0000
  N   N29       1.0  0.9647511428266  0.7691636060822589  0.9638131269762549  1.0000
  N   N30       1.0  0.03525488052426339  0.7308344544637038  0.46380919914422225  1.0000
  N   N31       1.0  0.03524353307498979  0.2308403644865251  0.03619181987465229  1.0000
  N   N32       1.0  0.9647364030865334  0.26916140356097884  0.5361886655864223  1.0000
