data_image0
_chemical_formula_structural       Al2H30C48N6O12
_chemical_formula_sum              "Al2 H30 C48 N6 O12"
_cell_length_a       3.9990443892231697
_cell_length_b       28.917187078626473
_cell_length_c       28.91712006727616
_cell_angle_alpha    119.9989733619438
_cell_angle_beta     90.0004653124529
_cell_angle_gamma    89.99882771952305

_space_group_name_H-M_alt    "P 1"
_space_group_IT_number       1

loop_
  _space_group_symop_operation_xyz
  'x, y, z'

loop_
  _atom_site_type_symbol
  _atom_site_label
  _atom_site_symmetry_multiplicity
  _atom_site_fract_x
  _atom_site_fract_y
  _atom_site_fract_z
  _atom_site_occupancy
  Al  Al1       1.0  0.9935540864980013  0.5000026302664649  0.5000003204155163  1.0000
  Al  Al2       1.0  0.9921631681403085  0.16666389712809598  0.8333378340417142  1.0000
  H   H1        1.0  0.15559865372156875  0.17183043449277569  0.6944836725078432  1.0000
  H   H2        1.0  0.121557847085775  0.22227608284280356  0.645134764780785  1.0000
  H   H3        1.0  0.7650439308553417  0.2964847817752343  0.8145552707860162  1.0000
  H   H4        1.0  0.7657121320818092  0.3701913690627449  0.518798296332605  1.0000
  H   H5        1.0  0.15657628300746748  0.4949084408199267  0.6388930775376592  1.0000
  H   H6        1.0  0.12195568791701558  0.4444210181797315  0.6881981238040352  1.0000
  H   H7        1.0  0.1555660696857828  0.022651052017820698  0.8281797156804487  1.0000
  H   H8        1.0  0.1215187080082671  0.922858287992504  0.7777309713354582  1.0000
  H   H9        1.0  0.7650556654270558  0.018062985142982584  0.7035150134107653  1.0000
  H   H10       1.0  0.7657279038286121  0.6486038366659129  0.6298084602831295  1.0000
  H   H11       1.0  0.1566013689530337  0.6439916385986489  0.5050912659329894  1.0000
  H   H12       1.0  0.12200493654097498  0.7437826167988958  0.5555796392613246  1.0000
  H   H13       1.0  0.15555018893757477  0.30550684586099625  0.9773414493013133  1.0000
  H   H14       1.0  0.12150071572585117  0.35485751072761207  0.07713732971293293  1.0000
  H   H15       1.0  0.7650721396351869  0.1854414686568544  0.9819434576661692  1.0000
  H   H16       1.0  0.7657114310843341  0.48121117748772235  0.35139419175771286  1.0000
  H   H17       1.0  0.15655974013802879  0.36111626521505247  0.35601896585751547  1.0000
  H   H18       1.0  0.1219419612255948  0.3118139493227687  0.2562286456089922  1.0000
  H   H19       1.0  0.7772216548633396  0.373573384060364  0.7463294234639904  1.0000
  H   H20       1.0  0.9349263090140455  0.368157902760913  0.7977499462699527  1.0000
  H   H21       1.0  0.7770350235414085  0.2930658000149861  0.5869732317692851  1.0000
  H   H22       1.0  0.9350082866610877  0.29847626770460767  0.5355716711822041  1.0000
  H   H23       1.0  0.7771743069389884  0.8727487232792724  0.6264296001535925  1.0000
  H   H24       1.0  0.9349205453543445  0.929582517626869  0.6318426069422713  1.0000
  H   H25       1.0  0.777077474884372  0.7939043530424639  0.7069328451293229  1.0000
  H   H26       1.0  0.9350216545971364  0.7370880241068746  0.701522546007624  1.0000
  H   H27       1.0  0.7771262179998429  0.25366924759690324  0.1272568904483222  1.0000
  H   H28       1.0  0.9348958794541886  0.20224852613083746  0.07042836472198385  1.0000
  H   H29       1.0  0.7769870787208076  0.413036790169123  0.20609148308794537  1.0000
  H   H30       1.0  0.9349453463775743  0.46443907274710455  0.26290398275116894  1.0000
  C   C1        1.0  0.4884017283442716  0.4537636304207594  0.4181887400160136  1.0000
  C   C2        1.0  0.48838490179414856  0.4644296756464853  0.5462412449495986  1.0000
  C   C3        1.0  0.4883735718019864  0.581813838502306  0.5355710271301604  1.0000
  C   C4        1.0  0.4869709720714184  0.20230077716128364  0.7871607008450637  1.0000
  C   C5        1.0  0.4869873041069964  0.08484847425172845  0.7976984886809505  1.0000
  C   C6        1.0  0.48700166443619947  0.21283550835038048  0.9151501745900816  1.0000
  C   C7        1.0  0.4624170528624845  0.23177519628239895  0.7573535198009296  1.0000
  C   C8        1.0  0.2809963023535218  0.21008327098692794  0.7094023199619386  1.0000
  C   C9        1.0  0.26152377156316214  0.23832675752156257  0.6823621601294861  1.0000
  C   C10       1.0  0.413302006020757  0.28885384890676136  0.7028585915792931  1.0000
  C   C11       1.0  0.5952153755864272  0.3109530055056309  0.7518100078464798  1.0000
  C   C12       1.0  0.6191290394134654  0.2813273962166674  0.7779416370895973  1.0000
  C   C13       1.0  0.3929216654057085  0.3185125449416687  0.6761267390579562  1.0000
  C   C14       1.0  0.3929114333217996  0.3481487304311771  0.6571898066877112  1.0000
  C   C15       1.0  0.41350588050306664  0.3778263999507485  0.6304638042852061  1.0000
  C   C16       1.0  0.5954744445536091  0.35571479937206607  0.5815227854633777  1.0000
  C   C17       1.0  0.6197372893893487  0.3853567609284596  0.5554023809274113  1.0000
  C   C18       1.0  0.4632444497481103  0.43492663630214407  0.5760093579974566  1.0000
  C   C19       1.0  0.28173849540993257  0.45662369898609956  0.6239512406780534  1.0000
  C   C20       1.0  0.26201416259680604  0.4283604454258023  0.6509655920389505  1.0000
  C   C21       1.0  0.462427319178559  0.025569591841808233  0.7682260049791125  1.0000
  C   C22       1.0  0.28099414795984495  0.9993147620246244  0.789921102976173  1.0000
  C   C23       1.0  0.2614876189489408  0.9440329668557652  0.7616808573012862  1.0000
  C   C24       1.0  0.41329700227400673  0.9140036609569222  0.7111568257615204  1.0000
  C   C25       1.0  0.5951978333596911  0.9408515733217084  0.6890509086023326  1.0000
  C   C26       1.0  0.6191204259245638  0.9966062288619141  0.7186780548875404  1.0000
  C   C27       1.0  0.3929052984479569  0.8576111762210273  0.6814980152151121  1.0000
  C   C28       1.0  0.3929129020360093  0.8090414498468517  0.6518489906135654  1.0000
  C   C29       1.0  0.4135184926532175  0.7526424125554881  0.6221772925033521  1.0000
  C   C30       1.0  0.5954995932799889  0.7258050376357941  0.6442858412577621  1.0000
  C   C31       1.0  0.6197285040532349  0.6700457757319496  0.6146417733003133  1.0000
  C   C32       1.0  0.463246687731484  0.6410879170745644  0.5650753785230833  1.0000
  C   C33       1.0  0.2817582602589681  0.6673344406296592  0.5433778612850944  1.0000
  C   C34       1.0  0.2620479213149237  0.7226098900636727  0.5716376650313107  1.0000
  C   C35       1.0  0.4624304644832833  0.24264728545911363  0.9744302676491045  1.0000
  C   C36       1.0  0.2809786100298409  0.2905892109990731  0.0006820251238863229  1.0000
  C   C37       1.0  0.2615112063617815  0.3176349948136945  0.05596543629087585  1.0000
  C   C38       1.0  0.41326237010643746  0.2971391288079204  0.08599236168488739  1.0000
  C   C39       1.0  0.5951860481414213  0.24818844658815206  0.05915155584779799  1.0000
  C   C40       1.0  0.6191544461983156  0.2220598578016109  0.0033977249294351725  1.0000
  C   C41       1.0  0.3929173132519351  0.3238815908872893  0.14239521140540026  1.0000
  C   C42       1.0  0.39290243738488323  0.3428108933733114  0.1909653497930037  1.0000
  C   C43       1.0  0.4135121655763286  0.3695386313782123  0.24736071709656224  1.0000
  C   C44       1.0  0.5954729204267082  0.4184880791423495  0.2741951778233158  1.0000
  C   C45       1.0  0.619713540769446  0.4446054649052796  0.32995943231139785  1.0000
  C   C46       1.0  0.4632785535074361  0.42398990398742586  0.3589114923876338  1.0000
  C   C47       1.0  0.2817403444891156  0.37605534069877666  0.3326722374388069  1.0000
  C   C48       1.0  0.2620108820005171  0.34904054956280817  0.2773994022170641  1.0000
  N   N1        1.0  0.7368712421387186  0.36114380392623946  0.7731497111065124  1.0000
  N   N2        1.0  0.7368812040409977  0.30549140644412637  0.5601584478512721  1.0000
  N   N3        1.0  0.7368472145480708  0.9119993008830034  0.6388617420900004  1.0000
  N   N4        1.0  0.7369003342286291  0.7546612709043499  0.6945064952655641  1.0000
  N   N5        1.0  0.73683732380713  0.2268517912203691  0.08800943974137705  1.0000
  N   N6        1.0  0.7368567607495962  0.4398491857131928  0.24533376692503578  1.0000
  O   O1        1.0  0.7323612273545449  0.5609761831361764  0.5471668827594057  1.0000
  O   O2        1.0  0.7323808101615015  0.48619893515085266  0.4390270900545516  1.0000
  O   O3        1.0  0.7323830325020139  0.4528374221804511  0.5138086084663129  1.0000
  O   O4        1.0  0.2627430038905985  0.555504128112659  0.5009168772884252  1.0000
  O   O5        1.0  0.26275624678998355  0.4990865346395734  0.5545841519354227  1.0000
  O   O6        1.0  0.2627617378434337  0.4454223472271365  0.44450295924722383  1.0000
  O   O7        1.0  0.7307265974081858  0.18037019383081077  0.8942724748412162  1.0000
  O   O8        1.0  0.7307168659856769  0.21388991031777485  0.8196259998687552  1.0000
  O   O9        1.0  0.7307236643974517  0.1057285624541322  0.7861125657936158  1.0000
  O   O10       1.0  0.2611162845492103  0.22119368849953952  0.8888842022797832  1.0000
  O   O11       1.0  0.2611175093988294  0.11111679372294236  0.8323222324107463  1.0000
  O   O12       1.0  0.2611217646041126  0.1676820871261597  0.7788046545237962  1.0000
