data_image0
_chemical_formula_structural       Al6H32C80Br8O34
_chemical_formula_sum              "Al6 H32 C80 Br8 O34"
_cell_length_a       12.393255456341093
_cell_length_b       12.078181688623863
_cell_length_c       28.735584873762953
_cell_angle_alpha    88.12174828263012
_cell_angle_beta     90.41606498767614
_cell_angle_gamma    61.75763319612028

_space_group_name_H-M_alt    "P 1"
_space_group_IT_number       1

loop_
  _space_group_symop_operation_xyz
  'x, y, z'

loop_
  _atom_site_type_symbol
  _atom_site_label
  _atom_site_symmetry_multiplicity
  _atom_site_fract_x
  _atom_site_fract_y
  _atom_site_fract_z
  _atom_site_occupancy
  Al  Al1       1.0  0.5903830300152036  0.6016546941682606  0.49930941046229543  1.0000
  Al  Al2       1.0  0.3394809460638938  0.5818468074032028  0.4976103039623111  1.0000
  Al  Al3       1.0  0.5768997639840306  0.342064646715194  0.5002605357489216  1.0000
  Al  Al4       1.0  0.07700110125993118  0.06761399576014072  1.1393735021998535e-06  1.0000
  Al  Al5       1.0  0.08613045796557368  0.3293282092535748  0.9983572311528093  1.0000
  Al  Al6       1.0  0.32494215904429774  0.0908106675315352  0.9976041963371001  1.0000
  H   H1        1.0  0.24390935216636916  0.5238270090422648  0.2094858688291126  1.0000
  H   H2        1.0  0.751245460730871  0.5456057689276008  0.28633619434881297  1.0000
  H   H3        1.0  0.5049589772228271  0.8700965853773966  0.2110030724174266  1.0000
  H   H4        1.0  0.6930386246735407  0.5321869322232616  0.7037158594260686  1.0000
  H   H5        1.0  0.7067811868190644  0.5314740778519181  0.790304598421308  1.0000
  H   H6        1.0  0.9759367842700754  0.13805736378679967  0.7929578020922109  1.0000
  H   H7        1.0  0.38516580939260325  0.6039116865573605  0.7257115438072219  1.0000
  H   H8        1.0  0.37133789375929627  0.6471887695752089  0.8102245573298887  1.0000
  H   H9        1.0  0.30532324901124486  0.9871962368212623  0.6926295448404785  1.0000
  H   H10       1.0  0.42652863146093256  0.10962049506932203  0.2912126604640903  1.0000
  H   H11       1.0  0.8461905078905755  0.15231071665264306  0.2934826099554114  1.0000
  H   H12       1.0  0.7903977768607144  0.5325462099121056  0.20099224010821357  1.0000
  H   H13       1.0  0.10881129686065084  0.6900162648920514  0.3324350247689196  1.0000
  H   H14       1.0  0.2626897054916383  0.6594832015130552  0.3443313591838404  1.0000
  H   H15       1.0  0.22805623527025173  0.5981134546587298  0.29363829031338884  1.0000
  H   H16       1.0  0.6609351973179117  0.2505821734024848  0.729284844281004  1.0000
  H   H17       1.0  0.5869885008860577  0.3142816736337153  0.673216741534098  1.0000
  H   H18       1.0  0.7039348656189757  0.15359094052602276  0.6795065219765064  1.0000
  H   H19       1.0  0.07859802934153487  0.37831216842391774  0.8276457223567915  1.0000
  H   H20       1.0  0.0030251986649360643  0.43869903209521527  0.7716566942585599  1.0000
  H   H21       1.0  0.9552942633308203  0.5357171930710152  0.8214691860886559  1.0000
  H   H22       1.0  0.0009288366048138786  0.4970594398696876  0.2256436915902995  1.0000
  H   H23       1.0  0.040674041362088006  0.6188438973677111  0.2376185688577479  1.0000
  H   H24       1.0  0.9312801209177549  0.5994394058849366  0.27272114573368356  1.0000
  H   H25       1.0  0.42115123802918897  0.5451565229767042  0.2083729040728883  1.0000
  H   H26       1.0  0.5688680491519659  0.4078290569407344  0.20798195244337586  1.0000
  H   H27       1.0  0.5458668156051727  0.5373941584102228  0.24287426058102568  1.0000
  H   H28       1.0  0.08468569807575217  0.24490240937615232  0.2905594654151074  1.0000
  H   H29       1.0  0.2289179041871776  0.10334941074584952  0.2956651439721938  1.0000
  H   H30       1.0  0.1082650721136389  0.10906246333859572  0.2591583919957046  1.0000
  H   H31       1.0  0.6746405002302395  0.7273604844797745  0.47098174655600633  1.0000
  H   H32       1.0  0.965794864921115  0.9712987801058335  0.0304793939504435  1.0000
  C   C1        1.0  0.366075827913754  0.7439828468444601  0.4353543979076021  1.0000
  C   C2        1.0  0.3643206452280693  0.35885983507130004  0.3876783033870055  1.0000
  C   C3        1.0  0.26187938016753515  0.26106796713516195  0.2425478656250135  1.0000
  C   C4        1.0  0.32465681253631107  0.305340275217418  0.2031896647720259  1.0000
  C   C5        1.0  0.38385069190228194  0.20170098015380936  0.2730206997381543  1.0000
  C   C6        1.0  0.341364539924463  0.32926057522671215  0.29840187450829336  1.0000
  C   C7        1.0  0.446392703549698  0.24325686888622763  0.23469445974773606  1.0000
  C   C8        1.0  0.403919957369041  0.37334047718821506  0.2587891080492142  1.0000
  C   C9        1.0  0.3134293107877326  0.2969012519460676  0.1546697358759843  1.0000
  C   C10       1.0  0.35295595701515486  0.34346442459220583  0.34651722343293295  1.0000
  C   C11       1.0  0.7499581503867461  0.3678471032525438  0.3848169956224012  1.0000
  C   C12       1.0  0.38791710303896554  0.38756658219322315  0.4334898821226644  1.0000
  C   C13       1.0  0.8341570514266293  0.23541026694866934  0.2732906476252949  1.0000
  C   C14       1.0  0.858665292304849  0.22845823347854124  0.22613163147943988  1.0000
  C   C15       1.0  0.8031132958865397  0.44984003874962747  0.22170996282078897  1.0000
  C   C16       1.0  0.7810990340228302  0.4572673792401576  0.268984778782972  1.0000
  C   C17       1.0  0.7959811719837829  0.35001238528439427  0.2953957529700872  1.0000
  C   C18       1.0  0.8429619899043529  0.33542636040232315  0.1990013546389093  1.0000
  C   C19       1.0  0.8698911467224802  0.3270007427664154  0.1512429554563113  1.0000
  C   C20       1.0  0.7722953240318727  0.3578930210150163  0.34350780907733025  1.0000
  C   C21       1.0  0.8970710051392883  0.31486882634654734  0.11037173276839948  1.0000
  C   C22       1.0  0.337974088974903  0.8005174462513337  0.38907930368839067  1.0000
  C   C23       1.0  0.7044247813595914  0.39488035660308207  0.4311900316798472  1.0000
  C   C24       1.0  0.43477993718870755  0.8390223003345627  0.2758134735115618  1.0000
  C   C25       1.0  0.43732925545220513  0.8501049141992566  0.22780725148020756  1.0000
  C   C26       1.0  0.26309569168744656  0.809055741165537  0.22158509778751778  1.0000
  C   C27       1.0  0.2558628584475854  0.8044658832802584  0.2701401452117054  1.0000
  C   C28       1.0  0.34287436114951936  0.8201779691164008  0.2981056966604498  1.0000
  C   C29       1.0  0.35055466645303546  0.83625993770675  0.19999014333456697  1.0000
  C   C30       1.0  0.34923800296615326  0.8534694164068953  0.1512853049813074  1.0000
  C   C31       1.0  0.33794472812146353  0.8137783107728327  0.3468605672932482  1.0000
  C   C32       1.0  0.33908617011611836  0.8767074338059263  0.10947077519161039  1.0000
  C   C33       1.0  0.35757016882644166  0.3624906241061511  0.6102362754413305  1.0000
  C   C34       1.0  0.38715346074081924  0.7099781695514552  0.5670923383857271  1.0000
  C   C35       1.0  0.43859678939284646  0.2703425669414798  0.7285159602099538  1.0000
  C   C36       1.0  0.4339237624722044  0.27018346599017923  0.7771484037457553  1.0000
  C   C37       1.0  0.21918276774344744  0.4340432214650819  0.7722370348150278  1.0000
  C   C38       1.0  0.2246122038753526  0.4358556392888389  0.7235856234357313  1.0000
  C   C39       1.0  0.3338817648254987  0.3551346862169496  0.7010787871835404  1.0000
  C   C40       1.0  0.32436112818859897  0.3501325545836452  0.7996480886459949  1.0000
  C   C41       1.0  0.3136349357000939  0.3423913230345974  0.8483869767744352  1.0000
  C   C42       1.0  0.3438860973277754  0.3584192474846262  0.6521724737043897  1.0000
  C   C43       1.0  0.3001499862957927  0.33116055228482827  0.8899945492501045  1.0000
  C   C44       1.0  0.7825131001652178  0.3451154011462379  0.6092624693472217  1.0000
  C   C45       1.0  0.38450785488332406  0.38467026990770153  0.5634471816193097  1.0000
  C   C46       1.0  0.7546593591662896  0.4466212357683191  0.7236766432026654  1.0000
  C   C47       1.0  0.7619166616632352  0.44611383022694173  0.771812687408591  1.0000
  C   C48       1.0  0.9139397034363127  0.2238803065912195  0.7733302461224055  1.0000
  C   C49       1.0  0.9054123974813351  0.2253680425835825  0.7251389099827179  1.0000
  C   C50       1.0  0.82571207551193  0.33640062766449574  0.6992136045614075  1.0000
  C   C51       1.0  0.8424570711709052  0.33471644388448146  0.7971676151897424  1.0000
  C   C52       1.0  0.8598461108311424  0.3313903482656216  0.8459690289762493  1.0000
  C   C53       1.0  0.8083262311185775  0.33847117671281524  0.6505940672602364  1.0000
  C   C54       1.0  0.8859614318160567  0.3214734949296912  0.8873890656827754  1.0000
  C   C55       1.0  0.3616550835987976  0.7504171587565909  0.6141385910768944  1.0000
  C   C56       1.0  0.7266836582357853  0.3736550960949573  0.5634544770002207  1.0000
  C   C57       1.0  0.365379078387619  0.6965868323344325  0.7371651104084761  1.0000
  C   C58       1.0  0.35751892373829697  0.7206647212127707  0.7841793365577201  1.0000
  C   C59       1.0  0.31094231247482185  0.9359939314187287  0.765394370826037  1.0000
  C   C60       1.0  0.32020350698816447  0.912757208299098  0.718304361041639  1.0000
  C   C61       1.0  0.3469165430123836  0.7924951748611023  0.7036830761039353  1.0000
  C   C62       1.0  0.3300647285660432  0.8409063977511124  0.7994826276104445  1.0000
  C   C63       1.0  0.32004841592313926  0.8669265943579278  0.8472068368201917  1.0000
  C   C64       1.0  0.35439169024793654  0.7696177250499406  0.6556049129074494  1.0000
  C   C65       1.0  0.3094849516271481  0.8944029351268981  0.8879028681894425  1.0000
  C   C66       1.0  0.9498941444312619  0.2847635558987136  0.0651296240724761  1.0000
  C   C67       1.0  0.21889906754856978  0.3919546427198739  0.2672020460728958  1.0000
  C   C68       1.0  0.2787774061339832  0.273801449914437  0.065323281816795  1.0000
  C   C69       1.0  0.30125308923437183  0.9335299393603051  0.0634744960161768  1.0000
  C   C70       1.0  0.9425452474600886  0.29026237183868636  0.9331845171813525  1.0000
  C   C71       1.0  0.2742343448612914  0.29878128492499917  0.9354825401689267  1.0000
  C   C72       1.0  0.28288115815156084  0.9494940167177648  0.9327512119121621  1.0000
  C   C73       1.0  0.28283448678130424  0.43277735764691283  0.22838029310145905  1.0000
  C   C74       1.0  0.30187570165684713  0.2920778165296057  0.11270462375965448  1.0000
  C   C75       1.0  0.19403481279729115  0.6770424933470452  0.31688674061978617  1.0000
  C   C76       1.0  0.6280465812442699  0.23005464020296532  0.6967294500962848  1.0000
  C   C77       1.0  0.03349387106641897  0.4622665453612316  0.8041288757704519  1.0000
  C   C78       1.0  0.015437708608757844  0.5500257460531799  0.2532282028552046  1.0000
  C   C79       1.0  0.5036104744468658  0.48293714486855077  0.22947973607555378  1.0000
  C   C80       1.0  0.15139925045855304  0.16343144172761737  0.2719290560904639  1.0000
  Br  Br1       1.0  0.5573271943758086  0.84966408870541  0.3124247652702508  1.0000
  Br  Br2       1.0  0.15749523327436082  0.7743303157670807  0.18405932195769026  1.0000
  Br  Br3       1.0  0.5737194946737743  0.15789800911190352  0.8128383530459543  1.0000
  Br  Br4       1.0  0.08409360308406376  0.5469925833696009  0.6879282962093782  1.0000
  Br  Br5       1.0  0.9997513264713118  0.07511492097162892  0.6938222005880091  1.0000
  Br  Br6       1.0  0.2675661655706563  0.10090870280180303  0.7837761777703135  1.0000
  Br  Br7       1.0  0.6063950966508925  0.13725005757584097  0.21259624645689706  1.0000
  Br  Br8       1.0  0.9231545311647336  0.07013624825646758  0.19876898491940406  1.0000
  O   O1        1.0  0.677257962997892  0.502864474853574  0.4451138744561476  1.0000
  O   O2        1.0  0.304403194392435  0.4840682676723561  0.5412714059035437  1.0000
  O   O3        1.0  0.4892774587329285  0.3078028061609431  0.5481223701510061  1.0000
  O   O4        1.0  0.6994008137113922  0.2924331315019302  0.5461948492914388  1.0000
  O   O5        1.0  0.5009581643334897  0.5080109611157156  0.49887478722047957  1.0000
  O   O6        1.0  0.19301642174349343  0.9627050029680789  0.05097425939989359  1.0000
  O   O7        1.0  0.9771730252810682  0.17715670444676593  0.0508031094445514  1.0000
  O   O8        1.0  0.9690962248056677  0.3694525913491091  0.04384732506760259  1.0000
  O   O9        1.0  0.17889620928811917  0.3566621822912666  0.0454347420753081  1.0000
  O   O10       1.0  0.35723889790872926  0.1726378201952201  0.0470973246015163  1.0000
  O   O11       1.0  0.37838544594848106  0.955342693569499  0.04032258011215359  1.0000
  O   O12       1.0  0.4678682311374584  0.7221396355893503  0.45310829677568165  1.0000
  O   O13       1.0  0.18503574946320356  0.9653685779548626  0.9513997345899625  1.0000
  O   O14       1.0  0.9700808060644446  0.18217891599504546  0.950076781117545  1.0000
  O   O15       1.0  0.9654544143816184  0.37293296943515497  0.9517802753408587  1.0000
  O   O16       1.0  0.17026165866722212  0.3724946250772092  0.9523667181203875  1.0000
  O   O17       1.0  0.3543614284994163  0.1945513553450482  0.9547361328506339  1.0000
  O   O18       1.0  0.36041280548071325  0.9825128933394257  0.9488060124429295  1.0000
  O   O19       1.0  0.16343905939225317  0.16351552971091368  0.9986526946152025  1.0000
  O   O20       1.0  0.2882058860079367  0.7131533123419731  0.45310681266493447  1.0000
  O   O21       1.0  0.3116389510819955  0.49450574322626323  0.4486754717897554  1.0000
  O   O22       1.0  0.48625919485397867  0.3071207735907607  0.45513351302603405  1.0000
  O   O23       1.0  0.6912056590483998  0.30805207101758486  0.4537507390115252  1.0000
  O   O24       1.0  0.7034022396522841  0.4790474870424363  0.5450747708905013  1.0000
  O   O25       1.0  0.48976978248258957  0.6899342014745431  0.5519173824317035  1.0000
  O   O26       1.0  0.30457907081164126  0.6935981979915482  0.5455003688298135  1.0000
  O   O27       1.0  0.16274021869529776  0.792009832492255  0.2896706281170083  1.0000
  O   O28       1.0  0.540000849652003  0.18646963252660953  0.7066174766518643  1.0000
  O   O29       1.0  0.11555231334317272  0.5136741347706109  0.7941396831193898  1.0000
  O   O30       1.0  0.10787645427644314  0.46694291032076046  0.2865314749711985  1.0000
  O   O31       1.0  0.4721508117804232  0.43087294676241333  0.2697886257989808  1.0000
  O   O32       1.0  0.19344225094774706  0.20365247010604295  0.23132635685156083  1.0000
  O   O33       1.0  0.6735965474015871  0.6849281808224817  0.49993390152813777  1.0000
  O   O34       1.0  0.9983696839837107  0.9796627129709639  0.0009040991841330979  1.0000
