data_image0
_chemical_formula_structural       Rb4H16C16O12
_chemical_formula_sum              "Rb4 H16 C16 O12"
_cell_length_a       3.8989376010090053
_cell_length_b       11.834254862020257
_cell_length_c       12.718226783994607
_cell_angle_alpha    111.66660590308675
_cell_angle_beta     89.99976046983083
_cell_angle_gamma    90.00013324427502

_space_group_name_H-M_alt    "P 1"
_space_group_IT_number       1

loop_
  _space_group_symop_operation_xyz
  'x, y, z'

loop_
  _atom_site_type_symbol
  _atom_site_label
  _atom_site_symmetry_multiplicity
  _atom_site_fract_x
  _atom_site_fract_y
  _atom_site_fract_z
  _atom_site_occupancy
  Rb  Rb1       1.0  0.7671667830968544  0.1747603447928583  0.6438473395774195  1.0000
  Rb  Rb2       1.0  0.2671689488850433  0.3252395184468142  0.3561532696427748  1.0000
  Rb  Rb3       1.0  0.2328305797698391  0.8252416362305369  0.3561543792594363  1.0000
  Rb  Rb4       1.0  0.732836108398153  0.6747597438529243  0.6438451486040151  1.0000
  H   H1        1.0  0.27514455724232795  0.3129379429058901  0.8656496459291461  1.0000
  H   H2        1.0  0.7751468032892248  0.18706102846544329  0.13434671264887746  1.0000
  H   H3        1.0  0.7248502408529234  0.6870622376263285  0.13434673156339733  1.0000
  H   H4        1.0  0.2248685131787269  0.8129345878827082  0.8656528014832928  1.0000
  H   H5        1.0  0.908004880693717  0.6783610872666161  0.9448788688625812  1.0000
  H   H6        1.0  0.40802135148015845  0.8216421605776179  0.055121865734641104  1.0000
  H   H7        1.0  0.09198991739301479  0.3216409057488079  0.05511970902028912  1.0000
  H   H8        1.0  0.5919837057955846  0.17835982344502813  0.944879067858757  1.0000
  H   H9        1.0  0.06780589394140428  0.10137839199802562  0.3959074106272311  1.0000
  H   H10       1.0  0.5678032722296961  0.3986232362206367  0.6040924952174507  1.0000
  H   H11       1.0  0.9321965985362862  0.8986217765429387  0.6040921078162427  1.0000
  H   H12       1.0  0.43219922025118507  0.6013796600394343  0.3959079680948889  1.0000
  H   H13       1.0  0.46638622521426487  0.10432576388249262  0.4034825169070899  1.0000
  H   H14       1.0  0.9663836852560266  0.3956750710479966  0.5965173850147777  1.0000
  H   H15       1.0  0.5336188320550902  0.8956753079023514  0.5965188869689014  1.0000
  H   H16       1.0  0.0336188072333741  0.604326012728869  0.403480877907235  1.0000
  C   C1        1.0  0.21316735726893649  0.4932050771882714  0.7784844260201778  1.0000
  C   C2        1.0  0.7131722888543874  0.006795691168704801  0.22151342144420738  1.0000
  C   C3        1.0  0.7868325704245362  0.50679600958631  0.2215130516644805  1.0000
  C   C4        1.0  0.2868327684075282  0.9932035591386286  0.7784881377580889  1.0000
  C   C5        1.0  0.1052833588316133  0.49581039963980794  0.8927956886521572  1.0000
  C   C6        1.0  0.6052949476118457  0.004187593812368101  0.1072052684872631  1.0000
  C   C7        1.0  0.8947011800671733  0.5041925116080963  0.10720084847646667  1.0000
  C   C8        1.0  0.39470754482011466  0.9958052798242462  0.8927972269780681  1.0000
  C   C9        1.0  0.15447568080907098  0.3951038982821587  0.9242095308599118  1.0000
  C   C10       1.0  0.6544884012937827  0.10490230500055733  0.07579106140403269  1.0000
  C   C11       1.0  0.8455062932820779  0.6049026439279714  0.07578983657314355  1.0000
  C   C12       1.0  0.3455217855812549  0.8950969513037493  0.9242089273174584  1.0000
  C   C13       1.0  0.9494336743427282  0.6005973715037669  0.9697095808653842  1.0000
  C   C14       1.0  0.44944076751139755  0.8993967873114528  0.030290310601863338  1.0000
  C   C15       1.0  0.050550864539040695  0.39940462151012224  0.030288997023589653  1.0000
  C   C16       1.0  0.5505565953265972  0.100594273841196  0.9697099844761894  1.0000
  O   O1        1.0  0.2747919946583082  0.3877853554208032  0.7004111651314843  1.0000
  O   O2        1.0  0.7748043047207956  0.11221815005292513  0.2995899095969463  1.0000
  O   O3        1.0  0.7252079330308945  0.6122211807957995  0.2995897727686412  1.0000
  O   O4        1.0  0.2252007525411344  0.8877765570539894  0.7004092895850391  1.0000
  O   O5        1.0  0.23083673014548367  0.5918313228360716  0.762068421571911  1.0000
  O   O6        1.0  0.7308339976838025  0.9081709628927259  0.23793220886377509  1.0000
  O   O7        1.0  0.7691683271313109  0.4081715704262763  0.23793282697777576  1.0000
  O   O8        1.0  0.2691633651860883  0.0918292026493646  0.7620680948216288  1.0000
  O   O9        1.0  0.26036056252348755  0.10459436111462142  0.449253690528856  1.0000
  O   O10       1.0  0.7603612044795865  0.3954064153295322  0.5507456712683734  1.0000
  O   O11       1.0  0.7396419299488811  0.8954058044282296  0.5507466131534928  1.0000
  O   O12       1.0  0.23964128800022877  0.6045955716908367  0.4492544770876705  1.0000
