data_image0
_chemical_formula_structural       Sm4P4H40C16S4O28
_chemical_formula_sum              "Sm4 P4 H40 C16 S4 O28"
_cell_length_a       7.092793371206828
_cell_length_b       10.799226139254817
_cell_length_c       13.085554088002498
_cell_angle_alpha    90.00001105225765
_cell_angle_beta     89.99992940855836
_cell_angle_gamma    104.4900459739576

_space_group_name_H-M_alt    "P 1"
_space_group_IT_number       1

loop_
  _space_group_symop_operation_xyz
  'x, y, z'

loop_
  _atom_site_type_symbol
  _atom_site_label
  _atom_site_symmetry_multiplicity
  _atom_site_fract_x
  _atom_site_fract_y
  _atom_site_fract_z
  _atom_site_occupancy
  Sm  Sm1       1.0  0.24460656118792912  0.4900787158983704  0.4244183627522346  1.0000
  Sm  Sm2       1.0  0.25539471629999616  0.5099221246892184  0.9244170582240369  1.0000
  Sm  Sm3       1.0  0.7553938035868483  0.509921156579871  0.5755818344116148  1.0000
  Sm  Sm4       1.0  0.7446066937964275  0.49007679126623316  0.07558390314088827  1.0000
  P   P1        1.0  0.2816543823249163  0.5996459707454493  0.15169929991479583  1.0000
  P   P2        1.0  0.21835071356682795  0.4003558667884946  0.6516880680393269  1.0000
  P   P3        1.0  0.7183459824498611  0.40035390173278546  0.8483008972490605  1.0000
  P   P4        1.0  0.7816514255675387  0.5996449619965745  0.3483113649225159  1.0000
  H   H1        1.0  0.2711894057988928  0.27861869335966827  0.2916795940393583  1.0000
  H   H2        1.0  0.22881040600510272  0.7213812107534779  0.7916798695083854  1.0000
  H   H3        1.0  0.728810958976773  0.72138117911863  0.7083198389229961  1.0000
  H   H4        1.0  0.7711895942515954  0.2786177053100118  0.20832032765551384  1.0000
  H   H5        1.0  0.47418487068812004  0.2947048540633261  0.34466773068600526  1.0000
  H   H6        1.0  0.025815182412849077  0.7052959985476263  0.8446681394146506  1.0000
  H   H7        1.0  0.5258169039281669  0.705295018306991  0.6553317022758804  1.0000
  H   H8        1.0  0.9741851823619287  0.2947038739306151  0.1553320577491988  1.0000
  H   H9        1.0  0.3208712744642952  0.7892079833821269  0.25197935055427917  1.0000
  H   H10       1.0  0.17912758433436693  0.21079288318511405  0.7519826344451557  1.0000
  H   H11       1.0  0.6791262706301423  0.21079188931213366  0.7480200824090273  1.0000
  H   H12       1.0  0.8208699607574063  0.7892069895089691  0.24801909112263582  1.0000
  H   H13       1.0  0.5235692333349039  0.796948258107449  0.1719161853058039  1.0000
  H   H14       1.0  0.9764332271381803  0.20305541383397238  0.6719169764186219  1.0000
  H   H15       1.0  0.47643008611733956  0.20305257089351872  0.8280840118584718  1.0000
  H   H16       1.0  0.02356645683214961  0.7969463715817467  0.32808322074561136  1.0000
  H   H17       1.0  0.326308733379122  0.8377805251565036  0.019749217037421794  1.0000
  H   H18       1.0  0.1736924398173443  0.16222133241495845  0.5197517325991612  1.0000
  H   H19       1.0  0.673691266878464  0.16221839090705004  0.9802502159249823  1.0000
  H   H20       1.0  0.82630651511505  0.8377785401711434  0.48024999296815446  1.0000
  H   H21       1.0  0.12198275460410461  0.821037380464709  0.09753506165512957  1.0000
  H   H22       1.0  0.37801787318868213  0.1789635090701225  0.5975366789705914  1.0000
  H   H23       1.0  0.8780162003309472  0.17896249212157042  0.9024643713077009  1.0000
  H   H24       1.0  0.621981446261785  0.8210373199307315  0.4024650465966743  1.0000
  H   H25       1.0  0.2834481905687483  0.0116899158505319  0.20071972142930858  1.0000
  H   H26       1.0  0.21655183275640164  0.9883100018528237  0.7007208119766941  1.0000
  H   H27       1.0  0.7165521742069174  0.9883099566277666  0.7992797115330529  1.0000
  H   H28       1.0  0.783446757658794  0.0116889143185901  0.2992801493891689  1.0000
  H   H29       1.0  0.5008330452424373  0.0321411444543358  0.13040852756380156  1.0000
  H   H30       1.0  0.9991655985179051  0.9678596646603737  0.6304101899360288  1.0000
  H   H31       1.0  0.4991659096935096  0.9678587281320004  0.869590141197534  1.0000
  H   H32       1.0  0.0008329918972834046  0.032139251511040405  0.3695907714298413  1.0000
  H   H33       1.0  0.10621299687075242  0.032048951394401115  0.033735642033491296  1.0000
  H   H34       1.0  0.39378636944594103  0.9679519477808186  0.53373508232913  1.0000
  H   H35       1.0  0.893785958063411  0.9679509211918214  0.9662645551308271  1.0000
  H   H36       1.0  0.6062115401656883  0.032048881328130094  0.46626511483561456  1.0000
  H   H37       1.0  0.3359303467784898  0.0760974699954033  0.9712281591919447  1.0000
  H   H38       1.0  0.16406836669043678  0.9239043202289213  0.4712288227647433  1.0000
  H   H39       1.0  0.6640689726746415  0.923903359005621  0.028771273770836093  1.0000
  H   H40       1.0  0.8359309527609184  0.0760965087719896  0.5287721386010346  1.0000
  C   C1        1.0  0.3631138011411609  0.7721016460905827  0.17325893902996364  1.0000
  C   C2        1.0  0.13688983475820043  0.22790018832909456  0.6732614897185767  1.0000
  C   C3        1.0  0.6368865636345049  0.22789822638770832  0.8267404939323909  1.0000
  C   C4        1.0  0.8631091201759633  0.7720996842571282  0.32673870744574873  1.0000
  C   C5        1.0  0.28178847676562685  0.8537861714111374  0.0982082723244346  1.0000
  C   C6        1.0  0.21821214946152884  0.14621471802310282  0.598209991335892  1.0000
  C   C7        1.0  0.7182101136513453  0.14621274476039048  0.9017911606384456  1.0000
  C   C8        1.0  0.7817871699898264  0.8537861109778079  0.4017909700298857  1.0000
  C   C9        1.0  0.34159696277021123  0.9962169435286088  0.12503861399586205  1.0000
  C   C10       1.0  0.1584036010644638  0.0037839418969198993  0.6250403502567393  1.0000
  C   C11       1.0  0.6584034020054543  0.0037829289496898004  0.8749608189664922  1.0000
  C   C12       1.0  0.8415953538679232  0.996215930689182  0.3749613753105762  1.0000
  C   C13       1.0  0.2624701567377912  0.07285126057215761  0.045327765497681596  1.0000
  C   C14       1.0  0.23752954713825866  0.9271505932857166  0.5453288322302752  1.0000
  C   C15       1.0  0.7375291627153401  0.9271495684288737  0.9546716674651063  1.0000
  C   C16       1.0  0.7624711821537177  0.07285023560721271  0.45467212913502647  1.0000
  S   S1        1.0  0.2792031523403154  0.23382788516279626  0.08176107905233468  1.0000
  S   S2        1.0  0.22081620458781964  0.7661739617403069  0.5817560176275405  1.0000
  S   S3        1.0  0.7207989867931559  0.7661729436222089  0.9182391181110032  1.0000
  S   S4        1.0  0.7791855700293553  0.23382591063005984  0.4182426511328571  1.0000
  O   O1        1.0  0.24586358047677245  0.5385807962855367  0.25655386576586636  1.0000
  O   O2        1.0  0.2541494625492435  0.46142772005207916  0.7565609605378325  1.0000
  O   O3        1.0  0.7541371488160848  0.46142003260744957  0.7434463313979405  1.0000
  O   O4        1.0  0.7458586804647709  0.5385740647157533  0.24343923662357267  1.0000
  O   O5        1.0  0.09802401062078304  0.5713015153370051  0.08170996514490977  1.0000
  O   O6        1.0  0.40197487961366823  0.42869842025547905  0.5817116063547586  1.0000
  O   O7        1.0  0.9019773994774241  0.42869740061856026  0.9182894678170255  1.0000
  O   O8        1.0  0.5980279403260413  0.571300495592162  0.41828706240520563  1.0000
  O   O9        1.0  0.43652115913428  0.5553728168490296  0.08703633504329389  1.0000
  O   O10       1.0  0.0634844033960462  0.4446261609927972  0.5870404979020876  1.0000
  O   O11       1.0  0.5634823898398126  0.4446280118279945  0.9129638621195679  1.0000
  O   O12       1.0  0.9365163258959228  0.555374667900132  0.4129604634632144  1.0000
  O   O13       1.0  0.16129333135408072  0.2256048069411919  0.17564709254063618  1.0000
  O   O14       1.0  0.338703978825798  0.774398940491139  0.6756488313538894  1.0000
  O   O15       1.0  0.8387056235800828  0.7743950656450309  0.8243531046236894  1.0000
  O   O16       1.0  0.6612981603067851  0.2256018882938093  0.3243521300109435  1.0000
  O   O17       1.0  0.4857938255647341  0.2930579453466465  0.10058024069001448  1.0000
  O   O18       1.0  0.01419510367424694  0.7069381624154757  0.6005798932517619  1.0000
  O   O19       1.0  0.5142051293694365  0.7069419272395763  0.8994199564743109  1.0000
  O   O20       1.0  0.9858063064239532  0.2930607535400895  0.3994195397101733  1.0000
  O   O21       1.0  0.19458803027050212  0.2912581588459132  0.9961373714165657  1.0000
  O   O22       1.0  0.3054127641450395  0.708745540377919  0.49614249122277687  1.0000
  O   O23       1.0  0.8054123345051637  0.7087417136323778  0.003862061545788699  1.0000
  O   O24       1.0  0.6945897395065188  0.2912562448218381  0.5038577059405112  1.0000
  O   O25       1.0  0.3442594922597451  0.3106988742930596  0.35472161030457267  1.0000
  O   O26       1.0  0.15573348825407865  0.6893019773553704  0.8547257505484891  1.0000
  O   O27       1.0  0.6557412370340006  0.6893019545999906  0.6452778226577393  1.0000
  O   O28       1.0  0.8442668765215942  0.3106978951229209  0.14527368241386537  1.0000
