data_image0
_chemical_formula_structural       Sr2P4H24C24O12
_chemical_formula_sum              "Sr2 P4 H24 C24 O12"
_cell_length_a       5.772432188098472
_cell_length_b       7.783839645879312
_cell_length_c       15.900999832254982
_cell_angle_alpha    101.36339248937094
_cell_angle_beta     100.42887033807234
_cell_angle_gamma    89.98841915695016

_space_group_name_H-M_alt    "P 1"
_space_group_IT_number       1

loop_
  _space_group_symop_operation_xyz
  'x, y, z'

loop_
  _atom_site_type_symbol
  _atom_site_label
  _atom_site_symmetry_multiplicity
  _atom_site_fract_x
  _atom_site_fract_y
  _atom_site_fract_z
  _atom_site_occupancy
  Sr  Sr1       1.0  0.8924471471318682  0.24996456985314103  0.9999805516798261  1.0000
  Sr  Sr2       1.0  0.10755061932847097  0.7500387833503552  2.0594295968123e-05  1.0000
  P   P1        1.0  0.40254027556095906  0.4114808311645533  0.12999190700190164  1.0000
  P   P2        1.0  0.2730512248413248  0.08855615463503601  0.8699454995334649  1.0000
  P   P3        1.0  0.5974573588253518  0.5885199099368137  0.8700077155716386  1.0000
  P   P4        1.0  0.7269481702547578  0.9114445748547271  0.1300554954244505  1.0000
  H   H1        1.0  0.38249894286609987  0.1017551091187983  0.11538423799726161  1.0000
  H   H2        1.0  0.2674131327463982  0.3983077836842527  0.8846261654387392  1.0000
  H   H3        1.0  0.6175004525814883  0.8982456255966581  0.8846161286015005  1.0000
  H   H4        1.0  0.7325845016399128  0.6016929574171144  0.11537345713480823  1.0000
  H   H5        1.0  0.7546358835781602  0.39348566224164466  0.2861443951536415  1.0000
  H   H6        1.0  0.4684384410044515  0.1058925177073107  0.7133233278899455  1.0000
  H   H7        1.0  0.24536540711378044  0.6065177095441283  0.7138544687176279  1.0000
  H   H8        1.0  0.5315659727758942  0.8941029631947547  0.2866774806982804  1.0000
  H   H9        1.0  0.7691340364805939  0.5176913998667274  0.4428636940424795  1.0000
  H   H10       1.0  0.32492956944781065  0.9816258193699242  0.5567188670111564  1.0000
  H   H11       1.0  0.2308709098139587  0.48231459215207906  0.5571356678448467  1.0000
  H   H12       1.0  0.6750765393567947  0.018368349095162304  0.4432819239011679  1.0000
  H   H13       1.0  0.44584837344768846  0.7029715612415046  0.49058485695596943  1.0000
  H   H14       1.0  0.9536406573521459  0.7968906701964047  0.5095529652984467  1.0000
  H   H15       1.0  0.5541546783055296  0.29703180415834407  0.5094147509405219  1.0000
  H   H16       1.0  0.0463620617554454  0.20310612836832578  0.49044723260652756  1.0000
  H   H17       1.0  0.1057742918449023  0.7623994131950128  0.37966613276977074  1.0000
  H   H18       1.0  0.7255315855824235  0.7379610435617607  0.6209623234376096  1.0000
  H   H19       1.0  0.8942232761528929  0.2376000166296066  0.6203333564618063  1.0000
  H   H20       1.0  0.27446435342812237  0.2620410047509054  0.3790379451709996  1.0000
  H   H21       1.0  0.0886132672997206  0.6337517126980219  0.22308201352434762  1.0000
  H   H22       1.0  0.8661227092236458  0.8667653695015572  0.7773994393271695  1.0000
  H   H23       1.0  0.9113823397682096  0.366243779230892  0.7769175883744311  1.0000
  H   H24       1.0  0.1338716015026762  0.13323930775052867  0.22260035194015876  1.0000
  C   C1        1.0  0.4184077840988322  0.5037585724523765  0.2444119671251102  1.0000
  C   C2        1.0  0.1742014794904208  0.996268061993554  0.755559623459469  1.0000
  C   C3        1.0  0.5815933731130514  0.49624216632852847  0.7555878867805532  1.0000
  C   C4        1.0  0.8257995442414054  0.0037300437824753997  0.24444122048057443  1.0000
  C   C5        1.0  0.6112510236786973  0.47260656446243143  0.3066277224410641  1.0000
  C   C6        1.0  0.30439045290344063  0.0270769276846892  0.693113737440264  1.0000
  C   C7        1.0  0.3887501995701967  0.5273954803695418  0.6933728931657157  1.0000
  C   C8        1.0  0.6956121991126096  0.9729185491519274  0.3068875838410676  1.0000
  C   C9        1.0  0.6199382742861062  0.543899951074195  0.3948514419376822  1.0000
  C   C10       1.0  0.22418481325323106  0.9557401923354264  0.6049493740485232  1.0000
  C   C11       1.0  0.38006125464154644  0.4561034166461226  0.6051479346266931  1.0000
  C   C12       1.0  0.7758212955513739  0.0442539761296601  0.3950514168638009  1.0000
  C   C13       1.0  0.4382789983066998  0.6475781646629243  0.42155670667565204  1.0000
  C   C14       1.0  0.0156421268098228  0.8523606719014793  0.5785405136727989  1.0000
  C   C15       1.0  0.5617221592566891  0.35242257934365995  0.5784425188708511  1.0000
  C   C16       1.0  0.9843605919462631  0.14763612143757138  0.42146031259133576  1.0000
  C   C17       1.0  0.2469819401208966  0.6799060350031638  0.35979848113886004  1.0000
  C   C18       1.0  0.8866602032043713  0.8203111774625214  0.6405478484803241  1.0000
  C   C19       1.0  0.7530156275253856  0.32009338959576894  0.6402016364518773  1.0000
  C   C20       1.0  0.11334088761898899  0.17968825004162878  0.359451872083362  1.0000
  C   C21       1.0  0.23622589682373266  0.6074834956784586  0.27150443249472295  1.0000
  C   C22       1.0  0.9648486373971537  0.8927858048109486  0.7287671172571353  1.0000
  C   C23       1.0  0.763773299458286  0.3925133052067408  0.7284955340781423  1.0000
  C   C24       1.0  0.0351490633776805  0.10721624756716612  0.2712326386583754  1.0000
  O   O1        1.0  0.6516044074058271  0.4143895226006364  0.10984130872412831  1.0000
  O   O2        1.0  0.5422238322403246  0.08568317831182531  0.8899904580867714  1.0000
  O   O3        1.0  0.34839498804176117  0.5856112121148129  0.8901590578746337  1.0000
  O   O4        1.0  0.457775496467235  0.91431623990119  0.11001040352918783  1.0000
  O   O5        1.0  0.21691638472219665  0.5032623048582252  0.0762569040748033  1.0000
  O   O6        1.0  0.14134671233497895  0.9967718544875196  0.9237729329220556  1.0000
  O   O7        1.0  0.7830830107253917  0.4967384298572241  0.9237434625239587  1.0000
  O   O8        1.0  0.8586526831126164  0.0032288802279368005  0.07622743367670641  1.0000
  O   O9        1.0  0.29515351129596473  0.21735937408044495  0.11299853626480433  1.0000
  O   O10       1.0  0.1824036459232588  0.2826604718396339  0.8869464323386823  1.0000
  O   O11       1.0  0.7048458177631005  0.7826400493582568  0.8870016969919876  1.0000
  O   O12       1.0  0.8175975112886249  0.7173402669412711  0.11305342156697415  1.0000
