data_image0
_chemical_formula_structural       Zn2H12C8N16
_chemical_formula_sum              "Zn2 H12 C8 N16"
_cell_length_a       9.332884420793905
_cell_length_b       9.535097421047501
_cell_length_c       9.535132033565144
_cell_angle_alpha    92.98075032814836
_cell_angle_beta     114.14675239310672
_cell_angle_gamma    114.14655043546695

_space_group_name_H-M_alt    "P 1"
_space_group_IT_number       1

loop_
  _space_group_symop_operation_xyz
  'x, y, z'

loop_
  _atom_site_type_symbol
  _atom_site_label
  _atom_site_symmetry_multiplicity
  _atom_site_fract_x
  _atom_site_fract_y
  _atom_site_fract_z
  _atom_site_occupancy
  Zn  Zn1       1.0  0.6032605805454311  0.428144997699647  0.14005919666992378  1.0000
  Zn  Zn2       1.0  0.10326065922453145  0.14005956274223047  0.4281441425444541  1.0000
  H   H1        1.0  0.8890325858631201  0.9564682030466969  0.08851094174197266  1.0000
  H   H2        1.0  0.3890331038124798  0.08851115829425277  0.956468106135105  1.0000
  H   H3        1.0  0.6645509453433718  0.8038685515015089  0.01444422174051132  1.0000
  H   H4        1.0  0.1645467222419867  0.014442688695957898  0.80386544345658  1.0000
  H   H5        1.0  0.8218990942652907  0.7558767224258673  0.9995586612342605  1.0000
  H   H6        1.0  0.32189848722690306  0.9995593815701509  0.755876168733451  1.0000
  H   H7        1.0  0.685705618976577  0.4121237033272179  0.48046967167875465  1.0000
  H   H8        1.0  0.18570533863012162  0.4804697218275962  0.4121252345048418  1.0000
  H   H9        1.0  0.5629715197164061  0.23429914957173273  0.5221836944649992  1.0000
  H   H10       1.0  0.06296592116445492  0.5221811550303385  0.23429965681801684  1.0000
  H   H11       1.0  0.5637997395217836  0.41502800254144034  0.581658964096654  1.0000
  H   H12       1.0  0.0638002061449965  0.5816605600134536  0.41502964826455707  1.0000
  C   C1        1.0  0.8494326224792913  0.7967416039470406  0.23382700984834767  1.0000
  C   C2        1.0  0.34943401390175677  0.23382686019676405  0.796739977471958  1.0000
  C   C3        1.0  0.40438708873588763  0.30134186655202905  0.3332846471177433  1.0000
  C   C4        1.0  0.9043854548346884  0.3332851325952006  0.30134517711246633  1.0000
  C   C5        1.0  0.8048419458755587  0.8311106481182547  0.0759749866038603  1.0000
  C   C6        1.0  0.3048410135728616  0.07597300782622801  0.8311108491019752  1.0000
  C   C7        1.0  0.563460413492038  0.342674945059997  0.4879986453989459  1.0000
  C   C8        1.0  0.06345910801768169  0.4879955341327502  0.34267749772902784  1.0000
  N   N1        1.0  0.9706508788167909  0.9037140754219593  0.3757186756084394  1.0000
  N   N2        1.0  0.47065112055178554  0.37571888214127097  0.9037135452164408  1.0000
  N   N3        1.0  0.7756500678554161  0.6547056015698303  0.26184277939055517  1.0000
  N   N4        1.0  0.27565071733316415  0.26184376588271613  0.6547040074235895  1.0000
  N   N5        1.0  0.13111422600663045  0.21011487763013287  0.14595108984165248  1.0000
  N   N6        1.0  0.6311137283827152  0.14595145290640224  0.21011427051625017  1.0000
  N   N7        1.0  0.40684056617809006  0.3387150316114996  0.2001379203706932  1.0000
  N   N8        1.0  0.9068410801429678  0.20013805690383177  0.33871805311370906  1.0000
  N   N9        1.0  0.23480356215123516  0.2800619533529982  0.08552268832295337  1.0000
  N   N10       1.0  0.7348027489661391  0.085521352234224  0.2800619733964566  1.0000
  N   N11       1.0  0.9687147091232758  0.8257732736082202  0.49092175598284626  1.0000
  N   N12       1.0  0.4687150890720985  0.49092267182976473  0.8257732403225475  1.0000
  N   N13       1.0  0.23328239612013849  0.2211981490168071  0.3013396529294639  1.0000
  N   N14       1.0  0.7332827598760191  0.3013405570631135  0.2212019063350041  1.0000
  N   N15       1.0  0.8526256494434037  0.6769997346544584  0.4231067764422676  1.0000
  N   N16       1.0  0.3526272531763936  0.4231068951210729  0.6769988050073579  1.0000
