data_image0
_chemical_formula_structural       Zn8H29C62I5O38
_chemical_formula_sum              "Zn8 H29 C62 I5 O38"
_cell_length_a       18.635368434290264
_cell_length_b       18.399761369253767
_cell_length_c       18.190977190666292
_cell_angle_alpha    119.93280558726346
_cell_angle_beta     90.17516607557575
_cell_angle_gamma    119.98321552866221

_space_group_name_H-M_alt    "P 1"
_space_group_IT_number       1

loop_
  _space_group_symop_operation_xyz
  'x, y, z'

loop_
  _atom_site_type_symbol
  _atom_site_label
  _atom_site_symmetry_multiplicity
  _atom_site_fract_x
  _atom_site_fract_y
  _atom_site_fract_z
  _atom_site_occupancy
  Zn  Zn1       1.0  0.46643321840748087  0.4230995634704869  0.8704281903869598  1.0000
  Zn  Zn2       1.0  0.46148156842772886  0.5876518493358986  0.0446866336802714  1.0000
  Zn  Zn3       1.0  0.6305747685351831  0.5810689580125868  0.05060163600968079  1.0000
  Zn  Zn4       1.0  0.4528892032075476  0.4068873910710807  0.04188094523552619  1.0000
  Zn  Zn5       1.0  0.0538795466423139  0.5994853884992538  0.6332647731167498  1.0000
  Zn  Zn6       1.0  0.874565838894334  0.4087644644072342  0.4637582798774601  1.0000
  Zn  Zn7       1.0  0.04668096080182238  0.41435814971274004  0.45547119816669823  1.0000
  Zn  Zn8       1.0  0.03743947133826707  0.5759232131529047  0.44599125788035804  1.0000
  H   H1        1.0  0.5846561256793947  0.28109031505371024  0.6792929081011536  1.0000
  H   H2        1.0  0.2033750233019802  0.24373493935279106  0.10297034961187988  1.0000
  H   H3        1.0  0.8167786874884867  0.8972436942373677  0.23706389572752323  1.0000
  H   H4        1.0  0.6322127368935072  0.09596062381763211  0.3245083093972312  1.0000
  H   H5        1.0  0.5618874325652854  0.9120707211298581  0.1265819522639759  1.0000
  H   H6        1.0  0.2876189337956703  0.10587739393216809  0.6796240141077092  1.0000
  H   H7        1.0  0.1382489356914433  0.3382460536149239  0.5990334656349245  1.0000
  H   H8        1.0  0.31838580575355013  0.7440031204956982  0.8419643332543955  1.0000
  H   H9        1.0  0.23426682015850983  0.7041949939796125  0.8881195930520105  1.0000
  H   H10       1.0  0.4112002631806461  0.734617421361321  0.9329588659013124  1.0000
  H   H11       1.0  0.328729675622526  0.6969985223830334  0.9811841635768557  1.0000
  H   H12       1.0  0.7862784884585139  0.5315380310916427  0.14537595457426278  1.0000
  H   H13       1.0  0.327825829303002  0.07513870152303054  0.8226357586830132  1.0000
  H   H14       1.0  0.920315523151352  0.6808716734292802  0.8254108924702235  1.0000
  H   H15       1.0  0.6803240859185917  0.2786864467350936  0.5835456153172911  1.0000
  H   H16       1.0  0.5459989586414621  0.329584356857154  0.6374550569422295  1.0000
  H   H17       1.0  0.44307341097557174  0.4515662226561973  0.2925477254291806  1.0000
  H   H18       1.0  0.5912058929994756  0.14060359209419462  0.16722321771488416  1.0000
  H   H19       1.0  0.48222285540265375  0.870037691454904  0.31409186083333634  1.0000
  H   H20       1.0  0.17135032155155017  0.16787790166607403  0.578345439571599  1.0000
  H   H21       1.0  0.9366609868723401  0.8420796879060081  0.032878820077513596  1.0000
  H   H22       1.0  0.591490528326581  0.37186342363396113  0.4725088553523093  1.0000
  H   H23       1.0  0.8854097738857191  0.5237757010565219  0.22821586887078377  1.0000
  H   H24       1.0  0.6126419187839857  0.30138958621697054  0.3018955623039687  1.0000
  H   H25       1.0  0.667956622038254  0.4295555954943283  0.4008305110464859  1.0000
  H   H26       1.0  0.5147367754031436  0.3376364865602995  0.24274666999559708  1.0000
  H   H27       1.0  0.30179479117530417  0.6181287909126285  0.20068840756623268  1.0000
  H   H28       1.0  0.2097826752906613  0.6209630322572224  0.29997307573903936  1.0000
  H   H29       1.0  0.19187091449981608  0.9280384548629782  0.7452969546819261  1.0000
  C   C1        1.0  0.3507061966630332  0.48732462244410624  0.12276307036276528  1.0000
  C   C2        1.0  0.6042574526270458  0.33668412947174897  0.6627376768967534  1.0000
  C   C3        1.0  0.6525000385238614  0.432239372099801  0.2418683178570262  1.0000
  C   C4        1.0  0.6520074643831181  0.5229691581818586  0.8759235331845046  1.0000
  C   C5        1.0  0.6786651714865712  0.4710417240642358  0.1903003362194298  1.0000
  C   C6        1.0  0.7634907483508401  0.5009411699405464  0.18502768238990794  1.0000
  C   C7        1.0  0.8188760981164833  0.49547444133606433  0.23065210189068341  1.0000
  C   C8        1.0  0.7916687275747661  0.4563295858205124  0.28256682095847196  1.0000
  C   C9        1.0  0.7065833145967133  0.42235580628221925  0.2840783744092832  1.0000
  C   C10       1.0  0.6425133065296932  0.3817864953458567  0.3269068136708383  1.0000
  C   C11       1.0  0.5842328601829719  0.39908935609099666  0.2838478235468286  1.0000
  C   C12       1.0  0.3292170411004989  0.11378837938278244  0.7921849328974133  1.0000
  C   C13       1.0  0.24480038704300003  0.40614923726194974  0.1875764076309352  1.0000
  C   C14       1.0  0.28644776428952673  0.4815702261913374  0.17173404361765418  1.0000
  C   C15       1.0  0.27112036063482486  0.5583108210049232  0.21237540344938566  1.0000
  C   C16       1.0  0.35595000176797237  0.4908730200349325  0.8620690781180256  1.0000
  C   C17       1.0  0.2199503305567062  0.5601664318497583  0.2682920060417117  1.0000
  C   C18       1.0  0.1823708737258514  0.4869842744027509  0.28831903757417615  1.0000
  C   C19       1.0  0.19573242051104953  0.4094279355012773  0.24530084567101798  1.0000
  C   C20       1.0  0.18056277498728693  0.31630239711721236  0.23596481060931035  1.0000
  C   C21       1.0  0.2395809530516146  0.3144941308249685  0.1714338517522407  1.0000
  C   C22       1.0  0.6687469924219157  0.9465638680447553  0.220289649847679  1.0000
  C   C23       1.0  0.6822762911100924  0.4457824519495334  0.7336764305323127  1.0000
  C   C24       1.0  0.7001833717597847  0.8872992255427126  0.20395958916675735  1.0000
  C   C25       1.0  0.7903339030143074  0.9414549161219274  0.24779467568029648  1.0000
  C   C26       1.0  0.8458852585809067  0.04909542419791518  0.3038081641971003  1.0000
  C   C27       1.0  0.813590728566922  0.10903666134471736  0.3193236373145821  1.0000
  C   C28       1.0  0.6247188267529252  0.48321313555555184  0.1425680020080193  1.0000
  C   C29       1.0  0.7234745760702381  0.052972451008372334  0.2766988624564418  1.0000
  C   C30       1.0  0.6501584835334953  0.06458316814978823  0.2642637180738561  1.0000
  C   C31       1.0  0.587041296066495  0.9409395617318526  0.19676792543939567  1.0000
  C   C32       1.0  0.29462157905830827  0.5736294143199672  0.83894036057373  1.0000
  C   C33       1.0  0.29169159513793375  0.48577062809396676  0.8071008336108747  1.0000
  C   C34       1.0  0.7112240123090531  0.5308291440821197  0.8208124734796413  1.0000
  C   C35       1.0  0.23120154681202368  0.3987728874365501  0.7191359736837056  1.0000
  C   C36       1.0  0.18302353368913063  0.40575641358551456  0.6667103799272525  1.0000
  C   C37       1.0  0.1884914110358409  0.49650370529060694  0.6993946376400969  1.0000
  C   C38       1.0  0.24389264931754437  0.5789960073292376  0.7874994621019408  1.0000
  C   C39       1.0  0.281845619147134  0.6904298276793028  0.8603428380047972  1.0000
  C   C40       1.0  0.6425896054936757  0.7732176836235  0.14466060857972  1.0000
  C   C41       1.0  0.3400621597330087  0.684925107094145  0.9181390358755548  1.0000
  C   C42       1.0  0.8531941000540613  0.4627670124563041  0.3415029370239963  1.0000
  C   C43       1.0  0.13817791317804043  0.5021588709184357  0.6411483879965301  1.0000
  C   C44       1.0  0.8782347271315556  0.521568990803459  0.65242949943417  1.0000
  C   C45       1.0  0.7990040093935704  0.617364789010516  0.852244350421543  1.0000
  C   C46       1.0  0.1341249928856527  0.4955213056857418  0.3535244733176625  1.0000
  C   C47       1.0  0.8675530340817872  0.22322954146488885  0.3733588493634698  1.0000
  C   C48       1.0  0.12812850691164354  0.7762380547910795  0.6218716127966529  1.0000
  C   C49       1.0  0.38314181686842363  0.22747294886297445  0.8528141872720381  1.0000
  C   C50       1.0  0.2227967681168153  0.9499602207321872  0.6448234247136355  1.0000
  C   C51       1.0  0.18183409830488975  0.8891855997262043  0.6732733983308206  1.0000
  C   C52       1.0  0.2813063155564564  0.06174522333268578  0.7058533656192835  1.0000
  C   C53       1.0  0.3272354573715717  0.33633625730189465  0.20589157237900926  1.0000
  C   C54       1.0  0.6584325193979766  0.11852689784686996  0.22051738133431084  1.0000
  C   C55       1.0  0.5096918253883445  0.8856323626113608  0.2207659717588086  1.0000
  C   C56       1.0  0.8530521412297389  0.6134746319002602  0.7987799067252934  1.0000
  C   C57       1.0  0.21078218891413772  0.29580739925263805  0.6851981896135797  1.0000
  C   C58       1.0  0.8320369000946214  0.7181451524030322  0.9386805000406324  1.0000
  C   C59       1.0  0.6309457710643683  0.3177917634175315  0.5145672869100435  1.0000
  C   C60       1.0  0.8223974159423263  0.5262922595155146  0.7106579541217355  1.0000
  C   C61       1.0  0.7353264186413284  0.4438314831410538  0.6800377147984802  1.0000
  C   C62       1.0  0.6647279267392818  0.33412623557021703  0.6007573523523815  1.0000
  I   I1        1.0  0.2139528246733491  0.895956149507242  0.5097574963218604  1.0000
  I   I2        1.0  0.583586977890576  0.5275239086602781  0.3908369253103742  1.0000
  I   I3        1.0  0.23033039316994322  0.3378954276542602  0.3582117599047621  1.0000
  I   I4        1.0  0.043586381595929403  0.18358935110464367  0.1637668194271029  1.0000
  I   I5        1.0  0.977580626798968  0.11313237539026487  0.36625007958913597  1.0000
  O   O1        1.0  0.5022405400229885  0.4985204104943365  0.0022509148513166  1.0000
  O   O2        1.0  0.10884391533065947  0.43028946446960953  0.3723549493791295  1.0000
  O   O3        1.0  0.8277959436418314  0.2646043346871211  0.4099627698184634  1.0000
  O   O4        1.0  0.3573332469867836  0.41180330003219023  0.0851753679800993  1.0000
  O   O5        1.0  0.0917019780612733  0.7224304697947518  0.5368204849362073  1.0000
  O   O6        1.0  0.9470276076127676  0.26924062322768816  0.376861183162049  1.0000
  O   O7        1.0  0.1231062374306759  0.7423394179111967  0.6697805861871089  1.0000
  O   O8        1.0  0.9612976223819274  0.5880307785498643  0.6894756553342984  1.0000
  O   O9        1.0  0.12263940704745119  0.566866518062682  0.3854292797522944  1.0000
  O   O10       1.0  0.8193081587057023  0.4199622402439829  0.38158525714382546  1.0000
  O   O11       1.0  0.11017365538683072  0.4340202961764918  0.5565022619990003  1.0000
  O   O12       1.0  0.3902409092715756  0.4440444688600777  0.8209827417876736  1.0000
  O   O13       1.0  0.5706282688787282  0.471845244590881  0.8331270072731696  1.0000
  O   O14       1.0  0.37470068129476186  0.5484113993307107  0.9471058415736379  1.0000
  O   O15       1.0  0.6660633536778775  0.5384664615821678  0.11457706316232928  1.0000
  O   O16       1.0  0.5614408808051508  0.7323057414421259  0.10967016752136519  1.0000
  O   O17       1.0  0.40295472403839466  0.2658045082955097  0.9369582506633163  1.0000
  O   O18       1.0  0.6783052776357296  0.7267635337005773  0.13451962097041556  1.0000
  O   O19       1.0  0.4043193476796461  0.27614867501110035  0.8165775353138754  1.0000
  O   O20       1.0  0.34124726725119814  0.27109426394380887  0.18170029115509578  1.0000
  O   O21       1.0  0.387290463721449  0.43813642632283506  0.2668134129659308  1.0000
  O   O22       1.0  0.7235812018635742  0.16578526270483718  0.20569422744880228  1.0000
  O   O23       1.0  0.5426973063543413  0.43716503341387647  0.13252849093882446  1.0000
  O   O24       1.0  0.581553361233695  0.10627150592469554  0.19723506736442425  1.0000
  O   O25       1.0  0.4328050342477709  0.8274203106998005  0.1728916124388036  1.0000
  O   O26       1.0  0.5358622653042815  0.9086643162359426  0.3039854673904329  1.0000
  O   O27       1.0  0.20983609684167695  0.26550732838511226  0.7318082088539979  1.0000
  O   O28       1.0  0.18832870299240764  0.2347687969360379  0.5936527109078255  1.0000
  O   O29       1.0  0.7867647019101297  0.7487031973891263  0.9680913938316491  1.0000
  O   O30       1.0  0.9205723818386673  0.7759049424593274  0.9800862416307579  1.0000
  O   O31       1.0  0.6152322168778712  0.24806963978909402  0.4387803977802136  1.0000
  O   O32       1.0  0.6166136594644342  0.3894081119043803  0.5310316684589791  1.0000
  O   O33       1.0  0.39543710496399603  0.5684779721010147  0.12493750853018068  1.0000
  O   O34       1.0  0.6865191136362226  0.561502918977716  0.9577720050620611  1.0000
  O   O35       1.0  0.003255405187715576  0.5012024627565168  0.5016881615241144  1.0000
  O   O36       1.0  0.9342757262255573  0.5138662169149555  0.34979204950415266  1.0000
  O   O37       1.0  0.1284460508141905  0.5751595239022863  0.6809040455100046  1.0000
  O   O38       1.0  0.8357995883271914  0.44870727117967163  0.5689408533715863  1.0000
