data_image0
_chemical_formula_structural       Sr2CuH26C18O22
_chemical_formula_sum              "Sr2 Cu1 H26 C18 O22"
_cell_length_a       7.090017378198174
_cell_length_b       10.008682510308946
_cell_length_c       10.391907711618531
_cell_angle_alpha    66.03950688926818
_cell_angle_beta     72.73072952184312
_cell_angle_gamma    80.42158128148978

_space_group_name_H-M_alt    "P 1"
_space_group_IT_number       1

loop_
  _space_group_symop_operation_xyz
  'x, y, z'

loop_
  _atom_site_type_symbol
  _atom_site_label
  _atom_site_symmetry_multiplicity
  _atom_site_fract_x
  _atom_site_fract_y
  _atom_site_fract_z
  _atom_site_occupancy
  Sr  Sr1       1.0  0.9745759442519314  0.4647168855181576  0.26226950399354376  1.0000
  Sr  Sr2       1.0  0.0254225613744481  0.5352813651368818  0.7377336130775163  1.0000
  Cu  Cu1       1.0  0.49998985058600465  0.9999992116104222  0.5000001809027169  1.0000
  H   H1        1.0  0.38354477859157743  0.7061626219528776  0.06665962987290912  1.0000
  H   H2        1.0  0.6164582208327473  0.29383451984273284  0.9333401176430485  1.0000
  H   H3        1.0  0.08569664141276688  0.9677537461749702  0.3168863219493973  1.0000
  H   H4        1.0  0.9143092238396235  0.032244488692647594  0.6831114400159137  1.0000
  H   H5        1.0  0.2273167025930931  0.16325813140068848  0.8516076214521462  1.0000
  H   H6        1.0  0.7726991344070981  0.8367456511674688  0.14839262314017546  1.0000
  H   H7        1.0  0.1667026190671308  0.8774438995562619  0.6368570014017152  1.0000
  H   H8        1.0  0.833283872403598  0.12255647190291799  0.36314196728969955  1.0000
  H   H9        1.0  0.24934442465698214  0.8497574264058086  0.487170998721389  1.0000
  H   H10       1.0  0.7506406021864295  0.15024295731935666  0.5128301906557837  1.0000
  H   H11       1.0  0.7288578003821158  0.7339053844669933  0.3811783876809971  1.0000
  H   H12       1.0  0.2711332213759761  0.2660939236752639  0.6188229597783207  1.0000
  H   H13       1.0  0.741343890274571  0.5719653695618375  0.491673160871038  1.0000
  H   H14       1.0  0.2586560043894153  0.42803397125036463  0.5083282752274556  1.0000
  H   H15       1.0  0.3110325796136948  0.2222928539307957  0.33435526311235714  1.0000
  H   H16       1.0  0.6889699358645203  0.7777108644516131  0.6656429324135403  1.0000
  H   H17       1.0  0.1315117145650078  0.1529925761506234  0.46000526600908387  1.0000
  H   H18       1.0  0.8684864913133978  0.8470088906888477  0.5399879735555261  1.0000
  H   H19       1.0  0.30949198315657606  0.48099257141713975  0.9717852633369831  1.0000
  H   H20       1.0  0.6905076604120026  0.5190100463028384  0.02821395968572929  1.0000
  H   H21       1.0  0.3887767473134006  0.36090806283662147  0.09974766118290296  1.0000
  H   H22       1.0  0.6112243791272007  0.6390945653886249  0.900252215315561  1.0000
  H   H23       1.0  0.6055078818767753  0.3514851918398277  0.2340092913536367  1.0000
  H   H24       1.0  0.3944918494446553  0.6485163386378331  0.7659913080635549  1.0000
  H   H25       1.0  0.4995098866234358  0.49117344885820546  0.2651987683658066  1.0000
  H   H26       1.0  0.500491403159728  0.5088269897015748  0.7348019448139524  1.0000
  C   C1        1.0  0.3222997403585808  0.934599579547168  0.9424066589586673  1.0000
  C   C2        1.0  0.6777101833982114  0.0654041837711716  0.0575938458921499  1.0000
  C   C3        1.0  0.322534559034125  0.8118835216166786  0.07114301404801893  1.0000
  C   C4        1.0  0.6774712549548312  0.1881158460357639  0.9288591198458036  1.0000
  C   C5        1.0  0.2404055100067097  0.8233895298420676  0.20661934187633352  1.0000
  C   C6        1.0  0.7595956468417527  0.17661313633526277  0.7933853248912967  1.0000
  C   C7        1.0  0.15197109260955707  0.9575725116912962  0.21228689044419016  1.0000
  C   C8        1.0  0.848034539792138  0.0424290228553588  0.787711532606835  1.0000
  C   C9        1.0  0.1431390853377508  0.0787908231294949  0.08464397624540249  1.0000
  C   C10       1.0  0.8568738979975166  0.921211881547485  0.9153601700052291  1.0000
  C   C11       1.0  0.23252278380053323  0.06743156796984807  0.949980942880522  1.0000
  C   C12       1.0  0.7674842558834739  0.9325710795052227  0.05001867335943921  1.0000
  C   C13       1.0  0.4093999401008475  0.9209228739579345  0.7986593095848775  1.0000
  C   C14       1.0  0.5905985047098241  0.07907530079292968  0.20133422694784286  1.0000
  C   C15       1.0  0.23811623226740855  0.6908909158200414  0.3444483415664622  1.0000
  C   C16       1.0  0.7618957095709504  0.3091051486319357  0.655549996821648  1.0000
  C   C17       1.0  0.03516404266212451  0.22070636074709427  0.08818817018195801  1.0000
  C   C18       1.0  0.964838121178836  0.7792820042909696  0.9118133125296097  1.0000
  O   O1        1.0  0.3972316697677059  0.034522904967722895  0.6831614507026772  1.0000
  O   O2        1.0  0.6027559900530689  0.9654818715084873  0.3168384142095633  1.0000
  O   O3        1.0  0.4892492785543538  0.798941308811557  0.7941310018809276  1.0000
  O   O4        1.0  0.5107510123028973  0.20105254265615  0.20587060981313957  1.0000
  O   O5        1.0  0.2540007663655288  0.5647081034066374  0.33672879137704836  1.0000
  O   O6        1.0  0.7459993550675816  0.4352879301361199  0.6632710255818922  1.0000
  O   O7        1.0  0.215424560232286  0.7084851418631073  0.4627775833727129  1.0000
  O   O8        1.0  0.7845712064191658  0.29150978051194437  0.5372226076072906  1.0000
  O   O9        1.0  0.9492689931407979  0.2283833610206045  0.2129959975171829  1.0000
  O   O10       1.0  0.05073967451308899  0.7716170845230151  0.7870022347183295  1.0000
  O   O11       1.0  0.034206838556968905  0.32475634875137155  0.9687662880868332  1.0000
  O   O12       1.0  0.9657935252791249  0.6752375938013414  0.03124682025323717  1.0000
  O   O13       1.0  0.243319993530946  0.9257998315398904  0.5304015621358148  1.0000
  O   O14       1.0  0.756659107905918  0.074200517754619  0.46959797139218307  1.0000
  O   O15       1.0  0.7567723154066145  0.6333693912512217  0.38626693530331113  1.0000
  O   O16       1.0  0.2432260207956389  0.3666310414788611  0.6137343870326077  1.0000
  O   O17       1.0  0.19597819611658449  0.2457424274984845  0.40563336749363543  1.0000
  O   O18       1.0  0.8040230936665794  0.7542580110612959  0.5943673456861234  1.0000
  O   O19       1.0  0.2950203206842588  0.44618953113361925  0.07761594172297494  1.0000
  O   O20       1.0  0.704979404555594  0.5538119917536263  0.9223836996403847  1.0000
  O   O21       1.0  0.629474108715783  0.4483419475761534  0.22715274200800917  1.0000
  O   O22       1.0  0.37052718106738064  0.5516584909836267  0.7728479711717426  1.0000
