data_image0
_chemical_formula_structural       C44Cl2H42N16Zn4
_chemical_formula_sum              "C44 Cl2 H42 N16 Zn4"
_cell_length_a       13.003822448694365
_cell_length_b       13.328014326172458
_cell_length_c       14.456895468110574
_cell_angle_alpha    98.35135444841833
_cell_angle_beta     114.482272086672
_cell_angle_gamma    108.86700704496225

_space_group_name_H-M_alt    "P 1"
_space_group_IT_number       1

loop_
  _space_group_symop_operation_xyz
  'x, y, z'

loop_
  _atom_site_type_symbol
  _atom_site_label
  _atom_site_symmetry_multiplicity
  _atom_site_fract_x
  _atom_site_fract_y
  _atom_site_fract_z
  _atom_site_occupancy
  C   C1        1.0  0.5432715038053004  0.7748145995130997  0.11777694289052221  1.0000
  C   C2        1.0  0.542223158908385  0.11692151243916996  0.13641168320972247  1.0000
  C   C3        1.0  0.7277864710426772  0.41835747252759625  0.888797669430886  1.0000
  C   C4        1.0  0.16503054585865579  0.17571165035538885  0.6996647045688248  1.0000
  C   C5        1.0  0.49178951885893035  0.6472352014412764  0.6992821370799761  1.0000
  C   C6        1.0  0.9384219254421853  0.8713172176013445  0.5083122292529082  1.0000
  C   C7        1.0  0.6351034624362343  0.6699585943862234  0.5110048598208294  1.0000
  C   C8        1.0  0.9474626394736066  0.49791250176896573  0.6666877454718759  1.0000
  C   C9        1.0  0.01373899701933139  0.9720758809089534  0.6134452488218969  1.0000
  C   C10       1.0  0.6324113566383648  0.6864875137122229  0.6180385171256191  1.0000
  C   C11       1.0  0.11741725174888283  0.9417058034489614  0.4726384872993349  1.0000
  C   C12       1.0  0.4541117629412456  0.4838508036880216  0.4385701418662009  1.0000
  C   C13       1.0  0.9412892834149325  0.9984080361831223  0.3984476804867326  1.0000
  C   C14       1.0  0.41805711388222017  0.6536918869576384  0.41026566294329564  1.0000
  C   C15       1.0  0.9747369123567824  0.9008959541112208  0.4231690688470238  1.0000
  C   C16       1.0  0.503463965405253  0.5941949668103138  0.4152274250747822  1.0000
  C   C17       1.0  0.0942574791131677  0.07608236237589244  0.5992372135477096  1.0000
  C   C18       1.0  0.49732331349467573  0.634584435044211  0.596822759995291  1.0000
  C   C19       1.0  0.1873550964446624  0.047649836589613456  0.5724529355380171  1.0000
  C   C20       1.0  0.4374223702589859  0.5067833713257103  0.537358294328989  1.0000
  C   C21       1.0  0.4051605145907687  0.4923025722937383  0.2102405693493523  1.0000
  C   C22       1.0  0.8347523153071564  0.7921867785947188  0.2167562755530525  1.0000
  C   C23       1.0  0.006904711414684327  0.09921017905068645  0.5023821100719417  1.0000
  C   C24       1.0  0.6487577840979669  0.2207436975038562  0.18515216138011678  1.0000
  C   C25       1.0  0.4234361092826194  0.686160291270838  0.5205267370105348  1.0000
  C   C26       1.0  0.8134421788189459  0.4153308191095635  0.8499517935736236  1.0000
  C   C27       1.0  0.5384795537061251  0.007701774405326652  0.13846886177317697  1.0000
  C   C28       1.0  0.8195273869392713  0.4366609028579022  0.7629238433184187  1.0000
  C   C29       1.0  0.43988071218352337  0.9105056515390404  0.11150091652508115  1.0000
  C   C30       1.0  0.7305132869001628  0.38862736513105045  0.9792814128414165  1.0000
  C   C31       1.0  0.04243458098397249  0.4629078915141066  0.8163172491737001  1.0000
  C   C32       1.0  0.3374502890890697  0.698370202870649  0.020170126179614584  1.0000
  C   C33       1.0  0.891932955570688  0.6903229099913876  0.31668418857827857  1.0000
  C   C34       1.0  0.6111591890102517  0.5720289118144279  0.30193208264105204  1.0000
  C   C35       1.0  0.43994496926178794  0.8005407094447963  0.09139135715465586  1.0000
  C   C36       1.0  0.9268753246685864  0.4604747505339264  0.747218107544292  1.0000
  C   C37       1.0  0.5061165041969107  0.5618330766747734  0.3123721003898652  1.0000
  C   C38       1.0  0.9061126901755332  0.8005510527487305  0.3237764162363562  1.0000
  C   C39       1.0  0.6459159606688801  0.47093649193342924  0.866582980477645  1.0000
  C   C40       1.0  0.4447328466644294  0.1443855527191432  0.07612973187202947  1.0000
  C   C41       1.0  0.21989737486539004  0.17725673396721228  0.8061084450773635  1.0000
  C   C42       1.0  0.5890356009547235  0.6838013302445279  0.805362317286459  1.0000
  C   C43       1.0  0.38388952983680047  0.6004458306215172  0.7075740432948123  1.0000
  C   C44       1.0  0.1969265524845627  0.28957119443087015  0.7094556795275722  1.0000
  Cl  Cl1       1.0  0.6924713413748693  0.4447123939882547  0.661007123675006  1.0000
  Cl  Cl2       1.0  0.2943013686412928  0.9077275344373777  0.08268254680323399  1.0000
  H   H1        1.0  0.6415546313570675  0.8279383022468922  0.17274575029808406  1.0000
  H   H2        1.0  0.6859937758854502  0.647443678830932  0.6682150180076292  1.0000
  H   H3        1.0  0.07466186294120582  0.9512496282260089  0.6795797962545578  1.0000
  H   H4        1.0  0.14166100627812764  0.8733111183093885  0.49377428103208143  1.0000
  H   H5        1.0  0.5207361332574508  0.44633993568400865  0.4503829953410232  1.0000
  H   H6        1.0  0.2534378946768357  0.035732767725747364  0.6428052023441211  1.0000
  H   H7        1.0  0.4785673161256272  0.4654654005614845  0.593342748342529  1.0000
  H   H8        1.0  0.8823529385954388  0.5102895061804633  0.5975096219573999  1.0000
  H   H9        1.0  0.9683928042479052  0.023496577473935146  0.3397175921068721  1.0000
  H   H10       1.0  0.32175513301595543  0.5977888737729345  0.34667574832950976  1.0000
  H   H11       1.0  0.8391753416271541  0.968586669541729  0.36026759346534476  1.0000
  H   H12       1.0  0.4469975673305485  0.7283077829745893  0.38672331339774496  1.0000
  H   H13       1.0  0.9381178931330255  0.11645625797160643  0.5193287304926457  1.0000
  H   H14       1.0  0.4686974672071786  0.7777571429044629  0.5585204991939533  1.0000
  H   H15       1.0  0.06110849263283328  0.1754101938039696  0.49266371713809326  1.0000
  H   H16       1.0  0.32877164207322834  0.6571959553641025  0.5101558796172867  1.0000
  H   H17       1.0  0.14329172182650757  0.9581622846600979  0.411123529580365  1.0000
  H   H18       1.0  0.3655325773556159  0.42386761820834823  0.3672735843625787  1.0000
  H   H19       1.0  0.30541462767524763  0.4623427007408625  0.18037719205669595  1.0000
  H   H20       1.0  0.8214066530456637  0.8576637730141389  0.18317890252582456  1.0000
  H   H21       1.0  0.24285763049745424  0.12031734896788045  0.5593440491534807  1.0000
  H   H22       1.0  0.3377963957258532  0.4730965051645414  0.5139804566736643  1.0000
  H   H23       1.0  0.8945453868800118  0.4058095691148512  0.9062940971906102  1.0000
  H   H24       1.0  0.8374803244804814  0.8461739033962065  0.47454469030244445  1.0000
  H   H25       1.0  0.625326509987261  0.9999000640598725  0.15636530196142212  1.0000
  H   H26       1.0  0.07229528491602406  0.4411273973826583  0.8897297861932215  1.0000
  H   H27       1.0  0.23888522791412492  0.6795953425694776  0.9772164935108307  1.0000
  H   H28       1.0  0.9317055569734766  0.6564372504943496  0.3797419525583336  1.0000
  H   H29       1.0  0.7095345434900651  0.6190881294675421  0.3604528507765252  1.0000
  H   H30       1.0  0.6706273229632489  0.7509324923052819  0.4986922384891628  1.0000
  H   H31       1.0  0.6162113578233462  0.5080803303319001  0.80418898492335  1.0000
  H   H32       1.0  0.3461763102046689  0.09030905386558902  0.023911948372329978  1.0000
  H   H33       1.0  0.2204436586979742  0.10853409668438026  0.8381778744119687  1.0000
  H   H34       1.0  0.6893704675032455  0.7242138841552833  0.8373289798172081  1.0000
  H   H35       1.0  0.2857896467965025  0.5629436278195074  0.6465635480773672  1.0000
  H   H36       1.0  0.17260185462063074  0.3284391756829806  0.6473872094237337  1.0000
  H   H37       1.0  0.7456141146323034  0.23936239278187108  0.23855156479704223  1.0000
  H   H38       1.0  0.7820346596586418  0.346145287982445  0.024125474760488333  1.0000
  H   H39       1.0  0.9546248443678566  0.7980685795053122  0.5243165620628218  1.0000
  H   H40       1.0  0.6992258865378037  0.6317404517255769  0.5136158628443823  1.0000
  H   H41       1.0  0.9511039887614462  0.9926236149216553  0.637490496973875  1.0000
  H   H42       1.0  0.6764210135267491  0.776174387649455  0.6643017444418289  1.0000
  N   N1        1.0  0.5051812672385908  0.6670556772002245  0.06342370669340618  1.0000
  N   N2        1.0  0.3775399604562182  0.6195830598676721  0.003046365942360317  1.0000
  N   N3        1.0  0.12175225685437861  0.49900750472502864  0.7782974387653496  1.0000
  N   N4        1.0  0.8156209537610197  0.6216923126339042  0.2139248073756264  1.0000
  N   N5        1.0  0.5757570710843112  0.5111648710099744  0.20223980153080837  1.0000
  N   N6        1.0  0.6080557372949332  0.47597861953378406  0.9408145294004555  1.0000
  N   N7        1.0  0.49011658178519474  0.25443498182952606  0.08868838890687412  1.0000
  N   N8        1.0  0.06426090013015813  0.5211298046262841  0.6856130976850564  1.0000
  N   N9        1.0  0.27903492718092365  0.2844622382158876  0.8735117230890382  1.0000
  N   N10       1.0  0.5424773049766006  0.6588747888290104  0.8715837869659354  1.0000
  N   N11       1.0  0.4150793606164814  0.6065372971134978  0.810035848514829  1.0000
  N   N12       1.0  0.2650384095056496  0.3540868412020117  0.8134179482507591  1.0000
  N   N13       1.0  0.6165899695057889  0.3026038575372072  0.15734625280548195  1.0000
  N   N14       1.0  0.659448034380361  0.4235670957410991  0.009398440021399772  1.0000
  N   N15       1.0  0.44868643365196453  0.46221150104567965  0.1455796288382558  1.0000
  N   N16       1.0  0.7787856672646786  0.6850440486150693  0.15107403431493793  1.0000
  Zn  Zn1       1.0  0.6121659969971918  0.6228710752640014  0.0100596037978704  1.0000
  Zn  Zn2       1.0  0.39278356071450554  0.33742884068812634  0.02342152861854173  1.0000
  Zn  Zn3       1.0  0.2954076829265735  0.5181447556704982  0.8518348350792451  1.0000
  Zn  Zn4       1.0  0.686489335657612  0.4631809480486313  0.1587070275460931  1.0000
