data_image0
_chemical_formula_structural       Dy4Cd4H28C20S4N8O44
_chemical_formula_sum              "Dy4 Cd4 H28 C20 S4 N8 O44"
_cell_length_a       8.58712519608293
_cell_length_b       10.497524191070719
_cell_length_c       13.794022691630435
_cell_angle_alpha    90.00003502649335
_cell_angle_beta     101.79221780981823
_cell_angle_gamma    89.99958256617437

_space_group_name_H-M_alt    "P 1"
_space_group_IT_number       1

loop_
  _space_group_symop_operation_xyz
  'x, y, z'

loop_
  _atom_site_type_symbol
  _atom_site_label
  _atom_site_symmetry_multiplicity
  _atom_site_fract_x
  _atom_site_fract_y
  _atom_site_fract_z
  _atom_site_occupancy
  Dy  Dy1       1.0  0.9329086439749616  0.8949559065158187  0.10865947679754126  1.0000
  Dy  Dy2       1.0  0.06708943265029892  0.39495689451092625  0.3913402112158195  1.0000
  Dy  Dy3       1.0  0.0670896538496706  0.10504111697716922  0.8913387192307026  1.0000
  Dy  Dy4       1.0  0.932910074849275  0.6050429867963916  0.6086610354346575  1.0000
  Cd  Cd1       1.0  0.6240516124838037  0.4825005357557259  0.13399067492073155  1.0000
  Cd  Cd2       1.0  0.3759504178334084  0.9825002161472158  0.3660088195722295  1.0000
  Cd  Cd3       1.0  0.3759538130616492  0.5175041085603453  0.866006959681691  1.0000
  Cd  Cd4       1.0  0.6240490996904599  0.017500617766224007  0.6339938782442545  1.0000
  H   H1        1.0  0.6272327312097091  0.25841634262160806  0.3378865307367818  1.0000
  H   H2        1.0  0.37276897715955937  0.7584130200676855  0.1621142747370286  1.0000
  H   H3        1.0  0.3727691254479524  0.7415873490993476  0.662110658994379  1.0000
  H   H4        1.0  0.6272269514148834  0.24158781385510514  0.837885075875178  1.0000
  H   H5        1.0  0.9964546344300018  0.8984918795386392  0.3335649655239479  1.0000
  H   H6        1.0  0.0035445945185444  0.3984902074084146  0.166434142729841  1.0000
  H   H7        1.0  0.0035448680552506006  0.10150800176840143  0.6664355555433515  1.0000
  H   H8        1.0  0.9964525136666611  0.6015087212991902  0.8335639050072032  1.0000
  H   H9        1.0  0.8087325680185629  0.9132749589762957  0.30095506198625077  1.0000
  H   H10       1.0  0.1912677154919251  0.4132750522089024  0.19904418423993767  1.0000
  H   H11       1.0  0.191269303699471  0.08672492232322071  0.6990443044957644  1.0000
  H   H12       1.0  0.8087305923439416  0.5867257817069103  0.8009554629533255  1.0000
  H   H13       1.0  0.010996422066405399  0.6343143623655153  0.16751605036877487  1.0000
  H   H14       1.0  0.9889992773004724  0.1343155246748182  0.3324832263912967  1.0000
  H   H15       1.0  0.9890006861188071  0.3656845663420967  0.8324819973682763  1.0000
  H   H16       1.0  0.011000230199101698  0.8656843566324995  0.6675180202591732  1.0000
  H   H17       1.0  0.049922405181426696  0.6889490764926763  0.2742357773892579  1.0000
  H   H18       1.0  0.9500775685942529  0.1889513374840206  0.22576623115100605  1.0000
  H   H19       1.0  0.9500782919575599  0.3110488996000171  0.7257656175524119  1.0000
  H   H20       1.0  0.0499219338953552  0.8110475912174523  0.7742342899166202  1.0000
  H   H21       1.0  0.5612119237509603  0.8854700001988507  0.0714109720571585  1.0000
  H   H22       1.0  0.4387874341941612  0.3854688031106904  0.4285895964511468  1.0000
  H   H23       1.0  0.4387875787429962  0.11452797589705455  0.9285895490108088  1.0000
  H   H24       1.0  0.5612132529205381  0.6145282203758812  0.5714103473245089  1.0000
  H   H25       1.0  0.6268244598378632  0.026389150040813495  0.08223855116344936  1.0000
  H   H26       1.0  0.37317341518923547  0.5263888886170421  0.417760949211619  1.0000
  H   H27       1.0  0.3731750426560935  0.9736088260550915  0.9177619699045109  1.0000
  H   H28       1.0  0.6268248876453625  0.47360908748179037  0.5822379723994686  1.0000
  C   C1        1.0  0.5315743016175247  0.24126493888107362  0.2744926054570128  1.0000
  C   C2        1.0  0.4684287530829536  0.7412610972819352  0.22550836027794924  1.0000
  C   C3        1.0  0.4684311540312649  0.7587358950143895  0.7255093826457822  1.0000
  C   C4        1.0  0.5315671654715431  0.2587378314291584  0.7744895391685702  1.0000
  C   C5        1.0  0.33246634906878825  0.15188727488049383  0.1755629726849861  1.0000
  C   C6        1.0  0.6675291897507877  0.6518880420052185  0.32443629181060624  1.0000
  C   C7        1.0  0.6675402911876918  0.8481154642223389  0.8244384381244957  1.0000
  C   C8        1.0  0.33246434954228476  0.3481108867128456  0.6755613110548565  1.0000
  C   C9        1.0  0.3769413360464214  0.26113574070779316  0.1291578690273099  1.0000
  C   C10       1.0  0.6230567685458226  0.7611349049988477  0.3708410385097523  1.0000
  C   C11       1.0  0.6230629249616869  0.7388641405852995  0.8708432452021171  1.0000
  C   C12       1.0  0.3769391550230026  0.238864023712523  0.6291575865199376  1.0000
  C   C13       1.0  0.21246599534863006  0.05402549730389691  0.14455547516065786  1.0000
  C   C14       1.0  0.7875351960917739  0.5540227164296639  0.3554444507987212  1.0000
  C   C15       1.0  0.7875358864024021  0.9459734313906055  0.8554453424880393  1.0000
  C   C16       1.0  0.2124619221220811  0.44597621227849543  0.6445550481046709  1.0000
  C   C17       1.0  0.316570580771419  0.323139072941835  0.0324989111445575  1.0000
  C   C18       1.0  0.6834305412886295  0.8231370026386955  0.467502574740223  1.0000
  C   C19       1.0  0.6834360444246883  0.6768674765824444  0.9675003229140768  1.0000
  C   C20       1.0  0.31656539731445577  0.17686383128464206  0.5324982270383315  1.0000
  S   S1        1.0  0.7991368578000929  0.2190864386666292  0.04403994965930741  1.0000
  S   S2        1.0  0.2008640252673288  0.7190853296272623  0.4559614605557982  1.0000
  S   S3        1.0  0.20086502394659078  0.7809134426334411  0.9559608679890558  1.0000
  S   S4        1.0  0.7991366718716577  0.2809126464654311  0.5440399343858714  1.0000
  N   N1        1.0  0.5027539760350662  0.3152405301269852  0.19333174945912646  1.0000
  N   N2        1.0  0.49724601351795167  0.8152375347076841  0.30666741689852717  1.0000
  N   N3        1.0  0.4972490903323604  0.6847583985637515  0.806668490896925  1.0000
  N   N4        1.0  0.502749920070805  0.18476329921537632  0.69333265929685  1.0000
  N   N5        1.0  0.4295677086800325  0.1428906156889838  0.267829149826774  1.0000
  N   N6        1.0  0.5704279123322423  0.6428918872183191  0.2321701209476572  1.0000
  N   N7        1.0  0.5704389064874321  0.8571159338347415  0.7321686330655126  1.0000
  N   N8        1.0  0.4295680312764603  0.3571108519164384  0.7678314064134  1.0000
  O   O1        1.0  0.1791052002622564  0.9769918217535223  0.20963502038085838  1.0000
  O   O2        1.0  0.8208933114975706  0.47699014154868286  0.2903640330856661  1.0000
  O   O3        1.0  0.8208978710933792  0.0230128225709052  0.790365945556367  1.0000
  O   O4        1.0  0.17910380670322476  0.5230116449761865  0.7096354658167314  1.0000
  O   O5        1.0  0.1383496277822331  0.04234864297702501  0.05481660139621169  1.0000
  O   O6        1.0  0.8616516753428413  0.5423483504554198  0.44518405829506946  1.0000
  O   O7        1.0  0.8616546432371094  0.9576550487389072  0.9451859639982343  1.0000
  O   O8        1.0  0.1383430485535584  0.45765343607558867  0.5548129672767459  1.0000
  O   O9        1.0  0.20892010608530137  0.27378718062712437  0.96747891060253  1.0000
  O   O10       1.0  0.7910804551732724  0.7737879291694582  0.532520297288599  1.0000
  O   O11       1.0  0.7910889234743053  0.7262127006525888  0.032524247955365106  1.0000
  O   O12       1.0  0.20891309414844267  0.2262109995491599  0.4674787567432119  1.0000
  O   O13       1.0  0.37974418913351127  0.43096430366021826  0.019211435168500705  1.0000
  O   O14       1.0  0.6202535535064654  0.9309635731360545  0.48078750213103655  1.0000
  O   O15       1.0  0.6202517595199737  0.5690317672358347  0.9807908177780575  1.0000
  O   O16       1.0  0.37974592390718  0.06903630816960062  0.5192093910203965  1.0000
  O   O17       1.0  0.628694610873147  0.1859457869006036  0.014474983069185019  1.0000
  O   O18       1.0  0.37130418066865895  0.6859446385466087  0.48552397694512445  1.0000
  O   O19       1.0  0.37130608125151815  0.8140521891918128  0.9855256862893143  1.0000
  O   O20       1.0  0.6286929275209018  0.31405333755542847  0.5144740707922608  1.0000
  O   O21       1.0  0.8225296524931166  0.34600298176557237  0.09449507878124308  1.0000
  O   O22       1.0  0.17747005097684374  0.8460038767402339  0.4055033405219247  1.0000
  O   O23       1.0  0.1774698500051954  0.6539940417247649  0.9055054422870511  1.0000
  O   O24       1.0  0.8225282418291116  0.15399409935804442  0.5944941299228147  1.0000
  O   O25       1.0  0.8786164368103684  0.12170803281716054  0.1186033776629429  1.0000
  O   O26       1.0  0.12138414628569902  0.621708290021907  0.3813979522242263  1.0000
  O   O27       1.0  0.12138308072220384  0.8782908958851438  0.881399320154216  1.0000
  O   O28       1.0  0.8786165358103234  0.37828968606995533  0.618601265967925  1.0000
  O   O29       1.0  0.8762692145666051  0.2220301275442794  0.9573512482891501  1.0000
  O   O30       1.0  0.12373181454239564  0.722030098147613  0.5426472701417424  1.0000
  O   O31       1.0  0.1237374507788971  0.7779688011376608  0.0426537904375337  1.0000
  O   O32       1.0  0.8762640889691299  0.27796883056264937  0.45734845255525874  1.0000
  O   O33       1.0  0.9091430704521458  0.9389035532648792  0.2842092854477087  1.0000
  O   O34       1.0  0.0908569839270399  0.43890330574654274  0.2157906684748738  1.0000
  O   O35       1.0  0.09085524241109512  0.06109442283450761  0.7157910873297266  1.0000
  O   O36       1.0  0.909143698164634  0.5610956229508872  0.7842085497169433  1.0000
  O   O37       1.0  0.9981342039183901  0.7112076627397387  0.2047998866442455  1.0000
  O   O38       1.0  0.0018619826031738003  0.21120134122505624  0.2951994847430228  1.0000
  O   O39       1.0  0.001862924293647001  0.2887979342079632  0.7952010634231712  1.0000
  O   O40       1.0  0.9981363252370415  0.7887985400851892  0.7048001624505742  1.0000
  O   O41       1.0  0.6507191660692726  0.9380373801219478  0.10505141813342078  1.0000
  O   O42       1.0  0.3492797015847628  0.4380357367579536  0.3949476625204724  1.0000
  O   O43       1.0  0.34928272069173266  0.06196250117839949  0.8949501250981129  1.0000
  O   O44       1.0  0.6507173965805039  0.5619612867379615  0.6050489340508987  1.0000
