data_image0
_chemical_formula_structural       Co3H34C34N10Cl2O6
_chemical_formula_sum              "Co3 H34 C34 N10 Cl2 O6"
_cell_length_a       9.25432364916607
_cell_length_b       11.379657507368773
_cell_length_c       11.750152881418227
_cell_angle_alpha    66.75995370767907
_cell_angle_beta     70.87080768623477
_cell_angle_gamma    90.19917267553629

_space_group_name_H-M_alt    "P 1"
_space_group_IT_number       1

loop_
  _space_group_symop_operation_xyz
  'x, y, z'

loop_
  _atom_site_type_symbol
  _atom_site_label
  _atom_site_symmetry_multiplicity
  _atom_site_fract_x
  _atom_site_fract_y
  _atom_site_fract_z
  _atom_site_occupancy
  Co  Co1       1.0  0.0032814901408712936  0.8280433662588466  0.3612534589675604  1.0000
  Co  Co2       1.0  0.9967236094136709  0.17195623582752262  0.6387401654650516  1.0000
  Co  Co3       1.0  1.1365473256426793e-06  0.5000035501596403  0.49999643986620146  1.0000
  H   H1        1.0  0.3041167191978433  0.7919598002391344  0.38766354021554134  1.0000
  H   H2        1.0  0.6958826326199273  0.20803881900061336  0.6123455938028285  1.0000
  H   H3        1.0  0.5258622079437388  0.9275059288685912  0.3810595895239997  1.0000
  H   H4        1.0  0.47413275783426917  0.07249366186150041  0.6189511857305448  1.0000
  H   H5        1.0  0.49307522546990873  0.14988938829559126  0.36874085993684963  1.0000
  H   H6        1.0  0.5069198540555534  0.8501111795681596  0.6312635565679655  1.0000
  H   H7        1.0  0.038005276993189306  0.08713613618871822  0.35887745340059496  1.0000
  H   H8        1.0  0.9619882557295657  0.9128625041613178  0.6411238485264831  1.0000
  H   H9        1.0  0.4702555531234367  0.5619327741839372  0.05112163746712631  1.0000
  H   H10       1.0  0.5297555070394395  0.43806777990231904  0.9488760077461365  1.0000
  H   H11       1.0  0.551628929075271  0.7872684682168439  0.8813478931598555  1.0000
  H   H12       1.0  0.4483804427715725  0.21272918524552867  0.11865044878631174  1.0000
  H   H13       1.0  0.4041354371322044  0.9615245768822409  0.9175255444032899  1.0000
  H   H14       1.0  0.5958697161624118  0.03846922014188442  0.08246856838389496  1.0000
  H   H15       1.0  0.09207825730309342  0.094566496567424  0.08392040497747638  1.0000
  H   H16       1.0  0.9079207678956606  0.9054311763854132  0.9160755574242218  1.0000
  H   H17       1.0  0.17632153391756591  0.048744563599214516  0.9491577392884948  1.0000
  H   H18       1.0  0.8236794396375943  0.9512511686372848  0.050840147448788175  1.0000
  H   H19       1.0  0.2983544106962698  0.09584134499844053  0.021470612041682074  1.0000
  H   H20       1.0  0.7016453823803701  0.904154393874201  0.9785241798138886  1.0000
  H   H21       1.0  0.8033692348232011  0.6536765630818595  0.36970889950610086  1.0000
  H   H22       1.0  0.19662428118062542  0.34632787696576633  0.6302953106518743  1.0000
  H   H23       1.0  0.6780594035968762  0.3456873821686273  0.38485210332000713  1.0000
  H   H24       1.0  0.3219310068622008  0.654312210965138  0.6151615770422579  1.0000
  H   H25       1.0  0.5883438766279525  0.4222404170350204  0.26483708360973407  1.0000
  H   H26       1.0  0.4116467661056476  0.5777543387820007  0.735176670381925  1.0000
  H   H27       1.0  0.4822930987950685  0.37547166635468454  0.4359412049186489  1.0000
  H   H28       1.0  0.5177007142702836  0.6245279269880727  0.5640690228932783  1.0000
  H   H29       1.0  0.5998323980185348  0.6641448536524098  0.18297357502948572  1.0000
  H   H30       1.0  0.4001636371745648  0.335854746535489  0.8170301053503833  1.0000
  H   H31       1.0  0.642491639282888  0.7369170695251415  0.28131558434832005  1.0000
  H   H32       1.0  0.3575060564603874  0.2630854353101172  0.7186848518595568  1.0000
  H   H33       1.0  0.4615167852107619  0.6342331102396203  0.3412198311797069  1.0000
  H   H34       1.0  0.538479525545327  0.3657742345250413  0.6587799839561511  1.0000
  C   C1        1.0  0.2969509053661597  0.8899417126414519  0.38106337082064096  1.0000
  C   C2        1.0  0.7030450068241976  0.11005691175395779  0.6189458191626044  1.0000
  C   C3        1.0  0.41772481427170766  0.9647115836586837  0.37904970603158716  1.0000
  C   C4        1.0  0.5822710331316544  0.0352870501248645  0.6209535399270932  1.0000
  C   C5        1.0  0.39990380619046567  0.08880109133696831  0.37164359739681874  1.0000
  C   C6        1.0  0.6001000361592405  0.9111975348872577  0.6283566874892728  1.0000
  C   C7        1.0  0.2605144194591419  0.1344795099139446  0.3675819970654786  1.0000
  C   C8        1.0  0.7394881008987327  0.8655181498362625  0.6324190042495416  1.0000
  C   C9        1.0  0.14622476091287243  0.05424065146154082  0.3672714034473755  1.0000
  C   C10       1.0  0.8537797307876575  0.9457618551328724  0.6327212785134576  1.0000
  C   C11       1.0  0.23370236632030844  0.2651865298954946  0.35664554885676836  1.0000
  C   C12       1.0  0.7662945504981451  0.7348121133458534  0.6433506022272509  1.0000
  C   C13       1.0  0.2421375660766715  0.46906251740597343  0.2803550848994403  1.0000
  C   C14       1.0  0.7578681061023786  0.5309399825522905  0.7196406919431125  1.0000
  C   C15       1.0  0.2838555270709051  0.6050104398167236  0.18853480009512674  1.0000
  C   C16       1.0  0.7161507344515885  0.3949891583158234  0.8114602209264773  1.0000
  C   C17       1.0  0.4093304971353079  0.63860925859526  0.06791651548988395  1.0000
  C   C18       1.0  0.5906746486956607  0.36139033678529847  0.9320813546745583  1.0000
  C   C19       1.0  0.45429252932188996  0.7649895176808174  0.9728489958544131  1.0000
  C   C20       1.0  0.5457185400962744  0.2350110350642751  0.027149498505210076  1.0000
  C   C21       1.0  0.3722007667314245  0.8625197958651044  0.99344281213029  1.0000
  C   C22       1.0  0.6278044050737608  0.13747399847669337  0.006552998949622639  1.0000
  C   C23       1.0  0.2476560898583671  0.8306107059820109  0.11117312860029925  1.0000
  C   C24       1.0  0.7523511273317569  0.16938792447469106  0.888821156296359  1.0000
  C   C25       1.0  0.2028521886673573  0.7024574299678008  0.2136982460620445  1.0000
  C   C26       1.0  0.7971489541669713  0.2975392713553689  0.7862983768036996  1.0000
  C   C27       1.0  0.18399817242256233  0.04750428733700571  0.04110395149724868  1.0000
  C   C28       1.0  0.8160025133263602  0.9524962902631985  0.9588887667324499  1.0000
  C   C29       1.0  0.7678184290425493  0.5534122440734282  0.3885065285251058  1.0000
  C   C30       1.0  0.23217831103308847  0.4465912284376828  0.6114946438077098  1.0000
  C   C31       1.0  0.5981349132011999  0.4130758827002482  0.3584514195688158  1.0000
  C   C32       1.0  0.401858909119433  0.5869237093013455  0.6415596573894787  1.0000
  C   C33       1.0  0.5862049468833845  0.650215785099782  0.28410804926426886  1.0000
  C   C34       1.0  0.4137925980912912  0.34978574796647893  0.7158953491078748  1.0000
  N   N1        1.0  0.16352756791849998  0.9344454948816433  0.3738184023878263  1.0000
  N   N2        1.0  0.8364667419374285  0.06555121004702613  0.6261825781394917  1.0000
  N   N3        1.0  0.3111053532248107  0.37441058389644877  0.25000934476353354  1.0000
  N   N4        1.0  0.6888929318619008  0.6255890191131074  0.7499903356233799  1.0000
  N   N5        1.0  0.12265298421330333  0.2873690656924097  0.4508610066854145  1.0000
  N   N6        1.0  0.8773454608972957  0.7126315077449803  0.549136560683607  1.0000
  N   N7        1.0  0.12911709045586414  0.4186392789809192  0.4017789449502017  1.0000
  N   N8        1.0  0.8708851235852038  0.5813632288153273  0.5982151895644918  1.0000
  N   N9        1.0  0.65559050756454  0.5388599288414043  0.3451918920612086  1.0000
  N   N10       1.0  0.344400232197593  0.46114160380687264  0.6548184114116039  1.0000
  Cl  Cl1       1.0  0.819044139939898  0.9338172115737822  0.29430789571579635  1.0000
  Cl  Cl2       1.0  0.18095659208545106  0.0661833593206111  0.7056890682457251  1.0000
  O   O1        1.0  0.15533447159581482  0.9167339477247655  0.13976957903335552  1.0000
  O   O2        1.0  0.8446749492114947  0.08326469225940511  0.8602164601385239  1.0000
  O   O3        1.0  0.08507957308938074  0.6812381561528796  0.32734783431432385  1.0000
  O   O4        1.0  0.9149252941906313  0.318766283250227  0.6726457164888942  1.0000
  O   O5        1.0  0.8301878035526542  0.46107835046886697  0.4461614806304651  1.0000
  O   O6        1.0  0.16980722044110055  0.5389222254418584  0.5538378409961524  1.0000
