data_image0
_chemical_formula_structural       Zn2H28C36N4O10
_chemical_formula_sum              "Zn2 H28 C36 N4 O10"
_cell_length_a       5.777189606992903
_cell_length_b       8.361252557148651
_cell_length_c       16.90611097385369
_cell_angle_alpha    89.57960620734727
_cell_angle_beta     99.86118996123434
_cell_angle_gamma    89.99405873654591

_space_group_name_H-M_alt    "P 1"
_space_group_IT_number       1

loop_
  _space_group_symop_operation_xyz
  'x, y, z'

loop_
  _atom_site_type_symbol
  _atom_site_label
  _atom_site_symmetry_multiplicity
  _atom_site_fract_x
  _atom_site_fract_y
  _atom_site_fract_z
  _atom_site_occupancy
  Zn  Zn1       1.0  0.4273011483082385  0.856906277483141  0.6885603573857961  1.0000
  Zn  Zn2       1.0  0.26123296280721325  0.35697323800037845  0.6885539892602492  1.0000
  H   H1        1.0  0.4767103691138175  0.657089695077545  0.3675197998854712  1.0000
  H   H2        1.0  0.8902588434918213  0.15709808213689766  0.3675689327109452  1.0000
  H   H3        1.0  0.14997823457895978  0.8120221055801551  0.9461344255269991  1.0000
  H   H4        1.0  0.7966261436071919  0.3117399191581143  0.9461537001444638  1.0000
  H   H5        1.0  0.3068154108152612  0.9705321219911486  0.4319516933704221  1.0000
  H   H6        1.0  0.12473377426181288  0.4708298120504325  0.431781238336434  1.0000
  H   H7        1.0  0.2679871403206491  0.0532974630101677  0.2883572867308572  1.0000
  H   H8        1.0  0.019318391633568403  0.5533340606287284  0.2881647848408945  1.0000
  H   H9        1.0  0.9253106303297044  0.9695053761504365  0.18813349607145816  1.0000
  H   H10       1.0  0.2619542784062999  0.4693767290849068  0.18806440966650936  1.0000
  H   H11       1.0  0.6056939678864451  0.8030087931923333  0.22932819871255816  1.0000
  H   H12       1.0  0.6230700523200595  0.3030667982758788  0.22929910815186352  1.0000
  H   H13       1.0  0.622806872770184  0.6423529041586564  0.5151122471473996  1.0000
  H   H14       1.0  0.8919232449360309  0.14235868720682984  0.5151550153220369  1.0000
  H   H15       1.0  0.963785677768378  0.7772908966671395  0.8034581476855462  1.0000
  H   H16       1.0  0.8395807685736117  0.2770335959976861  0.8034884947156653  1.0000
  H   H17       1.0  0.0780633915055802  0.7117312606041892  0.10132917890948077  1.0000
  H   H18       1.0  0.023897180361878212  0.2110949845503143  0.10133982317631048  1.0000
  H   H19       1.0  0.8044159461150855  0.545059024079265  0.16720686078477334  1.0000
  H   H20       1.0  0.3633341702503827  0.0441113147694097  0.16707066285997735  1.0000
  H   H21       1.0  0.46430004354541404  0.4079288696217915  0.08578042420297999  1.0000
  H   H22       1.0  0.6223889725921268  0.9075018006551616  0.08565882048382177  1.0000
  H   H23       1.0  0.38311070423976906  0.4360927646712582  0.9370785766790986  1.0000
  H   H24       1.0  0.5549683301321268  0.9363011772293673  0.9370157808626087  1.0000
  H   H25       1.0  0.7159621250284972  0.07700766255542393  0.6637029159094111  1.0000
  H   H26       1.0  0.9473066817632516  0.5769991157701  0.6638078090592002  1.0000
  H   H27       1.0  0.8413828260336302  0.9015948592346917  0.6642472410907627  1.0000
  H   H28       1.0  0.8225707441768079  0.4015237979227919  0.6643674237435562  1.0000
  C   C1        1.0  0.9789025033153037  0.8392842677074768  0.41221383230131875  1.0000
  C   C2        1.0  0.43289619259258677  0.33958115003144934  0.4121639318433522  1.0000
  C   C3        1.0  0.15661004452289262  0.9329455033134479  0.38801616165937947  1.0000
  C   C4        1.0  0.2308790100309466  0.43315484005041327  0.387872159101306  1.0000
  C   C5        1.0  0.13294573552687441  0.9784653742264735  0.3074260371298222  1.0000
  C   C6        1.0  0.17365688003215493  0.4785794538596875  0.3072692707102646  1.0000
  C   C7        1.0  0.937183757417408  0.9315597016051953  0.25053292341252836  1.0000
  C   C8        1.0  0.3127248450894058  0.4315991887132924  0.25047142984863763  1.0000
  C   C9        1.0  0.7582682329318187  0.838528816828024  0.27291751827264926  1.0000
  C   C10       1.0  0.5141314499822869  0.3386198037017111  0.2728844230027718  1.0000
  C   C11       1.0  0.7815995461656584  0.7939535394335167  0.35371162519365373  1.0000
  C   C12       1.0  0.5717642319012127  0.29417396756379344  0.3537103276037641  1.0000
  C   C13       1.0  0.7194251516219979  0.700679174683664  0.4734370759069149  1.0000
  C   C14       1.0  0.7535892754220371  0.20073806252477064  0.4734426092596492  1.0000
  C   C15       1.0  0.9350253543302217  0.7786062874785956  0.4884613231433191  1.0000
  C   C16       1.0  0.553134387785974  0.27893333755720556  0.48843296981415557  1.0000
  C   C17       1.0  0.07851171890230549  0.7980123015574423  0.5673646392841504  1.0000
  C   C18       1.0  0.48850410132398286  0.2981809687930835  0.56732211466916  1.0000
  C   C19       1.0  0.5488511176193426  0.5597103919113594  0.7818033478555576  1.0000
  C   C20       1.0  0.23320813303251237  0.059735216147260004  0.7818012705994162  1.0000
  C   C21       1.0  0.6965475857569318  0.6273828242044955  0.8520156763991691  1.0000
  C   C22       1.0  0.15594092296747422  0.12745549906556866  0.8520279952161258  1.0000
  C   C23       1.0  0.8911699825199904  0.7251992637965189  0.8527352574409546  1.0000
  C   C24       1.0  0.9618482509241206  0.22508457034646767  0.8527382768070024  1.0000
  C   C25       1.0  0.8817234791723082  0.6650548102148902  0.9822622288177026  1.0000
  C   C26       1.0  0.10116230826380962  0.16483862149100756  0.9822415321111249  1.0000
  C   C27       1.0  0.9278450771418322  0.6516651944426002  0.06594136917319558  1.0000
  C   C28       1.0  0.1386803241661383  0.15117715982072613  0.06590008365681399  1.0000
  C   C29       1.0  0.7744768438203096  0.5581213915950443  0.10204831588264797  1.0000
  C   C30       1.0  0.3282330581157922  0.057584300771331705  0.10195286600071538  1.0000
  C   C31       1.0  0.5798958584364728  0.4814555769804442  0.05604208520088601  1.0000
  C   C32       1.0  0.47680372801936954  0.9810033262565055  0.05594646158220938  1.0000
  C   C33       1.0  0.532967472548755  0.4958496910252562  0.9726117681993356  1.0000
  C   C34       1.0  0.4404168425071546  0.9957692427573693  0.9725542174065749  1.0000
  C   C35       1.0  0.6862957513513664  0.587786033711474  0.934525075875271  1.0000
  C   C36       1.0  0.24893778078655524  0.08779405872713403  0.9345229628554959  1.0000
  N   N1        1.0  0.6313040778102276  0.708085244796571  0.3934079207572763  1.0000
  N   N2        1.0  0.7617553450423883  0.20826397814811062  0.3934457307590477  1.0000
  N   N3        1.0  0.0009962902138128014  0.7461713650103761  0.9301246497195305  1.0000
  N   N4        1.0  0.9295744385945569  0.24594808217611333  0.9301242617610652  1.0000
  O   O1        1.0  0.28516816781765186  0.8581770766737691  0.5719844367318173  1.0000
  O   O2        1.0  0.2865510596528864  0.3584537185269312  0.5719415274809305  1.0000
  O   O3        1.0  0.9968328535444112  0.7590862946782979  0.6309830085851755  1.0000
  O   O4        1.0  0.6337789189546043  0.25906089028642754  0.630958550958951  1.0000
  O   O5        1.0  0.5123543489108613  0.6284573265178679  0.7126113948030478  1.0000
  O   O6        1.0  0.2005611697362326  0.1284891529492143  0.7126102993720591  1.0000
  O   O7        1.0  0.7331928285382431  0.9692989711258804  0.6900511417927148  1.0000
  O   O8        1.0  0.9566739083231254  0.469236826737621  0.6901073087747988  1.0000
  O   O9        1.0  0.4592706388698388  0.421524371137501  0.7909975301938912  1.0000
  O   O10       1.0  0.3319999467500311  0.9215184925162418  0.7910259228213474  1.0000
