data_image0
_chemical_formula_structural       Nd4H28C44N12O28
_chemical_formula_sum              "Nd4 H28 C44 N12 O28"
_cell_length_a       8.150190908125175
_cell_length_b       11.678033620770503
_cell_length_c       15.4219703380362
_cell_angle_alpha    90.00024474199526
_cell_angle_beta     89.99994994538766
_cell_angle_gamma    91.52794119028344

_space_group_name_H-M_alt    "P 1"
_space_group_IT_number       1

loop_
  _space_group_symop_operation_xyz
  'x, y, z'

loop_
  _atom_site_type_symbol
  _atom_site_label
  _atom_site_symmetry_multiplicity
  _atom_site_fract_x
  _atom_site_fract_y
  _atom_site_fract_z
  _atom_site_occupancy
  Nd  Nd1       1.0  0.7137403243200138  0.5755865476442281  0.8704569843705909  1.0000
  Nd  Nd2       1.0  0.28624155668188667  0.9244203862567846  0.370465116781645  1.0000
  Nd  Nd3       1.0  0.2862518072825964  0.4244188641935623  0.12953724575470454  1.0000
  Nd  Nd4       1.0  0.7137358238722483  0.0755841073557164  0.6295414334315623  1.0000
  H   H1        1.0  0.028269519490748997  0.6625618948495031  0.7720859381325837  1.0000
  H   H2        1.0  0.9717367900705935  0.8374360239075926  0.272075960930806  1.0000
  H   H3        1.0  0.9717360091685092  0.3374401471501685  0.22791866679334294  1.0000
  H   H4        1.0  0.028262399960517798  0.16255913959054877  0.7279189176018261  1.0000
  H   H5        1.0  0.9639062309404803  0.5395082136058916  0.7293536263069595  1.0000
  H   H6        1.0  0.0360915745782933  0.9604902860536059  0.22934837554035425  1.0000
  H   H7        1.0  0.0360931620237537  0.46049380269394663  0.2706483849180542  1.0000
  H   H8        1.0  0.9639063629470995  0.0395040157046722  0.770645206140024  1.0000
  H   H9        1.0  0.3376207059777484  0.6423612991941569  0.5573875859000592  1.0000
  H   H10       1.0  0.6623737125988496  0.8576379334908707  0.05738884199511319  1.0000
  H   H11       1.0  0.6623736769622041  0.3576372701516919  0.4426111831926675  1.0000
  H   H12       1.0  0.3376232007207561  0.14236321592878204  0.9426112239523474  1.0000
  H   H13       1.0  0.3980971531871516  0.4059702417385865  0.5645101441048366  1.0000
  H   H14       1.0  0.6019027908003736  0.0940307031678671  0.06450927831105698  1.0000
  H   H15       1.0  0.6019033908169361  0.5940292098975419  0.4354886249878759  1.0000
  H   H16       1.0  0.3981076971532146  0.9059730725721804  0.9354920844886363  1.0000
  H   H17       1.0  0.23284673713053644  0.22636754279687216  0.5870096111136007  1.0000
  H   H18       1.0  0.767153200333901  0.2736343849327127  0.08700795257835377  1.0000
  H   H19       1.0  0.7671562865195652  0.7736327757139847  0.41298915797993624  1.0000
  H   H20       1.0  0.23285600974393356  0.726367672480677  0.9129960039211651  1.0000
  H   H21       1.0  0.08898398184555129  0.3279760913467058  0.8326282300060652  1.0000
  H   H22       1.0  0.91102532312469  0.1720238290755987  0.3326242299980179  1.0000
  H   H23       1.0  0.9110151828141608  0.6720182155700911  0.16737248435537566  1.0000
  H   H24       1.0  0.08898135657350537  0.8279756482639938  0.66737842964676  1.0000
  H   H25       1.0  0.24929746964754426  0.5133540245808134  0.8205385976967319  1.0000
  H   H26       1.0  0.7507052420166713  0.9866492902002407  0.3205363395447235  1.0000
  H   H27       1.0  0.7506980896972448  0.4866428367081285  0.17946017139295378  1.0000
  H   H28       1.0  0.24930391732845433  0.013351054010449604  0.6794650232497259  1.0000
  C   C1        1.0  0.6748287940386247  0.8206136893761522  0.7605875120251893  1.0000
  C   C2        1.0  0.32517262325230684  0.6793841443609026  0.26059288777339856  1.0000
  C   C3        1.0  0.32517047209384486  0.17938404391694016  0.23940801493716174  1.0000
  C   C4        1.0  0.6748279968503822  0.3206178770810837  0.7394104203024836  1.0000
  C   C5        1.0  0.5618669852463397  0.7448163829850216  0.7081602626584809  1.0000
  C   C6        1.0  0.4381333553176957  0.7551837212771917  0.20816583094584465  1.0000
  C   C7        1.0  0.4381347858998764  0.2551830737787029  0.29183461588049636  1.0000
  C   C8        1.0  0.5618636341023445  0.24481999794105042  0.7918361802824873  1.0000
  C   C9        1.0  0.49094345838992826  0.7570787605121367  0.6265449171103724  1.0000
  C   C10       1.0  0.5090605778054141  0.7429174748919963  0.12655041252943985  1.0000
  C   C11       1.0  0.5090607163000341  0.2429189933350031  0.3734506098508631  1.0000
  C   C12       1.0  0.49093881515928206  0.25708454140602294  0.8734509502699976  1.0000
  C   C13       1.0  0.4645968005132487  0.8514341334065918  0.5639934059449982  1.0000
  C   C14       1.0  0.5354035921915709  0.6485600224523934  0.06399728675456368  1.0000
  C   C15       1.0  0.5354025163519225  0.14856531308920043  0.43600471472242214  1.0000
  C   C16       1.0  0.464596926442489  0.3514385725969333  0.9360053728902284  1.0000
  C   C17       1.0  0.4238423853434411  0.5855210512885805  0.6816206267051185  1.0000
  C   C18       1.0  0.5761555892972368  0.9144806069847321  0.18162145869466426  1.0000
  C   C19       1.0  0.5761581586606538  0.41447840034754085  0.31837814238759415  1.0000
  C   C20       1.0  0.4238474597183027  0.0855205681311162  0.8183799041025562  1.0000
  C   C21       1.0  0.3356245341491117  0.4753957167931802  0.6910278273478025  1.0000
  C   C22       1.0  0.664376483016241  0.024606799651984108  0.19102930130851084  1.0000
  C   C23       1.0  0.6643809437797328  0.5246046119946968  0.30897094174517276  1.0000
  C   C24       1.0  0.33563139845313117  0.9753918262320482  0.808974655185757  1.0000
  C   C25       1.0  0.3301176219852734  0.3932263722615944  0.6247067277246998  1.0000
  C   C26       1.0  0.6698810349061189  0.10677576182565221  0.12470716824684297  1.0000
  C   C27       1.0  0.6698853509302863  0.6067722330538458  0.37529204136608024  1.0000
  C   C28       1.0  0.33012814980490646  0.8932254389882105  0.875296139825714  1.0000
  C   C29       1.0  0.24010766650548723  0.29157109614012455  0.6376238701385757  1.0000
  C   C30       1.0  0.7598922245857834  0.2084319721434582  0.13762135550665988  1.0000
  C   C31       1.0  0.7598941807388754  0.7084309304312771  0.3623761958091549  1.0000
  C   C32       1.0  0.24011811116371004  0.7915666640121373  0.8623806557103249  1.0000
  C   C33       1.0  0.16099594262390576  0.3483621961515766  0.7746557575383547  1.0000
  C   C34       1.0  0.8390097884647645  0.151638240218162  0.2746536704934498  1.0000
  C   C35       1.0  0.8390045506465567  0.6516355422854829  0.22534171470044834  1.0000
  C   C36       1.0  0.16099806763825336  0.848359529064517  0.7253489891482868  1.0000
  C   C37       1.0  0.24857937966454094  0.45177341367354257  0.7676963527265028  1.0000
  C   C38       1.0  0.7514227813382488  0.04823039463214233  0.2676959171731709  1.0000
  C   C39       1.0  0.7514224929489328  0.5482294694882981  0.23230111952030083  1.0000
  C   C40       1.0  0.24858392372813398  0.9517699393015275  0.732305445621833  1.0000
  C   C41       1.0  0.03181354298078529  0.5636164039567645  0.002538842498808  1.0000
  C   C42       1.0  0.968174817634569  0.9363824953498607  0.5025505633808789  1.0000
  C   C43       1.0  0.9681832435098056  0.4363804624452214  0.9974508486325389  1.0000
  C   C44       1.0  0.031807446104728895  0.06362116223898788  0.4974631195111669  1.0000
  N   N1        1.0  0.5182140537230068  0.6382385977595675  0.7410560266889943  1.0000
  N   N2        1.0  0.4817839381412695  0.8617668203571895  0.24105867744334114  1.0000
  N   N3        1.0  0.48178531387762985  0.36176256192801043  0.2589407971300374  1.0000
  N   N4        1.0  0.5182192377106317  0.13823863774721448  0.7589426853607859  1.0000
  N   N5        1.0  0.40905301273364353  0.654487855759321  0.6110363757091902  1.0000
  N   N6        1.0  0.5909486419015193  0.8455099955481412  0.11103892280188887  1.0000
  N   N7        1.0  0.590946278763809  0.3455107341405822  0.388962393382421  1.0000
  N   N8        1.0  0.4090556596202076  0.154492041305744  0.8889630884220096  1.0000
  N   N9        1.0  0.15721241102465197  0.2693237008720288  0.7112992643132968  1.0000
  N   N10       1.0  0.8427934606003687  0.23067809324803076  0.21129743135436735  1.0000
  N   N11       1.0  0.8427893347515364  0.7306748993048943  0.2886995047777532  1.0000
  N   N12       1.0  0.15722183443978105  0.7693222766624928  0.7887065251409877  1.0000
  O   O1        1.0  0.7222722225083087  0.7791665125449468  0.8322300304674355  1.0000
  O   O2        1.0  0.27772666432529286  0.7208325694420951  0.33223426572119047  1.0000
  O   O3        1.0  0.27772714509094953  0.22083464714808804  0.1677687386283111  1.0000
  O   O4        1.0  0.7222678200805317  0.279169426307341  0.6677690423560916  1.0000
  O   O5        1.0  0.7174882713443508  0.9189187598872977  0.7327131424980989  1.0000
  O   O6        1.0  0.28252049755783293  0.5810772351023629  0.23271821997067824  1.0000
  O   O7        1.0  0.2825084644084868  0.0810763933319976  0.2672810876095183  1.0000
  O   O8        1.0  0.7174911667987443  0.4189248325880471  0.7672857365282794  1.0000
  O   O9        1.0  0.48746675732330397  0.9539440806755124  0.5883996567697878  1.0000
  O   O10       1.0  0.5125287429670279  0.5460519047418658  0.08840062274427397  1.0000
  O   O11       1.0  0.5125178338689479  0.046055304159963804  0.4115991123265487  1.0000
  O   O12       1.0  0.4874706753653938  0.45395096815204994  0.9116000916309657  1.0000
  O   O13       1.0  0.4069003719101472  0.8193282782935256  0.491065591360261  1.0000
  O   O14       1.0  0.5931005411299421  0.6806648522935106  0.991068878773177  1.0000
  O   O15       1.0  0.5930989195891384  0.18067031159910127  0.508930584029045  1.0000
  O   O16       1.0  0.40690245715289547  0.31933460961963084  0.008929890318981398  1.0000
  O   O17       1.0  0.15694853057581773  0.583528922711011  0.049508200494180685  1.0000
  O   O18       1.0  0.84304579768753  0.9164668394271942  0.5495270481115924  1.0000
  O   O19       1.0  0.8430520134397594  0.41647052887964253  0.9504743579591303  1.0000
  O   O20       1.0  0.15694237343996775  0.0835291344875344  0.45049117374566783  1.0000
  O   O21       1.0  0.95355061852306  0.6365136907881491  0.9594210159422187  1.0000
  O   O22       1.0  0.04642592341492249  0.8634834425002041  0.459430360110339  1.0000
  O   O23       1.0  0.046440159107035583  0.36348743290983526  0.040568675197420086  1.0000
  O   O24       1.0  0.9535475981483612  0.13651503952006291  0.5405787837963415  1.0000
  O   O25       1.0  0.9313144964207962  0.6060745323331248  0.7622477227141928  1.0000
  O   O26       1.0  0.0686955592380016  0.8939250598399442  0.2622377022462671  1.0000
  O   O27       1.0  0.06868990656955279  0.39393093091342724  0.23775493694080294  1.0000
  O   O28       1.0  0.9313061358073182  0.10607182712700337  0.737755879437415  1.0000
