data_image0
_chemical_formula_structural       Zn2H8C24N2O8F2
_chemical_formula_sum              "Zn2 H8 C24 N2 O8 F2"
_cell_length_a       8.933282582870113
_cell_length_b       14.838583050868653
_cell_length_c       16.26011584589706
_cell_angle_alpha    90.06427472375165
_cell_angle_beta     89.68506281287628
_cell_angle_gamma    79.1615687790102

_space_group_name_H-M_alt    "P 1"
_space_group_IT_number       1

loop_
  _space_group_symop_operation_xyz
  'x, y, z'

loop_
  _atom_site_type_symbol
  _atom_site_label
  _atom_site_symmetry_multiplicity
  _atom_site_fract_x
  _atom_site_fract_y
  _atom_site_fract_z
  _atom_site_occupancy
  Zn  Zn1       1.0  0.5140765416578006  0.40460780790712664  0.4999752723702855  1.0000
  Zn  Zn2       1.0  0.4859154720503086  0.595392894102865  0.5000259282034281  1.0000
  H   H1        1.0  0.970018660149407  0.6057742725477554  0.49999305415754236  1.0000
  H   H2        1.0  0.029968332978967338  0.3942244213595174  0.5000087683836512  1.0000
  H   H3        1.0  0.2579174632218583  0.4976465310516858  0.0760814756963839  1.0000
  H   H4        1.0  0.7421148919023112  0.5023462881379572  0.9239196578246195  1.0000
  H   H5        1.0  0.25381045211014447  0.943796268763272  0.5000671738754008  1.0000
  H   H6        1.0  0.7461731422132587  0.056206552896327415  0.4999278908687756  1.0000
  H   H7        1.0  0.25357250068830695  0.11241837867513738  0.5000873135873576  1.0000
  H   H8        1.0  0.74640923565407  0.8875830928900542  0.4999095984660471  1.0000
  C   C1        1.0  0.5012256499558773  0.4997156931048253  0.3387188863065447  1.0000
  C   C2        1.0  0.49877474831423296  0.5002869881510109  0.6612823020031229  1.0000
  C   C3        1.0  0.5001838863360462  0.09340534174417314  0.4999996312591648  1.0000
  C   C4        1.0  0.4997976645874471  0.9065968128055746  0.4999948213841847  1.0000
  C   C5        1.0  0.6395727408109552  0.03068092495933431  0.49995695660796  1.0000
  C   C6        1.0  0.36041462026186366  0.9693204941130207  0.500037486562988  1.0000
  C   C7        1.0  0.5028961529638138  0.1888981391471917  0.49997001274083164  1.0000
  C   C8        1.0  0.4970884302472101  0.8111128859481341  0.5000250542409219  1.0000
  C   C9        1.0  0.20435645001581548  0.5254440125540328  0.5000370145782896  1.0000
  C   C10       1.0  0.7956312627371604  0.4745560452059437  0.4999660374708128  1.0000
  C   C11       1.0  0.0355594919183204  0.5359467723687246  0.5000119838352717  1.0000
  C   C12       1.0  0.9644315912028104  0.46405325498212596  0.4999904478978935  1.0000
  C   C13       1.0  0.3669546229587581  0.4990169269523649  0.9585322969443696  1.0000
  C   C14       1.0  0.6330809107288076  0.5009765463649671  0.0414669868700059  1.0000
  C   C15       1.0  0.5003766469056571  0.5003523534616293  0.9122858235478901  1.0000
  C   C16       1.0  0.499657166625326  0.49964318877667324  0.0877140789308655  1.0000
  C   C17       1.0  0.6356037870661665  0.50135692783293  0.9564850420420045  1.0000
  C   C18       1.0  0.36442593008619883  0.4986372825140394  0.04351548126413011  1.0000
  C   C19       1.0  0.4987868705465885  0.5004755162619149  0.8253747418882753  1.0000
  C   C20       1.0  0.5012322755609303  0.4995242633711286  0.1746270306164348  1.0000
  C   C21       1.0  0.501254302553285  0.4995837006078148  0.2495357769840467  1.0000
  C   C22       1.0  0.4987385686038621  0.500421784270273  0.7504654244527345  1.0000
  C   C23       1.0  0.360337853142603  0.06286857682749773  0.500042351203497  1.0000
  C   C24       1.0  0.6396472631467347  0.9371328620001905  0.4999520955049519  1.0000
  N   N1        1.0  0.4909709153977674  0.7337099193182084  0.5000696169241509  1.0000
  N   N2        1.0  0.5090081119004212  0.2662854177322274  0.499927911556064  1.0000
  O   O1        1.0  0.5149977394229879  0.42170886454195516  0.37326870357262015  1.0000
  O   O2        1.0  0.4850010246002299  0.5782917743214143  0.6267294113402144  1.0000
  O   O3        1.0  0.4873037389745178  0.5778298389272365  0.3733136723669404  1.0000
  O   O4        1.0  0.5127051010308533  0.42217071724612515  0.6266893467045378  1.0000
  O   O5        1.0  0.28310878036038645  0.44438575424551624  0.5000086039062168  1.0000
  O   O6        1.0  0.7168826863702618  0.5556129040317189  0.4999962866083507  1.0000
  O   O7        1.0  0.2566419689581211  0.5999286105293251  0.5000544515887242  1.0000
  O   O8        1.0  0.7433464698053243  0.4000728095311032  0.49994859994892954  1.0000
  F   F1        1.0  0.2347996443652036  0.49811054408235833  0.9176985185402131  1.0000
  F   F2        1.0  0.7652310605473932  0.501880236595433  0.08230261663234022  1.0000
