data_image0
_chemical_formula_structural       Zn4H36C56N4O28
_chemical_formula_sum              "Zn4 H36 C56 N4 O28"
_cell_length_a       7.161101018
_cell_length_b       13.903815441896787
_cell_length_c       14.9915
_cell_angle_alpha    118.05849570666891
_cell_angle_beta     90.0
_cell_angle_gamma    90.0

_space_group_name_H-M_alt    "P 1"
_space_group_IT_number       1

loop_
  _space_group_symop_operation_xyz
  'x, y, z'

loop_
  _atom_site_type_symbol
  _atom_site_label
  _atom_site_symmetry_multiplicity
  _atom_site_fract_x
  _atom_site_fract_y
  _atom_site_fract_z
  _atom_site_occupancy
  Zn  Zn1       1.0  0.12313609286945848  0.3165578253936943  0.0752880352657783  1.0000
  Zn  Zn2       1.0  0.623136021790998  0.1834376988949984  0.9247098788158965  1.0000
  Zn  Zn3       1.0  0.8768651614069469  0.6834405583443938  0.9247089916952262  1.0000
  Zn  Zn4       1.0  0.37686523248540027  0.8165614998609526  0.07529217300567843  1.0000
  H   H1        1.0  0.8572354983639767  0.3401648175939441  0.4500770265222798  1.0000
  H   H2        1.0  0.3572230015426356  0.1598437469804495  0.5499259092820736  1.0000
  H   H3        1.0  0.1427503951460096  0.6598417163227096  0.5499242229629644  1.0000
  H   H4        1.0  0.6427684777005922  0.8401562667933502  0.450076498087455  1.0000
  H   H5        1.0  0.8747760971747238  0.4684714486348582  0.08990708273069709  1.0000
  H   H6        1.0  0.3747691860866311  0.0315273357252579  0.9100902524088426  1.0000
  H   H7        1.0  0.1252265535349864  0.5315277501210858  0.9100869645549778  1.0000
  H   H8        1.0  0.6252306717564549  0.9684743080842537  0.0899108649226292  1.0000
  H   H9        1.0  0.7769824760206986  0.3720686915686926  0.10702333410336709  1.0000
  H   H10       1.0  0.2769783577992229  0.1279300927914235  0.8929713328575346  1.0000
  H   H11       1.0  0.2230243639889409  0.627932952240826  0.8929737809601549  1.0000
  H   H12       1.0  0.7230284822104167  0.8720691059645205  0.10702671669609022  1.0000
  H   H13       1.0  0.04108865372244  0.40406384754331265  0.7607536180769756  1.0000
  H   H14       1.0  0.5410885826439795  0.0959324917632358  0.2392439845080006  1.0000
  H   H15       1.0  0.9589112041206533  0.5959377962661989  0.2392434969865462  1.0000
  H   H16       1.0  0.4589098787657946  0.9040650769570034  0.7607600243962835  1.0000
  H   H17       1.0  0.7566406319894767  0.1413363215054559  0.5132445819680456  1.0000
  H   H18       1.0  0.2566448923678593  0.3586632778725161  0.48675177463012886  1.0000
  H   H19       1.0  0.2433592258536095  0.8586620622326322  0.4867504438589804  1.0000
  H   H20       1.0  0.7433437940087443  0.641335920883428  0.5132502771914459  1.0000
  H   H21       1.0  0.7602532049632342  0.036133816647606  0.6077293328662066  1.0000
  H   H22       1.0  0.2602602582082412  0.4638641526946542  0.3922649785467343  1.0000
  H   H23       1.0  0.23974665287985178  0.9638702722154803  0.3922695158858502  1.0000
  H   H24       1.0  0.7397368067682208  0.5361317859898662  0.6077336499490257  1.0000
  H   H25       1.0  0.7587059568554152  0.9988842543288783  0.9333008071299602  1.0000
  H   H26       1.0  0.2586962529006982  0.501112913769326  0.066697557238534  1.0000
  H   H27       1.0  0.2413064688874655  0.0011165744627775  0.0666999546535578  1.0000
  H   H28       1.0  0.7412994156424588  0.4988887300401855  0.9333108975841854  1.0000
  H   H29       1.0  0.1662188533590125  0.8358782380669894  0.6994986236120725  1.0000
  H   H30       1.0  0.6662118001140058  0.6641205600669267  0.30049711662903894  1.0000
  H   H31       1.0  0.8337907795172511  0.1641258507960899  0.3004988910506654  1.0000
  H   H32       1.0  0.3337810755625341  0.33588026872472904  0.6995109826457195  1.0000
  H   H33       1.0  0.151232331072805  0.9939085703177496  0.6627027446267774  1.0000
  H   H34       1.0  0.6512364492942808  0.5060869677447499  0.3372895722885261  1.0000
  H   H35       1.0  0.8487731125035225  0.006095518545336599  0.33729477003596037  1.0000
  H   H36       1.0  0.3487620121154933  0.4939114159933453  0.6627154592083855  1.0000
  C   C1        1.0  0.0838069451180061  0.3134566824514593  0.8822278744803499  1.0000
  C   C2        1.0  0.5838152526394111  0.1865363967836657  0.11776830591279722  1.0000
  C   C3        1.0  0.9161873269918459  0.6865417012866288  0.11776915248065485  1.0000
  C   C4        1.0  0.4161873980702993  0.8134628019722783  0.8822330788641182  1.0000
  C   C5        1.0  0.9913964322182949  0.2618978378604098  0.7798856401333439  1.0000
  C   C6        1.0  0.4913992961633724  0.23809605639257106  0.22011289694173536  1.0000
  C   C7        1.0  0.0086034256247913  0.7381013608955341  0.22011240942028107  1.0000
  C   C8        1.0  0.508603354546338  0.7619031423633728  0.7798898219244919  1.0000
  C   C9        1.0  0.9828362960261214  0.3222116042610566  0.7270090490470481  1.0000
  C   C10       1.0  0.4828503314376817  0.17778718009905958  0.2729929554051012  1.0000
  C   C11       1.0  0.0171565796504183  0.6777892245305992  0.27298904455783213  1.0000
  C   C12       1.0  0.5171495264054116  0.8222128336747403  0.7270107860537535  1.0000
  C   C13       1.0  0.904342779653831  0.2791615460870815  0.6303798693614695  1.0000
  C   C14       1.0  0.4043442471655965  0.22083805329089048  0.3696211565493215  1.0000
  C   C15       1.0  0.0956556817559502  0.7208400977224301  0.3696179127467118  1.0000
  C   C16       1.0  0.5956458356443193  0.7791595154293418  0.6303801841763388  1.0000
  C   C17       1.0  0.9201057188605615  0.34297418414371345  0.5745784566534056  1.0000
  C   C18       1.0  0.420105789939015  0.157022155162835  0.42542381524418715  1.0000
  C   C19       1.0  0.0798871568159711  0.6570201245050953  0.42541745961246863  1.0000
  C   C20       1.0  0.5798842928709007  0.8429770435931161  0.5745795706667068  1.0000
  C   C21       1.0  0.8218359139477229  0.1756876941018959  0.5874924659254717  1.0000
  C   C22       1.0  0.3218443636260417  0.3243110902582202  0.4125042021694015  1.0000
  C   C23       1.0  0.1781597545954341  0.8243139497076157  0.4125033150487312  1.0000
  C   C24       1.0  0.6781485120504981  0.6756856634441561  0.58749811709761  1.0000
  C   C25       1.0  0.8261341356768455  0.11602349693251308  0.6401541463745914  1.0000
  C   C26       1.0  0.326136999621923  0.3839712123383237  0.3598394098911725  1.0000
  C   C27       1.0  0.1738685150328649  0.8839765168412868  0.35984159054834924  1.0000
  C   C28       1.0  0.6738614617878582  0.6160255413640527  0.6401629093758388  1.0000
  C   C29       1.0  0.9135215358024737  0.1562356629317492  0.7348956065715768  1.0000
  C   C30       1.0  0.4135285890474805  0.3437574163033759  0.2650999067769106  1.0000
  C   C31       1.0  0.0864755291739954  0.8437635358241948  0.26510177593738854  1.0000
  C   C32       1.0  0.5864726652289178  0.6562409674347194  0.7349044576753414  1.0000
  C   C33       1.0  0.9350056622815259  0.0750134284522161  0.7727409546579834  1.0000
  C   C34       1.0  0.43501131909322044  0.4249796507829089  0.22725122346720641  1.0000
  C   C35       1.0  0.0649900062616311  0.9249833252501674  0.22725402711778744  1.0000
  C   C36       1.0  0.5649843494499365  0.575020362990891  0.7727511839023221  1.0000
  C   C37       1.0  0.8449133708338363  0.9930976275509876  0.8709591868619171  1.0000
  C   C38       1.0  0.3449106490456728  0.5068995405472236  0.1290365093279462  1.0000
  C   C39       1.0  0.1550990549090443  0.006898311133532799  0.1290401086785096  1.0000
  C   C40       1.0  0.6550864159307963  0.49310699336943026  0.8709707435592335  1.0000
  C   C41       1.0  0.9633323119810766  0.9047708824203298  0.818373735552001  1.0000
  C   C42       1.0  0.4633240044596718  0.5952262856778745  0.18162196063785524  1.0000
  C   C43       1.0  0.0366689422953215  0.0952226112106231  0.18161715585330282  1.0000
  C   C44       1.0  0.5366702676501731  0.4047794332209165  0.818386937835335  1.0000
  C   C45       1.0  0.9671222319852504  0.8087568888714927  0.8380809554116837  1.0000
  C   C46       1.0  0.4671167173304624  0.6912410942445675  0.16191509632613338  1.0000
  C   C47       1.0  0.0328748329912187  0.19123578974160438  0.1619042440883902  1.0000
  C   C48       1.0  0.5328789512126946  0.3087638096363676  0.8380967818223936  1.0000
  C   C49       1.0  0.07318427692650428  0.9041514688497401  0.7414640900938565  1.0000
  C   C50       1.0  0.5731786201148097  0.5958440692127525  0.25852889386610656  1.0000
  C   C51       1.0  0.9268239595164474  0.0958501749597716  0.2585323579250058  1.0000
  C   C52       1.0  0.4268142555617301  0.4041551295431915  0.7414764931787587  1.0000
  C   C53       1.0  0.06181591334731  0.990528691268743  0.7198495059339649  1.0000
  C   C54       1.0  0.5618158422688495  0.5094692918473172  0.28014587875919256  1.0000
  C   C55       1.0  0.9381951159622659  0.0094753975943362  0.28015067690741097  1.0000
  C   C56       1.0  0.4381840155742367  0.4905307219264827  0.7198598638336263  1.0000
  N   N1        1.0  0.8273643934232239  0.0752261481126411  0.847342641045202  1.0000
  N   N2        1.0  0.3273644645016773  0.4247693761760516  0.15265327190250133  1.0000
  N   N3        1.0  0.17264105015310344  0.9247681605361677  0.15265527635465057  1.0000
  N   N4        1.0  0.6726353933414088  0.5752347126870276  0.8473522472961363  1.0000
  O   O1        1.0  0.1123290954810017  0.2509252524645191  0.9235583583305171  1.0000
  O   O2        1.0  0.6123332137024775  0.24906782677060588  0.07643515388399177  1.0000
  O   O3        1.0  0.8876749516620208  0.7490763913449925  0.07643942377766423  1.0000
  O   O4        1.0  0.38767083344054487  0.7509305569674893  0.9235665423896221  1.0000
  O   O5        1.0  0.1249751955391289  0.41270792692449015  0.9237434504283044  1.0000
  O   O6        1.0  0.6249876923604629  0.0872916724534818  0.076258242527139  1.0000
  O   O7        1.0  0.8750204730040281  0.5872920868493097  0.07625295353929577  1.0000
  O   O8        1.0  0.3750205440824884  0.9127075263024622  0.9237458104284073  1.0000
  O   O9        1.0  0.0098350798044819  0.4276031932615112  0.6032694941435891  1.0000
  O   O10       1.0  0.509822440826234  0.072402111241459  0.39673668878153723  1.0000
  O   O11       1.0  0.9901466244055683  0.5724139358872691  0.39673637746511753  1.0000
  O   O12       1.0  0.4901578669505113  0.9275930124252126  0.6032642523448998  1.0000
  O   O13       1.0  0.8272303358254333  0.2971139444021134  0.4846364983927671  1.0000
  O   O14       1.0  0.32722063187071626  0.2028929901365686  0.5153650592710122  1.0000
  O   O15       1.0  0.1727695220176528  0.7028860693716935  0.5153599055748401  1.0000
  O   O16       1.0  0.6727722438058166  0.7971094686908058  0.4846390817870514  1.0000
  O   O17       1.0  0.8807640032093147  0.8214516069972005  0.9193632254893204  1.0000
  O   O18       1.0  0.38076128142115095  0.6785455611010105  0.08063113661122392  1.0000
  O   O19       1.0  0.1192428368003249  0.1785361815087612  0.08062317594630031  1.0000
  O   O20       1.0  0.6192357835553182  0.321462602851355  0.9193801625951608  1.0000
  O   O21       1.0  0.04574994811223829  0.7230056001659333  0.7764519409632626  1.0000
  O   O22       1.0  0.5457470841671608  0.7769891228787031  0.22354602380600852  1.0000
  O   O23       1.0  0.954272252663813  0.2769960436435781  0.2235371695643522  1.0000
  O   O24       1.0  0.454284891642061  0.22300437075224977  0.7764588755371236  1.0000
  O   O25       1.0  0.89306378780649  0.412413705478464  0.11273693332223192  1.0000
  O   O26       1.0  0.3930582731517021  0.0875842638637963  0.8872593792246875  1.0000
  O   O27       1.0  0.1069430522031496  0.5875879383310547  0.8872615158306089  1.0000
  O   O28       1.0  0.6069471704246254  0.9124124898385801  0.11273626959574307  1.0000
