data_image0
_chemical_formula_structural       Ag4H32C36N28O12
_chemical_formula_sum              "Ag4 H32 C36 N28 O12"
_cell_length_a       7.110708198
_cell_length_b       9.684031980839448
_cell_length_c       17.333
_cell_angle_alpha    90.0
_cell_angle_beta     90.0
_cell_angle_gamma    96.21971565991021

_space_group_name_H-M_alt    "P 1"
_space_group_IT_number       1

loop_
  _space_group_symop_operation_xyz
  'x, y, z'

loop_
  _atom_site_type_symbol
  _atom_site_label
  _atom_site_symmetry_multiplicity
  _atom_site_fract_x
  _atom_site_fract_y
  _atom_site_fract_z
  _atom_site_occupancy
  Ag  Ag1       1.0  0.8457159358036819  0.3810199279925897  0.7113632954479883  1.0000
  Ag  Ag2       1.0  0.15428704433909243  0.11897855170456491  0.2113632954479883  1.0000
  Ag  Ag3       1.0  0.1542888245294165  0.6189801476278305  0.2886367045520117  1.0000
  Ag  Ag4       1.0  0.8457163096643185  0.8810215239158552  0.7886372814861815  1.0000
  H   H1        1.0  0.8969932839474454  0.5399516146812431  0.8847048981711153  1.0000
  H   H2        1.0  0.10301029065066555  0.960049018120408  0.3847054751052923  1.0000
  H   H3        1.0  0.1030072573966052  0.4600484609391772  0.1152951018288846  1.0000
  H   H4        1.0  0.8969936764165354  0.03995521246816481  0.6152951018288846  1.0000
  H   H5        1.0  0.2503228617180895  0.267716024038279  0.7813540645012438  1.0000
  H   H6        1.0  0.7496784055631166  0.2322803781747993  0.2813534875670669  1.0000
  H   H7        1.0  0.7496803390193845  0.7322830128400994  0.21864766630127255  1.0000
  H   H8        1.0  0.2503219825149898  0.7677186587035862  0.7186459354987562  1.0000
  H   H9        1.0  0.49375506403616487  0.4054760705208764  0.9599774995673016  1.0000
  H   H10       1.0  0.5062482226384972  0.09452448666035451  0.4599769226331247  1.0000
  H   H11       1.0  0.5062467303716218  0.5945229663575091  0.0400242312352148  1.0000
  H   H12       1.0  0.49375357176928947  0.9054745502180311  0.5400230773668753  1.0000
  H   H13       1.0  0.4996929450601968  0.2763874425664028  0.8860116540702734  1.0000
  H   H14       1.0  0.5003103416144725  0.22361311461482097  0.3860110771360965  1.0000
  H   H15       1.0  0.500309002613534  0.7236126330540174  0.1139889228639035  1.0000
  H   H16       1.0  0.4996901997295779  0.7763869610055991  0.6139889228639035  1.0000
  H   H17       1.0  0.3563042415533815  0.0323256522035464  0.8509005942421979  1.0000
  H   H18       1.0  0.6437018577806481  0.4676749049776845  0.3508994403738511  1.0000
  H   H19       1.0  0.6436945869290938  0.9676723459328045  0.14910055962614874  1.0000
  H   H20       1.0  0.3562997833611945  0.5323230931586593  0.6490994057578019  1.0000
  H   H21       1.0  0.25932600530510547  0.7783221374212488  0.8690694051808663  1.0000
  H   H22       1.0  0.7406763162292691  0.7216795341224369  0.3690688282466965  1.0000
  H   H23       1.0  0.7406756358367375  0.22167586071509504  0.13093174868747326  1.0000
  H   H24       1.0  0.2593254781785177  0.2783195027559486  0.6309294409507871  1.0000
  H   H25       1.0  0.1419135338473652  0.6845673586106003  0.9936387238216112  1.0000
  H   H26       1.0  0.8580844154320102  0.8154332741910437  0.4936387238216113  1.0000
  H   H27       1.0  0.8580921730175746  0.3154296007837019  0.0063630069809050985  1.0000
  H   H28       1.0  0.1419148728483037  0.18456784017141104  0.5063589684417024  1.0000
  H   H29       1.0  0.12641429811021246  0.8393731619267513  0.10969941729648977  1.0000
  H   H30       1.0  0.8735781791163859  0.6606285096169415  0.6096999942306596  1.0000
  H   H31       1.0  0.873587496297574  0.1606258749516343  0.8903023135060266  1.0000
  H   H32       1.0  0.12641438404740768  0.33937468222959677  0.3902994288351707  1.0000
  C   C1        1.0  0.010780905141615399  0.4755703832038805  0.8752039462297319  1.0000
  C   C2        1.0  0.9892206686714784  0.0244280964932742  0.3752033692955621  1.0000
  C   C3        1.0  0.9892210425321153  0.5244296924165397  0.12479663070443789  1.0000
  C   C4        1.0  0.010780025938522899  0.9755730178691807  0.6247960537702681  1.0000
  C   C5        1.0  0.1841655767337755  0.3365171028847342  0.8205048174003338  1.0000
  C   C6        1.0  0.8158375566749426  0.163482415554455  0.320504240466164  1.0000
  C   C7        1.0  0.8158363709399551  0.6634829727356859  0.179495759533836  1.0000
  C   C8        1.0  0.184164697530683  0.8365197375500416  0.679495759533836  1.0000
  C   C9        1.0  0.4112968447710443  0.3202607899996011  0.9297138406507841  1.0000
  C   C10       1.0  0.5887078482333051  0.1797397671816299  0.42971326371660706  1.0000
  C   C11       1.0  0.5887049496367422  0.6797382468787845  0.0702873132175625  1.0000
  C   C12       1.0  0.4112940994404325  0.8202603084387903  0.5702873132175625  1.0000
  C   C13       1.0  0.2982652376456869  0.0747125597812328  0.9716575318756141  1.0000
  C   C14       1.0  0.7017352363696148  0.42528799739999107  0.47165753187561416  1.0000
  C   C15       1.0  0.7017376565598924  0.9252843996130765  0.0283430450585556  1.0000
  C   C16       1.0  0.2982612392513316  0.5747131169624637  0.5283424681243858  1.0000
  C   C17       1.0  0.3069703216729209  0.9904062541630979  0.9063808919402305  1.0000
  C   C18       1.0  0.6930319998614536  0.5095954173805879  0.4063803150060607  1.0000
  C   C19       1.0  0.6930341321282825  0.009591743973246001  0.0936202619281161  1.0000
  C   C20       1.0  0.3069655755572924  0.49040361949779054  0.5936191080597695  1.0000
  C   C21       1.0  0.24964157323810093  0.8501179095614974  0.9170114809900198  1.0000
  C   C22       1.0  0.7503565293072256  0.6498837619821884  0.4170103271216732  1.0000
  C   C23       1.0  0.750361474233422  0.1498800885748466  0.0829896728783268  1.0000
  C   C24       1.0  0.24964245244120062  0.35011527489619715  0.5829873651416406  1.0000
  C   C25       1.0  0.1837261439345141  0.7958228632671834  0.9892396007615503  1.0000
  C   C26       1.0  0.8162691459514518  0.7041788082765095  0.4892396007615503  1.0000
  C   C27       1.0  0.8162770568029599  0.2041761736112022  0.0107609761726195  1.0000
  C   C28       1.0  0.18372717640355057  0.2958212673439107  0.5107586684359332  1.0000
  C   C29       1.0  0.1732095149342854  0.8799163023880752  0.0535112213696394  1.0000
  C   C30       1.0  0.8267817092285767  0.6200864078976522  0.5535117983038162  1.0000
  C   C31       1.0  0.8267938390691327  0.12008377323234501  0.9464905094328769  1.0000
  C   C32       1.0  0.1732107006692729  0.3799157452068442  0.446487624762014  1.0000
  C   C33       1.0  0.23279524257412015  0.0217398321005149  0.04363583915075249  1.0000
  C   C34       1.0  0.7671985063246609  0.4782628025647924  0.5436358391507523  1.0000
  C   C35       1.0  0.7672078048974029  0.978258166035836  0.9563658916517638  1.0000
  C   C36       1.0  0.23279249724350848  0.5217393505397041  0.4563641608492475  1.0000
  N   N1        1.0  0.029255110840765  0.4003924669898922  0.8091051750995176  1.0000
  N   N2        1.0  0.970746309706385  0.09960497396522071  0.3091051750995176  1.0000
  N   N3        1.0  0.9707452772373414  0.5996065698884863  0.19089540183465195  1.0000
  N   N4        1.0  0.029255944499240585  0.9003971791392757  0.6908948249004823  1.0000
  N   N5        1.0  0.144771330031304  0.4602697129931386  0.926731667916691  1.0000
  N   N6        1.0  0.855230550313685  0.0397308441880853  0.4267322448508607  1.0000
  N   N7        1.0  0.8552293645786974  0.5397314013693162  0.073268332083309  1.0000
  N   N8        1.0  0.14477170389194072  0.9602713089164041  0.5732677551491392  1.0000
  N   N9        1.0  0.2527287596148327  0.3717948599585413  0.8909305948191317  1.0000
  N   N10       1.0  0.7472745270598296  0.1282056972226897  0.3909300178849619  1.0000
  N   N11       1.0  0.7472719349951615  0.6282062544039206  0.1090711359833847  1.0000
  N   N12       1.0  0.2527289802095325  0.8717954171397652  0.609069982115038  1.0000
  N   N13       1.0  0.3457894092286508  0.2136308036355175  0.9851843304678951  1.0000
  N   N14       1.0  0.6542123178503871  0.2863687148036718  0.48518317659954846  1.0000
  N   N15       1.0  0.6542094192538314  0.7863671945008264  0.014816823400451498  1.0000
  N   N16       1.0  0.34578666389803187  0.7136303220747067  0.5148162464662818  1.0000
  N   N17       1.0  0.3104822276802749  0.2466669553926337  0.05926498586511289  1.0000
  N   N18       1.0  0.6895169932712975  0.2533346405306318  0.5592638319967662  1.0000
  N   N19       1.0  0.6895155010044149  0.7533331202277864  0.9407361680032337  1.0000
  N   N20       1.0  0.3104838546046479  0.7466675125738647  0.4407361680032338  1.0000
  N   N21       1.0  0.2439742922698258  0.1318932314554218  0.0945375872612928  1.0000
  N   N22       1.0  0.756021962756435  0.3681073257258092  0.5945375872612926  1.0000
  N   N23       1.0  0.7560259425423367  0.8681047666809221  0.9054635666070536  1.0000
  N   N24       1.0  0.2439746661304625  0.6318948273786873  0.4054624127387072  1.0000
  N   N25       1.0  0.5449628723085027  0.5947795356407398  0.7681895805688581  1.0000
  N   N26       1.0  0.45503507697087997  0.9052210971609044  0.2681936191080609  1.0000
  N   N27       1.0  0.4550250120684112  0.4052205399796804  0.2318069578261088  1.0000
  N   N28       1.0  0.5449712429578426  0.0947800172015505  0.7318075347602857  1.0000
  O   O1        1.0  0.6082947496259833  0.4940672626636626  0.8027202446200903  1.0000
  O   O2        1.0  0.3916958800815422  0.0059332945175683  0.3027213984884298  1.0000
  O   O3        1.0  0.39169047535750673  0.5059338516987921  0.19727802457739324  1.0000
  O   O4        1.0  0.6083121527087556  0.9940698973289699  0.6972786015115702  1.0000
  O   O5        1.0  0.3788843971072566  0.6242829257286999  0.7819188830554467  1.0000
  O   O6        1.0  0.6211108927787095  0.8757187458149859  0.2819286909363612  1.0000
  O   O7        1.0  0.6210972488871462  0.3757129949235676  0.21807188599780855  1.0000
  O   O8        1.0  0.3788954271500202  0.124282368547469  0.7180724629319784  1.0000
  O   O9        1.0  0.6477494222535825  0.6650296596293543  0.7185426642820048  1.0000
  O   O10       1.0  0.352256965003896  0.8349709731722967  0.2185432412161745  1.0000
  O   O11       1.0  0.352247359899259  0.3349735322171767  0.2814579126521649  1.0000
  O   O12       1.0  0.6477492016588896  0.1650291024481234  0.7814590665205117  1.0000
