data_image0
_chemical_formula_structural       Zn2H19C23N2O10F
_chemical_formula_sum              "Zn2 H19 C23 N2 O10 F1"
_cell_length_a       9.867444997097401
_cell_length_b       11.285940496768758
_cell_length_c       16.103958950111252
_cell_angle_alpha    90.02256979205258
_cell_angle_beta     102.45640467609438
_cell_angle_gamma    94.79309717949216

_space_group_name_H-M_alt    "P 1"
_space_group_IT_number       1

loop_
  _space_group_symop_operation_xyz
  'x, y, z'

loop_
  _atom_site_type_symbol
  _atom_site_label
  _atom_site_symmetry_multiplicity
  _atom_site_fract_x
  _atom_site_fract_y
  _atom_site_fract_z
  _atom_site_occupancy
  Zn  Zn1       1.0  0.6422349662345256  0.4851854501412233  0.519623089518511  1.0000
  Zn  Zn2       1.0  0.3590579169943808  0.5127951880970443  0.4755448373412391  1.0000
  H   H1        1.0  0.5889469429589697  0.3349773587074552  0.08167610348057508  1.0000
  H   H2        1.0  0.8994900318292098  0.40538021944903596  0.586182774961429  1.0000
  H   H3        1.0  0.577393314032463  0.3299965513564943  0.9349932768843201  1.0000
  H   H4        1.0  0.10192513832847541  0.5939116142829732  0.4093031053688704  1.0000
  H   H5        1.0  0.2737483538444253  0.5180607778312663  0.9010684754228818  1.0000
  H   H6        1.0  0.3199348614434072  0.3699910088892224  0.905260076299953  1.0000
  H   H7        1.0  0.33628641262834685  0.3688791798906123  0.052298095397318875  1.0000
  H   H8        1.0  0.282380454304338  0.5143639448203742  0.04764830048618759  1.0000
  H   H9        1.0  0.6426556835550911  0.6578223236376459  0.9433147085752436  1.0000
  H   H10       1.0  0.46616634317021527  0.6917735799124571  0.9170244563279296  1.0000
  H   H11       1.0  0.7378952026264686  0.8108683008493854  0.18738256635376158  1.0000
  H   H12       1.0  0.706433139244325  0.4510963296566786  0.9473673681021066  1.0000
  H   H13       1.0  0.7180895022455118  0.4558895123695379  0.09318693749918339  1.0000
  H   H14       1.0  0.4492989434974817  0.6856436984632311  0.05880861785425398  1.0000
  H   H15       1.0  0.38248242928760595  0.8960316222018889  0.4794884280755624  1.0000
  H   H16       1.0  0.6202137896020048  0.10414544785171391  0.5023343918578859  1.0000
  H   H17       1.0  0.3006280036379607  0.10469429108269417  0.47206034732611357  1.0000
  H   H18       1.0  0.8794133327404341  0.570751892959393  0.4447524885277402  1.0000
  H   H19       1.0  0.1244527089948804  0.43549777483269025  0.554791481068406  1.0000
  C   C1        1.0  0.43888176855068667  0.26944260916141616  0.48826012736241603  1.0000
  C   C2        1.0  0.5129476512538744  0.06457877095594708  0.4918866954493949  1.0000
  C   C3        1.0  0.5893418967179117  0.8613721686101456  0.5004554061248142  1.0000
  C   C4        1.0  0.49296437127952697  0.5013316804746993  0.6597139427628276  1.0000
  C   C5        1.0  0.4886249101181122  0.9375605180118001  0.4894036881624685  1.0000
  C   C6        1.0  0.07556725620615622  0.4928531091890278  0.5038583000220739  1.0000
  C   C7        1.0  0.9276314106691785  0.5114393243771147  0.4945245148387725  1.0000
  C   C8        1.0  0.5639117787400992  0.729147262910253  0.5018364673839172  1.0000
  C   C9        1.0  0.5095414621886931  0.5028117510371927  0.3355631691173073  1.0000
  C   C10       1.0  0.6052515525535895  0.4207258089965578  0.9614315415820226  1.0000
  C   C11       1.0  0.35133966393833305  0.4594442760249464  0.9334074054645709  1.0000
  C   C12       1.0  0.6132261409632493  0.4240308463142172  0.05834607380100461  1.0000
  C   C13       1.0  0.35896932180967417  0.45908562612345355  0.03036407488223598  1.0000
  C   C14       1.0  0.511578395741502  0.5050860164241584  0.24605087492819416  1.0000
  C   C15       1.0  0.4952220883458622  0.5025363742023855  0.9154612043696345  1.0000
  C   C16       1.0  0.6694989350360175  0.6958880402033856  0.099838319196742  1.0000
  C   C17       1.0  0.5066322183954669  0.5058566855548889  0.07980762753572179  1.0000
  C   C18       1.0  0.5348440546543928  0.6354591844235457  0.048146750682114686  1.0000
  C   C19       1.0  0.5374262483753115  0.6303730208496745  0.9522593904150012  1.0000
  C   C20       1.0  0.510952650148262  0.5066701989550494  0.17052685905683515  1.0000
  C   C21       1.0  0.4910838717717568  0.5021024925401036  0.8247414889918117  1.0000
  C   C22       1.0  0.490874143292004  0.5016702687799324  0.7492128652726178  1.0000
  C   C23       1.0  0.4100065367766987  0.13863531479675123  0.48313103748043307  1.0000
  N   N1        1.0  0.1516352518306618  0.5404818479951387  0.4557227686094051  1.0000
  N   N2        1.0  0.8505155174120845  0.4607599763359076  0.5409027528650866  1.0000
  O   O1        1.0  0.5661471044509271  0.3119906826308706  0.5038858687070231  1.0000
  O   O2        1.0  0.6459844796389334  0.7784936627130608  0.1556186391773123  1.0000
  O   O3        1.0  0.33297189998828003  0.33044269418792993  0.4768072542594552  1.0000
  O   O4        1.0  0.6108448309374097  0.4918077536535888  0.6410215907343185  1.0000
  O   O5        1.0  0.37742728493347505  0.5107201665352363  0.6074164101567661  1.0000
  O   O6        1.0  0.6698558309682668  0.6697198378308825  0.5184640474774439  1.0000
  O   O7        1.0  0.43636307317299117  0.6887293211463614  0.4862085697032298  1.0000
  O   O8        1.0  0.62570901082303  0.49613296846320043  0.38771007294812404  1.0000
  O   O9        1.0  0.3908032287817563  0.507603375725992  0.3540885916512265  1.0000
  O   O10       1.0  0.7866276281259632  0.6751582952334942  0.0938295476382436  1.0000
  F   F1        1.0  0.7257069521163046  0.9030187795256664  0.5131457348313119  1.0000
