data_image0
_chemical_formula_structural       CuH10C4N10Cl2
_chemical_formula_sum              "Cu1 H10 C4 N10 Cl2"
_cell_length_a       5.113329274162202
_cell_length_b       6.303516989035937
_cell_length_c       8.997886942048055
_cell_angle_alpha    100.2679679567287
_cell_angle_beta     102.14742891125464
_cell_angle_gamma    89.4673199962145

_space_group_name_H-M_alt    "P 1"
_space_group_IT_number       1

loop_
  _space_group_symop_operation_xyz
  'x, y, z'

loop_
  _atom_site_type_symbol
  _atom_site_label
  _atom_site_symmetry_multiplicity
  _atom_site_fract_x
  _atom_site_fract_y
  _atom_site_fract_z
  _atom_site_occupancy
  Cu  Cu1       1.0  1.0134873363699998e-05  3.1677282450000005e-06  4.6521994079999993e-07  1.0000
  H   H1        1.0  0.25141381074948294  0.3671688265840912  0.9208751349358906  1.0000
  H   H2        1.0  0.748605535968899  0.6328421442503185  0.07912933787252285  1.0000
  H   H3        1.0  0.5085565224352494  0.26644054563300296  0.04023579033121649  1.0000
  H   H4        1.0  0.4914431790963647  0.7335769976833931  0.9597738770584884  1.0000
  H   H5        1.0  0.49348737206495485  0.2514427162828953  0.39012575257165594  1.0000
  H   H6        1.0  0.5065092153785214  0.7485522470988786  0.6098707385886898  1.0000
  H   H7        1.0  0.8233708264232931  0.1387437484591345  0.4164685909505934  1.0000
  H   H8        1.0  0.17662169885395682  0.8612496259768394  0.5835283399356471  1.0000
  H   H9        1.0  0.7812412211245033  0.4199999676910764  0.4822196919977273  1.0000
  H   H10       1.0  0.2187495413031542  0.5800014680934781  0.5177646999522594  1.0000
  C   C1        1.0  0.5333619505361257  0.21875202854814546  0.8189418555251253  1.0000
  C   C2        1.0  0.4666421578144621  0.7812332071980633  0.18104985670340304  1.0000
  C   C3        1.0  0.6927255283036758  0.2574960605980934  0.4653627780633088  1.0000
  C   C4        1.0  0.3072653609316802  0.742505389654305  0.5346349671335702  1.0000
  N   N1        1.0  0.4639376269855261  0.28276751298793107  0.6815975973684729  1.0000
  N   N2        1.0  0.5360568477984131  0.7172226351509464  0.3184091618693756  1.0000
  N   N3        1.0  0.6650711679613579  0.2103707529326186  0.6136702717314294  1.0000
  N   N4        1.0  0.3349259090366985  0.7896338938143187  0.3863330387359412  1.0000
  N   N5        1.0  0.8483466629897762  0.10800114732278128  0.6964890880623785  1.0000
  N   N6        1.0  0.1516564550134945  0.8920050745896405  0.3035117890391135  1.0000
  N   N7        1.0  0.7676544493761455  0.1107641872512843  0.828136715436095  1.0000
  N   N8        1.0  0.2323562318034718  0.8892323118481829  0.17186383381586984  1.0000
  N   N9        1.0  0.3891986388509067  0.24855599824338984  0.9317825434671791  1.0000
  N   N10       1.0  0.6108005543611411  0.7514486503967248  0.06823323937766901  1.0000
  Cl  Cl1       1.0  0.02822061536644331  0.6757672366050472  0.8342819957905407  1.0000
  Cl  Cl2       1.0  0.9717806059666784  0.32424221763273675  0.1657146168122097  1.0000
