data_image0
_chemical_formula_structural       CdH40C28S2N4O10
_chemical_formula_sum              "Cd1 H40 C28 S2 N4 O10"
_cell_length_a       7.4702478395058725
_cell_length_b       9.917588932757354
_cell_length_c       11.907249596804908
_cell_angle_alpha    87.55908508495004
_cell_angle_beta     71.13381374478783
_cell_angle_gamma    84.14291968888432

_space_group_name_H-M_alt    "P 1"
_space_group_IT_number       1

loop_
  _space_group_symop_operation_xyz
  'x, y, z'

loop_
  _atom_site_type_symbol
  _atom_site_label
  _atom_site_symmetry_multiplicity
  _atom_site_fract_x
  _atom_site_fract_y
  _atom_site_fract_z
  _atom_site_occupancy
  Cd  Cd1       1.0  0.27902753505680516  0.4990045171783921  0.6015899619819223  1.0000
  H   H1        1.0  0.8998510883163888  0.5825910141230679  0.5589386356521615  1.0000
  H   H2        1.0  0.726706857624684  0.5647670865123404  0.41511004229688103  1.0000
  H   H3        1.0  0.24742927137432244  0.3774787663972889  0.17270134516724062  1.0000
  H   H4        1.0  0.39674897544593074  0.39835803519363827  0.32880468692112436  1.0000
  H   H5        1.0  0.8503327047095368  0.32811058496744755  0.9408727027910545  1.0000
  H   H6        1.0  0.6901993879368573  0.6531812330186214  0.2696419099402974  1.0000
  H   H7        1.0  0.10114720005011427  0.22408215183943986  0.9158281667846994  1.0000
  H   H8        1.0  0.26003776316763794  0.047128139613938906  0.08401281515215686  1.0000
  H   H9        1.0  0.3023747696285923  0.013488526367773108  0.9329771844261361  1.0000
  H   H10       1.0  0.4324273530165428  0.25504026861568013  0.03176570572834689  1.0000
  H   H11       1.0  0.461118290921668  0.23617971986692504  0.8796593980952139  1.0000
  H   H12       1.0  0.5791079217764119  0.1164640524407403  0.9520280520042095  1.0000
  H   H13       1.0  0.790544273024416  0.13579830068475474  0.04496527858281497  1.0000
  H   H14       1.0  0.921984550853665  0.026664615271052104  0.11898830394424917  1.0000
  H   H15       1.0  0.9561786829992299  0.005036377806469301  0.9650522812755329  1.0000
  H   H16       1.0  0.4217790032316202  0.7377981479881159  0.3052801897718069  1.0000
  H   H17       1.0  0.5227159230912547  0.9344705057472142  0.0944443617734194  1.0000
  H   H18       1.0  0.6692964241737442  0.8698039614090975  0.17802281215370644  1.0000
  H   H19       1.0  0.44403931647732964  0.9956958664117653  0.35917197212969404  1.0000
  H   H20       1.0  0.3116359655776932  0.0716846863908316  0.2695233775825088  1.0000
  H   H21       1.0  0.5506776536768496  0.10455062211080703  0.24001070520671425  1.0000
  H   H22       1.0  0.11617129256669759  0.7251554057622019  0.2733427887468736  1.0000
  H   H23       1.0  0.16667230700323896  0.8525271773828395  0.16058841689677913  1.0000
  H   H24       1.0  0.12999942159308375  0.8938228712875117  0.3110104124436148  1.0000
  H   H25       1.0  0.28493640794534514  0.5792003587886613  0.04243725829534379  1.0000
  H   H26       1.0  0.14815787871547303  0.5701676044056044  0.8786722007986257  1.0000
  H   H27       1.0  0.6695527013221818  0.4378742820037901  0.6398371717691802  1.0000
  H   H28       1.0  0.8306117321550843  0.44521769589579935  0.7924265972801977  1.0000
  H   H29       1.0  0.8925625631566729  0.18148684239312024  0.4553583226506462  1.0000
  H   H30       1.0  0.8305966459550689  0.18801716452512102  0.3202424906101555  1.0000
  H   H31       1.0  0.8115059245761242  0.03429409284342461  0.4075930151085956  1.0000
  H   H32       1.0  0.41244447216872965  0.17195626960214844  0.6954396298783153  1.0000
  H   H33       1.0  0.6682737953398217  0.15890864971207466  0.6583472509286069  1.0000
  H   H34       1.0  0.5500689613451186  0.019288973997390702  0.6292240690310679  1.0000
  H   H35       1.0  0.9058422021448038  0.847434274254738  0.5551437718788961  1.0000
  H   H36       1.0  0.15974417419470646  0.8365829055605759  0.5256028039064873  1.0000
  H   H37       1.0  0.015226099632414508  0.9865021455817742  0.5934097601162592  1.0000
  H   H38       1.0  0.7172757172075847  0.8025153078640131  0.8905958353121548  1.0000
  H   H39       1.0  0.6684260469235497  0.8127339913396842  0.7511703205830359  1.0000
  H   H40       1.0  0.7377646046857649  0.9592143547404107  0.8071547122777362  1.0000
  C   C1        1.0  0.9710135301044571  0.537566777331847  0.4720378493166352  1.0000
  C   C2        1.0  0.8763703280526799  0.5289309223251807  0.3905045839114293  1.0000
  C   C3        1.0  0.9721113190325353  0.4732945023066436  0.27784360009988524  1.0000
  C   C4        1.0  0.16348043319325714  0.42328681582561256  0.2569070168720131  1.0000
  C   C5        1.0  0.24827050384040208  0.4346883618050726  0.3438851635404916  1.0000
  C   C6        1.0  0.8713720088849328  0.47674356366015064  0.18943493158017324  1.0000
  C   C7        1.0  0.9147890160491982  0.38250696798818506  0.09579711696839865  1.0000
  C   C8        1.0  0.8154973486130144  0.39847165096357173  0.014066523231193237  1.0000
  C   C9        1.0  0.6668680317023217  0.5007168377194873  0.024153999162962146  1.0000
  C   C10       1.0  0.616579322495511  0.5906544336150577  0.12103490634031999  1.0000
  C   C11       1.0  0.7224172261380133  0.5796622077344014  0.198981229116356  1.0000
  C   C12       1.0  0.0882076068481439  0.1735421439447578  0.001978075162433893  1.0000
  C   C13       1.0  0.27703560008148986  0.09600499144291062  0.997054886428245  1.0000
  C   C14       1.0  0.4458866522345914  0.18050835764216092  0.9633591810479771  1.0000
  C   C15       1.0  0.9290634530112811  0.08018882723029461  0.03514818736417885  1.0000
  C   C16       1.0  0.4026387688849553  0.7839582620788975  0.2236785455799577  1.0000
  C   C17       1.0  0.5215115976137168  0.9044854167023433  0.1847170370300759  1.0000
  C   C18       1.0  0.45238658172245033  0.025251891289542513  0.267894791803144  1.0000
  C   C19       1.0  0.19148611001769214  0.8159079852563453  0.24311043861645493  1.0000
  C   C20       1.0  0.571546287748795  0.5093802779038087  0.9328543065987276  1.0000
  C   C21       1.0  0.37667649369446815  0.5478870244874374  0.9547605810857861  1.0000
  C   C22       1.0  0.2991418432958709  0.54301915164816  0.8636667655084197  1.0000
  C   C23       1.0  0.5904792499364717  0.46936262796268846  0.7303403325280726  1.0000
  C   C24       1.0  0.6782707856741437  0.47147927277885066  0.816224329353105  1.0000
  C   C25       1.0  0.7996756474882786  0.14543920957650872  0.41027582081655817  1.0000
  C   C26       1.0  0.5482553880572566  0.13000005503909054  0.6334302520282407  1.0000
  C   C27       1.0  0.02072850533917861  0.8760397163978485  0.5854835010177198  1.0000
  C   C28       1.0  0.7542196297822554  0.8482307596060892  0.8014765841424066  1.0000
  S   S1        1.0  0.5554711995145568  0.19859156880464476  0.4900065180782179  1.0000
  S   S2        1.0  0.0023160037458893846  0.7999272764694114  0.7280155622922138  1.0000
  N   N1        1.0  0.1550493326002567  0.4918785576589429  0.449994250432198  1.0000
  N   N2        1.0  0.4032930328897848  0.5037528543290222  0.7529976761423711  1.0000
  N   N3        1.0  0.03544571768857446  0.22879526155624327  0.6843557808818161  1.0000
  N   N4        1.0  0.5237863995347424  0.7722506117534068  0.5320202830147309  1.0000
  O   O1        1.0  0.05091394751789122  0.27794703965246736  0.0917972196921752  1.0000
  O   O2        1.0  0.4665372036314536  0.6843697884679473  0.12929746338903667  1.0000
  O   O3        1.0  0.5485982434941902  0.352967516965883  0.4981915607869781  1.0000
  O   O4        1.0  0.013724329340654193  0.6466240008444901  0.7108411709365612  1.0000
  O   O5        1.0  0.11157446857308881  0.32009837532675794  0.723931794401615  1.0000
  O   O6        1.0  0.08446635010095348  0.20821153369040968  0.5746257456430969  1.0000
  O   O7        1.0  0.913775240336619  0.16289786039062193  0.7585550651635417  1.0000
  O   O8        1.0  0.4524401384434499  0.6809059700145282  0.48889969393761856  1.0000
  O   O9        1.0  0.6580168320303201  0.8316504555703262  0.4619308781545115  1.0000
  O   O10       1.0  0.45748539231135504  0.7993612619530596  0.6406711196602686  1.0000
