data_image0
_chemical_formula_structural       Zn2H36C16S4O16
_chemical_formula_sum              "Zn2 H36 C16 S4 O16"
_cell_length_a       7.770967169840227
_cell_length_b       8.985634236002031
_cell_length_c       10.60260499927123
_cell_angle_alpha    89.99995366366907
_cell_angle_beta     102.68020501830952
_cell_angle_gamma    90.00007059843297

_space_group_name_H-M_alt    "P 1"
_space_group_IT_number       1

loop_
  _space_group_symop_operation_xyz
  'x, y, z'

loop_
  _atom_site_type_symbol
  _atom_site_label
  _atom_site_symmetry_multiplicity
  _atom_site_fract_x
  _atom_site_fract_y
  _atom_site_fract_z
  _atom_site_occupancy
  Zn  Zn1       1.0  0.9999998944093917  6.421356600000008e-08  0.9999999700959921  1.0000
  Zn  Zn2       1.0  0.49999994620560523  0.5000014633357  0.5000000940144176  1.0000
  H   H1        1.0  0.8581465136250728  0.5616721309890664  0.8882067607865383  1.0000
  H   H2        1.0  0.6418580329831229  0.061674051808339  0.6117926789833774  1.0000
  H   H3        1.0  0.14185996875483647  0.43832745702331993  0.11179352630284708  1.0000
  H   H4        1.0  0.358151092439229  0.9383288748673093  0.3882089692842499  1.0000
  H   H5        1.0  0.3985258228859649  0.8063779975314772  0.976005800599772  1.0000
  H   H6        1.0  0.10147055429643362  0.3063777329349762  0.5239937378816891  1.0000
  H   H7        1.0  0.6014714315192221  0.19362047758870923  0.023993970219052595  1.0000
  H   H8        1.0  0.8985253811071557  0.6936207421846066  0.47600582433159394  1.0000
  H   H9        1.0  0.4768960165430158  0.6336483216781306  0.0566594052558571  1.0000
  H   H10       1.0  0.02310014277620809  0.13364979951195013  0.4433399985338724  1.0000
  H   H11       1.0  0.5231012378614607  0.3663490405545603  0.9433403655632305  1.0000
  H   H12       1.0  0.9768971065925527  0.8663497884961799  0.5566588283167208  1.0000
  H   H13       1.0  0.5431875116900002  0.685025515145732  0.9097766882684513  1.0000
  H   H14       1.0  0.9568092779208968  0.18502445524708833  0.5902214404222265  1.0000
  H   H15       1.0  0.4568097376780501  0.3149729599749024  0.09022213858241203  1.0000
  H   H16       1.0  0.04318796641002361  0.8149740198739935  0.4097764424606751  1.0000
  H   H17       1.0  0.7059605428831687  0.9621204233485017  0.27637134061403407  1.0000
  H   H18       1.0  0.7940366115127374  0.46212240068221183  0.22362832454017934  1.0000
  H   H19       1.0  0.29403803556073893  0.037878051771848206  0.723629582778287  1.0000
  H   H20       1.0  0.20596196189545424  0.5378783002135777  0.776371654883647  1.0000
  H   H21       1.0  0.5680117400778714  0.8015295717179144  0.2741401189293313  1.0000
  H   H22       1.0  0.9319852099051148  0.3015316947062416  0.22585962361710443  1.0000
  H   H23       1.0  0.43198420036285523  0.1984689034012206  0.7258603872519133  1.0000
  H   H24       1.0  0.0680133534288174  0.698469006190443  0.7741384678707989  1.0000
  H   H25       1.0  0.4879624980070929  0.9602273347726115  0.17174285515704213  1.0000
  H   H26       1.0  0.012034077007655198  0.46022779747062265  0.3282563912473364  1.0000
  H   H27       1.0  0.5120347563988048  0.0397722532350713  0.8282569156615126  1.0000
  H   H28       1.0  0.9879644913627031  0.5397717905381187  0.6717426442087985  1.0000
  H   H29       1.0  0.17117029692851563  0.0742095435811265  0.23566303151709186  1.0000
  H   H30       1.0  0.32882974877415455  0.5742110479952345  0.2643379707020657  1.0000
  H   H31       1.0  0.8288295954805633  0.925790044427771  0.7643371565125464  1.0000
  H   H32       1.0  0.6711688246340375  0.42578965290056203  0.7356620087217608  1.0000
  H   H33       1.0  0.1439106558955316  0.8960591501370062  0.21399623069996207  1.0000
  H   H34       1.0  0.3560898095571971  0.3960600216488076  0.28600650434888314  1.0000
  H   H35       1.0  0.8560892465878068  0.1039404378710032  0.7860058452655992  1.0000
  H   H36       1.0  0.6439087739245578  0.6039395663585907  0.7139953630111364  1.0000
  C   C1        1.0  0.9342362438387326  0.47828459430731124  0.9514652713183126  1.0000
  C   C2        1.0  0.5657833874174685  0.9782837966711571  0.5485447580501699  1.0000
  C   C3        1.0  0.06576758542730228  0.521716106592699  0.048531766655841614  1.0000
  C   C4        1.0  0.43422705196863376  0.0217180171180402  0.45145615485530755  1.0000
  C   C5        1.0  0.8958693676796016  0.3183582028215213  0.9219992522196281  1.0000
  C   C6        1.0  0.604132852543067  0.8183574182200959  0.5779968147333179  1.0000
  C   C7        1.0  0.10413316273407962  0.6816436109635903  0.07800135302055371  1.0000
  C   C8        1.0  0.39587231587450594  0.1816455084537267  0.4220042077176842  1.0000
  C   C9        1.0  0.5079492974028951  0.7265394965406671  0.9980925370740368  1.0000
  C   C10       1.0  0.9920488640520234  0.22653855850496998  0.5019057802156511  1.0000
  C   C11       1.0  0.4920492760045931  0.2734600914676264  0.0019074423500527063  1.0000
  C   C12       1.0  0.0079497043176175  0.7734599166162751  0.49809325524075393  1.0000
  C   C13       1.0  0.603456824019723  0.8932716120638634  0.21617895655715816  1.0000
  C   C14       1.0  0.896540237702048  0.3932725289913819  0.2838197978091017  1.0000
  C   C15       1.0  0.39653910634673656  0.1067268630561671  0.7838196616881633  1.0000
  C   C16       1.0  0.10345833066901383  0.6067281719048552  0.7161792376467631  1.0000
  S   S1        1.0  0.6997521540861557  0.8182764604683044  0.09119192195580444  1.0000
  S   S2        1.0  0.800244817213425  0.31827826808614657  0.408807812520017  1.0000
  S   S3        1.0  0.30024377628101456  0.1817231275392217  0.9088066962892472  1.0000
  S   S4        1.0  0.19975507519707492  0.68172354569775  0.5911923755090883  1.0000
  O   O1        1.0  0.8078905708494233  0.2853432891008439  0.8087917503674263  1.0000
  O   O2        1.0  0.6921155996153133  0.7853447167018787  0.6912115660879508  1.0000
  O   O3        1.0  0.19211065063551297  0.7146562989077696  0.19121053420367676  1.0000
  O   O4        1.0  0.3078869257612382  0.2146570970836805  0.3087880951842763  1.0000
  O   O5        1.0  0.08127328869623798  0.9942992639289511  0.20667884444382884  1.0000
  O   O6        1.0  0.4187273018037772  0.4942990826854513  0.2933238432611986  1.0000
  O   O7        1.0  0.9187252947862207  0.0057014369659498  0.7933230229159209  1.0000
  O   O8        1.0  0.5812725906067157  0.5057027310984453  0.7066763447678995  1.0000
  O   O9        1.0  0.9572851689374887  0.2255138041120901  0.011332864185213457  1.0000
  O   O10       1.0  0.5427209374482657  0.7255192399184267  0.48867215110472273  1.0000
  O   O11       1.0  0.04271603743675461  0.774486896785362  0.9886665884817348  1.0000
  O   O12       1.0  0.45728159800396645  0.27448479964122907  0.5113293981028876  1.0000
  O   O13       1.0  0.7305907105649965  0.952353862866893  0.009668026222016141  1.0000
  O   O14       1.0  0.7694090744393876  0.45235555980524117  0.4903330048180338  1.0000
  O   O15       1.0  0.2694078729153375  0.0476434993655133  0.9903338411385364  1.0000
  O   O16       1.0  0.23059213697199246  0.5476451410917634  0.5096673918168763  1.0000
