data_image0
_chemical_formula_structural       Mg8H108C120N8O48
_chemical_formula_sum              "Mg8 H108 C120 N8 O48"
_cell_length_a       10.901497350398733
_cell_length_b       15.944970610564171
_cell_length_c       23.809878151350205
_cell_angle_alpha    90.02192842606716
_cell_angle_beta     90.04308530384978
_cell_angle_gamma    89.96764954653118

_space_group_name_H-M_alt    "P 1"
_space_group_IT_number       1

loop_
  _space_group_symop_operation_xyz
  'x, y, z'

loop_
  _atom_site_type_symbol
  _atom_site_label
  _atom_site_symmetry_multiplicity
  _atom_site_fract_x
  _atom_site_fract_y
  _atom_site_fract_z
  _atom_site_occupancy
  Mg  Mg1       1.0  0.5543526729385847  0.13712715748054896  0.1605931069289426  1.0000
  Mg  Mg2       1.0  0.34743464078574254  0.2875675964139788  0.2292122935035579  1.0000
  Mg  Mg3       1.0  0.3486999689252245  0.46376306165856107  0.7299761894826418  1.0000
  Mg  Mg4       1.0  0.4397771099737541  0.6259957807095943  0.34029600374157803  1.0000
  Mg  Mg5       1.0  0.6586292324143486  0.781653485198504  0.2659127207820902  1.0000
  Mg  Mg6       1.0  0.5573601490454722  0.613491854315626  0.6618964996911956  1.0000
  Mg  Mg7       1.0  0.4313410600760648  0.12033671103542076  0.8379173019323217  1.0000
  Mg  Mg8       1.0  0.6391755443823612  0.9665040031726801  0.7647083716149651  1.0000
  H   H1        1.0  0.5306554961851049  0.8493950238004329  0.1850422336598143  1.0000
  H   H2        1.0  0.2005872310082992  0.1057720770384165  0.34020651143178066  1.0000
  H   H3        1.0  0.17752845293308184  0.27360465301505593  0.3376601752290114  1.0000
  H   H4        1.0  0.38549302173711913  0.19199221283130188  0.00048457683865170013  1.0000
  H   H5        1.0  0.1764095988758712  0.34629346472241446  0.1125696109257532  1.0000
  H   H6        1.0  0.1542172033179341  0.3855284454457006  0.9330079500527189  1.0000
  H   H7        1.0  0.958696296008263  0.3129876832831399  0.22743579009701878  1.0000
  H   H8        1.0  0.8490898391477588  0.34932836691105956  0.2779164829708094  1.0000
  H   H9        1.0  0.8536359133557454  0.24077131893378118  0.2588183523461254  1.0000
  H   H10       1.0  0.9027969310526558  0.19774243489522547  0.3622634205673876  1.0000
  H   H11       1.0  0.8928531931259868  0.3055293747735561  0.3823960224974456  1.0000
  H   H12       1.0  0.731572755248834  0.7553894816385665  0.03273659055737  1.0000
  H   H13       1.0  0.28510671062233683  0.11351212161320486  0.4249038093798632  1.0000
  H   H14       1.0  0.268980019289522  0.24659635780875527  0.4752919599603018  1.0000
  H   H15       1.0  0.15558491016871304  0.3625943881754877  0.4346404703245241  1.0000
  H   H16       1.0  0.3920227735082095  0.5537659706389348  0.5012923567640968  1.0000
  H   H17       1.0  0.17818204436660784  0.40392470872378533  0.614008262306136  1.0000
  H   H18       1.0  0.5612404273564309  0.42361901917387  0.2467475694646666  1.0000
  H   H19       1.0  0.7935167927755346  0.6035528393458731  0.16604965966809  1.0000
  H   H20       1.0  0.7776576554330816  0.34825627152065397  0.10484998742443  1.0000
  H   H21       1.0  0.9742481737354822  0.37711431883323593  0.0963007399213467  1.0000
  H   H22       1.0  0.7161979376090599  0.6217041868677737  0.0818415411812694  1.0000
  H   H23       1.0  0.8212466721154358  0.9933754932810784  0.6639486849542919  1.0000
  H   H24       1.0  0.8432344275611926  0.8739137680205572  0.0676001599394027  1.0000
  H   H25       1.0  0.0236728208303845  0.9038058431493424  0.7674885394747335  1.0000
  H   H26       1.0  0.11981335483685743  0.8633688998116325  0.7127919282087732  1.0000
  H   H27       1.0  0.1484813119219837  0.9651632010813385  0.741119811175416  1.0000
  H   H28       1.0  0.09096455654665901  0.9350486686326746  0.6136334883227832  1.0000
  H   H29       1.0  0.8419983215078093  0.8784563301064235  0.5678111473380412  1.0000
  H   H30       1.0  0.6073620044837041  0.6875568672323311  0.4997031159522151  1.0000
  H   H31       1.0  0.819995010339099  0.8403174667666065  0.38809904183433735  1.0000
  H   H32       1.0  0.2636461102130738  0.5014490838560661  0.970824552944741  1.0000
  H   H33       1.0  0.8366014140581371  0.7544541915905963  0.1621151320737937  1.0000
  H   H34       1.0  0.42559048765988194  0.8179162424079535  0.7500541329349133  1.0000
  H   H35       1.0  0.19376723934185242  0.6441118995879193  0.836234153113999  1.0000
  H   H36       1.0  0.20999738932462012  0.9037189425920927  0.8892115694824483  1.0000
  H   H37       1.0  0.0141878849042669  0.8755553022751598  0.9019534512035463  1.0000
  H   H38       1.0  0.2767679246835826  0.6341540091339507  0.9198741551849352  1.0000
  H   H39       1.0  0.5603952573539673  0.3254812881676656  0.7475210620769204  1.0000
  H   H40       1.0  0.7884949704284381  0.144517854258396  0.6650525571482575  1.0000
  H   H41       1.0  0.7794182367406679  0.40151398684552214  0.6067242897614733  1.0000
  H   H42       1.0  0.9738162847963068  0.37194845405169014  0.5973365632362686  1.0000
  H   H43       1.0  0.7151868009157526  0.12782043706278046  0.5798813312851863  1.0000
  H   H44       1.0  0.7319353668752626  0.994718104525887  0.5301875008869672  1.0000
  H   H45       1.0  0.0513028622288445  0.8150902080702519  0.2700418953027182  1.0000
  H   H46       1.0  0.14628563069064876  0.8625543882600722  0.2176489063894564  1.0000
  H   H47       1.0  0.17075724050320673  0.7556591805781067  0.23677121624910308  1.0000
  H   H48       1.0  0.12487869120290901  0.6987522862440655  0.1386144827031615  1.0000
  H   H49       1.0  0.11251459738750211  0.804546882494236  0.114329224215787  1.0000
  H   H50       1.0  0.4371771565833811  0.9360322292084645  0.2527449007538252  1.0000
  H   H51       1.0  0.22123756721493487  0.8448688716703998  0.39013633829140565  1.0000
  H   H52       1.0  0.023087110531939504  0.8725939718251824  0.4037168162281617  1.0000
  H   H53       1.0  0.16831520572309702  0.4770084841021997  0.8358445442282659  1.0000
  H   H54       1.0  0.8490160556680949  0.47309412556389663  0.7522962829661779  1.0000
  H   H55       1.0  0.5979345970885747  0.058636283627308196  0.9994791997452025  1.0000
  H   H56       1.0  0.031026738054450206  0.24779677435391528  0.39406498271014817  1.0000
  H   H57       1.0  0.30883818908881017  0.5116458157745143  0.2207336086578593  1.0000
  H   H58       1.0  0.4310640380574  0.4251427375385645  0.0924239505106073  1.0000
  H   H59       1.0  0.5411981607539006  0.5084113396690526  0.09163699072115608  1.0000
  H   H60       1.0  0.39816559207224606  0.5204399071849009  0.0553160509349055  1.0000
  H   H61       1.0  0.3449951833818119  0.6345387605628119  0.1900641377215848  1.0000
  H   H62       1.0  0.33209193907341483  0.6470403014455783  0.1152072477872323  1.0000
  H   H63       1.0  0.4794375086615545  0.6431500671702748  0.1482401967311517  1.0000
  H   H64       1.0  0.8096202384314992  0.9050758388867663  0.8878042133311651  1.0000
  H   H65       1.0  0.975333355154632  0.014303102852494498  0.6100624441677169  1.0000
  H   H66       1.0  0.7834865899953202  0.7763285053724258  0.7980528063436267  1.0000
  H   H67       1.0  0.594804074740459  0.7578451207075503  0.941797670373994  1.0000
  H   H68       1.0  0.5146157957019498  0.8047505688059146  0.8840374340825007  1.0000
  H   H69       1.0  0.5037904051101239  0.694180030144352  0.8958606301303647  1.0000
  H   H70       1.0  0.8245697388761003  0.6640530272043745  0.8430602285044201  1.0000
  H   H71       1.0  0.7805957824426741  0.6628714624000549  0.9154770554037556  1.0000
  H   H72       1.0  0.6924935746462779  0.6062077480620118  0.8645834899783935  1.0000
  H   H73       1.0  0.2541660371833672  0.5288796958183681  0.31695371728945076  1.0000
  H   H74       1.0  0.20851102912248362  0.6229666945723694  0.3091620502331267  1.0000
  H   H75       1.0  0.9867723075240422  0.7338711518817504  0.10590938920982748  1.0000
  H   H76       1.0  0.7669940019235215  0.0023523326311618996  0.30172915356636304  1.0000
  H   H77       1.0  0.544719741653374  0.9058503747852172  0.39340303583202285  1.0000
  H   H78       1.0  0.46867317562124106  0.004611126660812199  0.40093710920849185  1.0000
  H   H79       1.0  0.5878636303833815  0.9752640611614254  0.4490657908857045  1.0000
  H   H80       1.0  0.7485023810358983  0.11606329759720779  0.34781293290960497  1.0000
  H   H81       1.0  0.7305169915968007  0.09917222882745585  0.4219715916519462  1.0000
  H   H82       1.0  0.6044387889677694  0.13587998847733468  0.38044872168791943  1.0000
  H   H83       1.0  0.6126796437795933  0.705292592587355  0.7379933545469655  1.0000
  H   H84       1.0  0.7124521017009329  0.7258643252534114  0.6930213333803721  1.0000
  H   H85       1.0  0.013052086677852502  0.49362815770146523  0.8903265425506531  1.0000
  H   H86       1.0  0.2977040079485462  0.24278995522764285  0.7197826382696704  1.0000
  H   H87       1.0  0.4407368205201864  0.32286067741091523  0.5942631658116042  1.0000
  H   H88       1.0  0.5417822615337187  0.23433408874760883  0.5952544129654953  1.0000
  H   H89       1.0  0.4010393584427804  0.22935350941936858  0.5564460963186022  1.0000
  H   H90       1.0  0.32427293486165354  0.11865891945801367  0.6899026608205716  1.0000
  H   H91       1.0  0.31558422509215944  0.1068753753177134  0.6148162227899263  1.0000
  H   H92       1.0  0.4604953826491425  0.10281509474257429  0.6501926935003368  1.0000
  H   H93       1.0  0.1167067403624031  0.03529284008773458  0.6452332329180734  1.0000
  H   H94       1.0  0.6635630050189363  0.8834928294773616  0.1692429115419003  1.0000
  H   H95       1.0  0.4580116940551306  0.4289363395062437  0.8301356838078604  1.0000
  H   H96       1.0  0.34905048029083474  0.36234485896591206  0.8262199044119853  1.0000
  H   H97       1.0  0.4620972399078768  0.3240249416956117  0.327599272428003  1.0000
  H   H98       1.0  0.35061965636578657  0.3889083321075475  0.3254049556797654  1.0000
  H   H99       1.0  0.6188315853941476  0.05033720152783869  0.2368281606050502  1.0000
  H   H100      1.0  0.7188036268998488  0.030297267113788  0.1916495447016047  1.0000
  H   H101      1.0  0.5092216896435886  0.8990522659394384  0.6808900983174766  1.0000
  H   H102      1.0  0.6451291504541957  0.8679346030216661  0.6677841707039178  1.0000
  H   H103      1.0  0.20393801576484097  0.12766577463425924  0.8071509805498492  1.0000
  H   H104      1.0  0.2512529833667827  0.221351157705179  0.8150877163567075  1.0000
  H   H105      1.0  0.9654824093550759  0.4039773258569638  0.7268021985635684  1.0000
  H   H106      1.0  0.8570271644184045  0.36778277134844467  0.7779025753678326  1.0000
  H   H107      1.0  0.8686590242662574  0.5144221740518448  0.8578019024877223  1.0000
  H   H108      1.0  0.9034858740486486  0.4111241115925424  0.8818654071118316  1.0000
  C   C1        1.0  0.3242633791550348  0.0284130638935096  0.29377102023164525  1.0000
  C   C2        1.0  0.2376363092968461  0.042646441708804196  0.3360092069545715  1.0000
  C   C3        1.0  0.3723113386921356  0.10049818692656487  0.2590223664274021  1.0000
  C   C4        1.0  0.12016826977036743  0.28903208255967866  0.300807077157323  1.0000
  C   C5        1.0  0.0843110723008138  0.5258711015892741  0.0071191279036924  1.0000
  C   C6        1.0  0.07220023168731872  0.44737397560901815  0.0344856942340144  1.0000
  C   C7        1.0  0.1567553450007679  0.37703746326087634  0.024108173183662998  1.0000
  C   C8        1.0  0.32011028454901697  0.24269532605265448  0.0070265554854528995  1.0000
  C   C9        1.0  0.282832936593529  0.2639681506413254  0.06128815222731989  1.0000
  C   C10       1.0  0.20122652719235393  0.330259163081358  0.0695636173657377  1.0000
  C   C11       1.0  0.3356034426171064  0.22098448374112678  0.1119448251518733  1.0000
  C   C12       1.0  0.19141641563503245  0.3534670877041179  0.9696415768805623  1.0000
  C   C13       1.0  0.2724391371381998  0.28671735529649567  0.9610328921217928  1.0000
  C   C14       1.0  0.3071339911020061  0.26131321968309607  0.9027664752057518  1.0000
  C   C15       1.0  0.9097446365350736  0.2970899751872195  0.2660796207058524  1.0000
  C   C16       1.0  0.9539475962341301  0.2569960852240527  0.3651260000216752  1.0000
  C   C17       1.0  0.7977246920544374  0.6352721695172504  0.0570876099602202  1.0000
  C   C18       1.0  0.8059661286726508  0.7100702869526287  0.0293322861691863  1.0000
  C   C19       1.0  0.1048494672217331  0.0675943827752832  0.44935178084436694  1.0000
  C   C20       1.0  0.004053033612493101  0.08229432246941569  0.48688933010724605  1.0000
  C   C21       1.0  0.20204388994595485  0.1277795774781652  0.44841011881669596  1.0000
  C   C22       1.0  0.1934282580373791  0.20198933583451859  0.4768035672459376  1.0000
  C   C23       1.0  0.0873955425254493  0.2227878399514935  0.5092776039707729  1.0000
  C   C24       1.0  0.07381729659026352  0.30158758535696245  0.5362240886339578  1.0000
  C   C25       1.0  0.15864509256441292  0.3718132648142713  0.5257390008125071  1.0000
  C   C26       1.0  0.19364291079823198  0.39460403622253876  0.4711237531284667  1.0000
  C   C27       1.0  0.27601505093192463  0.4604534708076569  0.46219775591647044  1.0000
  C   C28       1.0  0.3251035834991072  0.5041182321643236  0.5080114726805718  1.0000
  C   C29       1.0  0.2871531589491384  0.48400866607870796  0.5623087792719303  1.0000
  C   C30       1.0  0.2038084632251156  0.41885885042287185  0.5709379589729053  1.0000
  C   C31       1.0  0.31102344131463877  0.4857236892342769  0.4039645687075931  1.0000
  C   C32       1.0  0.34063361348407994  0.5274634214203073  0.6126066055983017  1.0000
  C   C33       1.0  0.6228174036472183  0.288361907300107  0.17833351410725126  1.0000
  C   C34       1.0  0.6684227851002333  0.3768772524155678  0.1767345385641619  1.0000
  C   C35       1.0  0.6280228426430129  0.43860618637366144  0.2142755242067196  1.0000
  C   C36       1.0  0.6715370621692572  0.5207852468511402  0.208764936228043  1.0000
  C   C37       1.0  0.7582176955495188  0.5397716573768675  0.16737856193442008  1.0000
  C   C38       1.0  0.7985964100974672  0.479060693860113  0.1289711376562295  1.0000
  C   C39       1.0  0.7516907237946739  0.3975064062196764  0.1342683860642069  1.0000
  C   C40       1.0  0.6210664088903074  0.5917821275359499  0.2437167632195099  1.0000
  C   C41       1.0  0.8905991477860482  0.497787210865738  0.08519721861810578  1.0000
  C   C42       1.0  0.8931604982664256  0.5738663868150977  0.0539975652219411  1.0000
  C   C43       1.0  0.9926631497796876  0.5888530397327826  0.015844001631514  1.0000
  C   C44       1.0  0.9785992158611307  0.4364983781233248  0.0736845420733516  1.0000
  C   C45       1.0  0.8731248088545059  0.9636217674812784  0.6984746019100355  1.0000
  C   C46       1.0  0.8023367057806183  0.903455333184773  0.030809271514868897  1.0000
  C   C47       1.0  0.7187727232980308  0.9688016788012986  0.0391610711254984  1.0000
  C   C48       1.0  0.68597579408938  0.995532021340999  0.0977351358772793  1.0000
  C   C49       1.0  0.07620002020570378  0.9200902995431334  0.7299132211966964  1.0000
  C   C50       1.0  0.04718548035246781  0.9869733439167447  0.6365608314923179  1.0000
  C   C51       1.0  0.9250021800644107  0.9410232472317117  0.4666174672911438  1.0000
  C   C52       1.0  0.8400583777025403  0.8705702193118865  0.4766046579699648  1.0000
  C   C53       1.0  0.8047054280870543  0.8467821067874581  0.5310202499527605  1.0000
  C   C54       1.0  0.7225615424509187  0.7806671181737385  0.5394699679285182  1.0000
  C   C55       1.0  0.6736787432737118  0.7376775646271624  0.4932266144385622  1.0000
  C   C56       1.0  0.7106370106849197  0.7593317202942201  0.438946248533199  1.0000
  C   C57       1.0  0.7942919814419087  0.8245942769234701  0.431045184872616  1.0000
  C   C58       1.0  0.6862078612397512  0.7556226726614594  0.5979383417106163  1.0000
  C   C59       1.0  0.6563269571093642  0.7182983916335458  0.3877284442173162  1.0000
  C   C60       1.0  0.19532378735966924  0.6202448444765877  0.9445993792650071  1.0000
  C   C61       1.0  0.18832457545916273  0.5462106504295788  0.9732314250430035  1.0000
  C   C62       1.0  0.8921107499486709  0.7764817137679855  0.1980653967251982  1.0000
  C   C63       1.0  0.3656442114756544  0.9582022908714405  0.8116430011043078  1.0000
  C   C64       1.0  0.3180398622371641  0.8703498703705248  0.8177296014500043  1.0000
  C   C65       1.0  0.358218308347226  0.8055160904980025  0.7826187857905963  1.0000
  C   C66       1.0  0.31544882923584794  0.7236979788145201  0.7905891680215406  1.0000
  C   C67       1.0  0.22910245875131355  0.7077480936114497  0.8326628134135207  1.0000
  C   C68       1.0  0.18922848765109992  0.7713811538864023  0.8692111608002548  1.0000
  C   C69       1.0  0.23565198425281147  0.8526746714825675  0.8611352668314821  1.0000
  C   C70       1.0  0.36726678322881406  0.6516897371775769  0.7568179824648168  1.0000
  C   C71       1.0  0.0990317263636769  0.7554308029313219  0.9142874263529562  1.0000
  C   C72       1.0  0.09866608746551721  0.6808197112675385  0.9469941048665332  1.0000
  C   C73       1.0  0.0004257949612949016  0.6666740730848059  0.9859407715211788  1.0000
  C   C74       1.0  0.011365139938327202  0.8171347982505991  0.9257150519185301  1.0000
  C   C75       1.0  0.9120408092386257  0.019292834905485293  0.49450238493212584  1.0000
  C   C76       1.0  0.6255965210832812  0.46176780822131736  0.6809249952831421  1.0000
  C   C77       1.0  0.6687365667044034  0.3724936830053807  0.6780129726536616  1.0000
  C   C78       1.0  0.6267038655121695  0.3103547006711692  0.7148464030099433  1.0000
  C   C79       1.0  0.6682607994202884  0.2277475091399879  0.708533949612665  1.0000
  C   C80       1.0  0.7547984359042986  0.20869546820899385  0.6669856670665197  1.0000
  C   C81       1.0  0.7972817853651152  0.2698041797772745  0.6292895791905835  1.0000
  C   C82       1.0  0.7519326693663048  0.35179875811314076  0.6354524665552077  1.0000
  C   C83       1.0  0.6161391510359736  0.15679951801576658  0.743145286908991  1.0000
  C   C84       1.0  0.8903676241716172  0.25123266360656504  0.5857428860112108  1.0000
  C   C85       1.0  0.8938662902579395  0.1753132952530123  0.554202737228529  1.0000
  C   C86       1.0  0.9950634188359545  0.1600729598353965  0.5169424900493098  1.0000
  C   C87       1.0  0.978889535190028  0.3124926296116896  0.5748004267121019  1.0000
  C   C88       1.0  0.7978772032661327  0.11423563769734099  0.5559229445803098  1.0000
  C   C89       1.0  0.806882764908984  0.039712488140779094  0.5277656537846553  1.0000
  C   C90       1.0  0.1003829996194625  0.8042724464613966  0.2306306179889432  1.0000
  C   C91       1.0  0.062078899902800806  0.7523217207484548  0.1337733949669442  1.0000
  C   C92       1.0  0.3830355023754849  0.7947895674970551  0.3116718229403332  1.0000
  C   C93       1.0  0.330401330575647  0.8812422131426986  0.3195231759644983  1.0000
  C   C94       1.0  0.36939220096329006  0.947322915579498  0.2853446958168178  1.0000
  C   C95       1.0  0.19865482896587144  0.9777347255230209  0.37181048355024865  1.0000
  C   C96       1.0  0.24654571314358986  0.8968619175487261  0.3627939759372012  1.0000
  C   C97       1.0  0.10698890169451399  0.9929066952432418  0.416572171712609  1.0000
  C   C98       1.0  0.0188191815814278  0.931280949724673  0.42721158188158626  1.0000
  C   C99       1.0  0.11609746209585133  0.4543160324560275  0.7990708297119653  1.0000
  C   C100      1.0  0.9115965044633967  0.4216904911795963  0.7636926550768024  1.0000
  C   C101      1.0  0.6437815862172658  0.025334989002899995  0.8869778519692346  1.0000
  C   C102      1.0  0.34693135648181084  0.4772050802096429  0.1845697633798338  1.0000
  C   C103      1.0  0.4427120245029671  0.4932997867703647  0.09257509540787372  1.0000
  C   C104      1.0  0.38541300680991963  0.6180434930090469  0.1493742959807918  1.0000
  C   C105      1.0  0.9093814657163719  0.7300525717707699  0.9948795493567957  1.0000
  C   C106      1.0  0.9201799069321981  0.8078608438008102  0.9663394514537771  1.0000
  C   C107      1.0  0.8346694162212817  0.8779298797727076  0.976386122962559  1.0000
  C   C108      1.0  0.7001195228076185  0.9862408227541336  0.9384669040566392  1.0000
  C   C109      1.0  0.7850962580582674  0.9216965131214324  0.930726068065013  1.0000
  C   C110      1.0  0.6654434131811159  0.009242867428390896  0.9928710644297496  1.0000
  C   C111      1.0  0.6969317424295128  0.790298073128298  0.8201552867302908  1.0000
  C   C112      1.0  0.5646322467224891  0.7491088549789352  0.8980924250887838  1.0000
  C   C113      1.0  0.7465313776139553  0.6635046772370783  0.8720653243585018  1.0000
  C   C114      1.0  0.6945216636557207  0.9675912982180106  0.3242363852658201  1.0000
  C   C115      1.0  0.5568262106015923  0.9715686945081144  0.4052049784176646  1.0000
  C   C116      1.0  0.6855480714727165  0.0946459332854346  0.3806971215004396  1.0000
  C   C117      1.0  0.3428150657139711  0.2751973644506052  0.6845551878595016  1.0000
  C   C118      1.0  0.44514159441630596  0.2543017299253023  0.5944860938644183  1.0000
  C   C119      1.0  0.3694951511790237  0.13280561700020846  0.6498987342936431  1.0000
  C   C120      1.0  0.9423232542588523  0.4678554008364486  0.8624570800492961  1.0000
  N   N1        1.0  0.9993304561097816  0.2815106454522294  0.310262846334453  1.0000
  N   N2        1.0  0.9938721160183377  0.9571122692878901  0.6887379838624668  1.0000
  N   N3        1.0  0.0132633871366394  0.7772558773295868  0.1880358806055895  1.0000
  N   N4        1.0  0.9949141305359605  0.44862864383291157  0.8079576880197835  1.0000
  N   N5        1.0  0.38673958337024317  0.5273635045327721  0.1430548082915593  1.0000
  N   N6        1.0  0.671025753910108  0.7369611652447218  0.8621676671414917  1.0000
  N   N7        1.0  0.6488488581049765  0.008971248690656398  0.3688411307826556  1.0000
  N   N8        1.0  0.381533994232889  0.2231596527179818  0.6438545511493743  1.0000
  O   O1        1.0  0.6061805074248953  0.0525540350613483  0.10258361790388898  1.0000
  O   O2        1.0  0.44351276911577053  0.080880071459859  0.21858044827962428  1.0000
  O   O3        1.0  0.34184005389291633  0.17412378514702445  0.2734677400835892  1.0000
  O   O4        1.0  0.16612974686427862  0.3108856609283989  0.2551345691287707  1.0000
  O   O5        1.0  0.4309508935096531  0.17696755375639128  0.1042274613863015  1.0000
  O   O6        1.0  0.2835392100661807  0.2341043775034137  0.158797283677643  1.0000
  O   O7        1.0  0.2564772798474594  0.29962834288181023  0.8609733838275134  1.0000
  O   O8        1.0  0.3836297717962296  0.20218135933443185  0.8977058351061373  1.0000
  O   O9        1.0  0.25840777133563364  0.44893587979374416  0.3621397236361473  1.0000
  O   O10       1.0  0.38992484580651166  0.543452253217893  0.3990402470408014  1.0000
  O   O11       1.0  0.43836335050124126  0.568933284690914  0.6048767311334942  1.0000
  O   O12       1.0  0.28647206936558695  0.5172577314627559  0.6592564018175793  1.0000
  O   O13       1.0  0.5324034829366157  0.2671370511427682  0.20994681606590862  1.0000
  O   O14       1.0  0.6755797311050744  0.23475055421636165  0.1472376775231155  1.0000
  O   O15       1.0  0.5421616975916734  0.5733015148701739  0.2811410400778769  1.0000
  O   O16       1.0  0.6574009237594184  0.6647706101893432  0.2309445536160695  1.0000
  O   O17       1.0  0.8213999889529974  0.9392408885801726  0.7423405891780916  1.0000
  O   O18       1.0  0.740137015836652  0.9595219828714361  0.139360776536364  1.0000
  O   O19       1.0  0.7330367208061261  0.7958165380908466  0.6397197419906248  1.0000
  O   O20       1.0  0.6108956606633953  0.6958159086339817  0.6025439453596632  1.0000
  O   O21       1.0  0.5626672842182359  0.6723375166634966  0.3948279535095693  1.0000
  O   O22       1.0  0.706208336254072  0.7348390652556844  0.34093446988637777  1.0000
  O   O23       1.0  0.8439909317210023  0.7980489282686918  0.24341638067676996  1.0000
  O   O24       1.0  0.4509314379994508  0.9739092242632948  0.7765344965644019  1.0000
  O   O25       1.0  0.438861326523373  0.6711417664076221  0.7165253043154536  1.0000
  O   O26       1.0  0.3398317346517389  0.578010972620177  0.7724484800125423  1.0000
  O   O27       1.0  0.538694050387214  0.17568103894807047  0.7811238263161754  1.0000
  O   O28       1.0  0.6501777091953116  0.08337877978998877  0.7297491248295387  1.0000
  O   O29       1.0  0.5343606468201045  0.4830199007878092  0.7120219378939368  1.0000
  O   O30       1.0  0.6813009630656168  0.5159096036818906  0.6513846786984914  1.0000
  O   O31       1.0  0.46776529911461034  0.7840668647495121  0.2756736669314321  1.0000
  O   O32       1.0  0.3397175373673278  0.7357482889314964  0.3418501901610825  1.0000
  O   O33       1.0  0.16752245440326166  0.4363485031279524  0.7538299396877335  1.0000
  O   O34       1.0  0.61739866902591  0.8357167800782788  0.18699398026467412  1.0000
  O   O35       1.0  0.4025824125807135  0.4015915915223687  0.8041086882137662  1.0000
  O   O36       1.0  0.4043030219057472  0.3508241716125156  0.3023966738496213  1.0000
  O   O37       1.0  0.6878610592550558  0.07631397982349598  0.2171654328768895  1.0000
  O   O38       1.0  0.3526953989881747  0.39907154189931754  0.1828558368336672  1.0000
  O   O39       1.0  0.3182110722361529  0.015022964785202899  0.8424083985820232  1.0000
  O   O40       1.0  0.5949596372257063  0.9141173560625899  0.6852236818488464  1.0000
  O   O41       1.0  0.26548962360357825  0.16717777382335433  0.7938115768398077  1.0000
  O   O42       1.0  0.6296832132114362  0.850017676751811  0.8063024872366639  1.0000
  O   O43       1.0  0.2708015575467612  0.583405402606729  0.296615014548486  1.0000
  O   O44       1.0  0.6584417502439025  0.8974953858476269  0.3084792292102492  1.0000
  O   O45       1.0  0.6828638645125836  0.6799256861865218  0.7188070676947405  1.0000
  O   O46       1.0  0.35699872804771354  0.3528501593831947  0.6831604271424253  1.0000
  O   O47       1.0  0.5483056842870795  0.0696905773488794  0.893683251770355  1.0000
  O   O48       1.0  0.6944220133898612  0.009077336827878897  0.8402318563698756  1.0000
