data_image0
_chemical_formula_structural       K4H12C16O16
_chemical_formula_sum              "K4 H12 C16 O16"
_cell_length_a       4.443622811011968
_cell_length_b       7.882948533024042
_cell_length_c       16.110357410076972
_cell_angle_alpha    89.99973209617536
_cell_angle_beta     90.00024052690924
_cell_angle_gamma    89.9999080849983

_space_group_name_H-M_alt    "P 1"
_space_group_IT_number       1

loop_
  _space_group_symop_operation_xyz
  'x, y, z'

loop_
  _atom_site_type_symbol
  _atom_site_label
  _atom_site_symmetry_multiplicity
  _atom_site_fract_x
  _atom_site_fract_y
  _atom_site_fract_z
  _atom_site_occupancy
  K   K1        1.0  0.7594593660752553  0.24820403529203358  0.9990723585747934  1.0000
  K   K2        1.0  0.24054055776774425  0.7517923411845261  0.49907139080500684  1.0000
  K   K3        1.0  0.24054872713290373  0.7482113407613723  0.9990714752873663  1.0000
  K   K4        1.0  0.7594624487766951  0.2517913785173747  0.49907165337324266  1.0000
  H   H1        1.0  0.5813664442414608  0.5661151950314717  0.8219783620739138  1.0000
  H   H2        1.0  0.4186263836415804  0.4338917545578553  0.32197585227288533  1.0000
  H   H3        1.0  0.4186305688518103  0.0661094672736482  0.821975732448742  1.0000
  H   H4        1.0  0.5813735111248306  0.9338847967049091  0.3219778612006223  1.0000
  H   H5        1.0  0.5826166095575829  0.5681912536259047  0.6768897109248045  1.0000
  H   H6        1.0  0.41738084348556737  0.431809471769725  0.1768878250983406  1.0000
  H   H7        1.0  0.41738052196082265  0.06818806412071861  0.6768877005140868  1.0000
  H   H8        1.0  0.5826146806770967  0.9318050499107501  0.1768898355164055  1.0000
  H   H9        1.0  0.0064097608805866  0.2889923418133122  0.7488626373540583  1.0000
  H   H10       1.0  0.9935932476835562  0.7110102325671759  0.24886266723815717  1.0000
  H   H11       1.0  0.9935900492623799  0.7889888157633536  0.7488626584614126  1.0000
  H   H12       1.0  0.0064084584804931025  0.21100614725398967  0.2488626461368  1.0000
  C   C1        1.0  0.21841529860213174  0.39475929020670725  0.8505345035348599  1.0000
  C   C2        1.0  0.7815779477569152  0.6052435806686203  0.3505338999427182  1.0000
  C   C3        1.0  0.7815834509004277  0.8947610306953848  0.8505342700239994  1.0000
  C   C4        1.0  0.2184232979484406  0.10524310873765329  0.35053351274153505  1.0000
  C   C5        1.0  0.4131207239108648  0.48817250334156626  0.7908933787206609  1.0000
  C   C6        1.0  0.5868738988808956  0.5118334748830975  0.2908915134642883  1.0000
  C   C7        1.0  0.5868746361603455  0.9881680776364234  0.7908916699427381  1.0000
  C   C8        1.0  0.41312898830813793  0.0118290206581122  0.29089322225777187  1.0000
  C   C9        1.0  0.4138717492191333  0.48939072067599915  0.7073769190337418  1.0000
  C   C10       1.0  0.5861216497390628  0.5106147874799946  0.20737505566094683  1.0000
  C   C11       1.0  0.5861223835658862  0.989386295649652  0.7073758300718185  1.0000
  C   C12       1.0  0.41387326583183176  0.0106090640124776  0.20737738607321185  1.0000
  C   C13       1.0  0.21967403780687536  0.39732275482025164  0.6471560215026602  1.0000
  C   C14       1.0  0.7803252299423207  0.6026833290923861  0.14715542226070263  1.0000
  C   C15       1.0  0.7803239745796802  0.8973168850857859  0.6471557864883621  1.0000
  C   C16       1.0  0.2196752931875139  0.1026765132182064  0.14715565728950253  1.0000
  O   O1        1.0  0.26107245928325545  0.41822347699788753  0.9267115832372144  1.0000
  O   O2        1.0  0.7389264041986721  0.5817748598716436  0.42671098208001024  1.0000
  O   O3        1.0  0.738931840754397  0.9182290618578222  0.9267112984954766  1.0000
  O   O4        1.0  0.2610760243772533  0.08177942349453819  0.4267112668155591  1.0000
  O   O5        1.0  0.012862248112021704  0.2903315826752646  0.8234339213534343  1.0000
  O   O6        1.0  0.9871373523752428  0.7096664730593502  0.3234333258352181  1.0000
  O   O7        1.0  0.9871364005611486  0.7903331367218698  0.8234339347050652  1.0000
  O   O8        1.0  0.012863199927061001  0.2096674561315126  0.32343393319937525  1.0000
  O   O9        1.0  0.014119130470888301  0.2923949779870298  0.6736743620558203  1.0000
  O   O10       1.0  0.9858827763057363  0.707605778136056  0.17367501118223325  1.0000
  O   O11       1.0  0.9858818186445149  0.7923939960449572  0.6736756153396402  1.0000
  O   O12       1.0  0.014117837716938203  0.2076029543995261  0.17367313718271762  1.0000
  O   O13       1.0  0.2636195693228274  0.4226245446031669  0.5711620500610338  1.0000
  O   O14       1.0  0.7363898369215249  0.5773733859457906  0.07116207663437282  1.0000
  O   O15       1.0  0.7363885097429517  0.9226225204094759  0.5711611415525796  1.0000
  O   O16       1.0  0.2636231469119323  0.07737287302267498  0.07116174370969473  1.0000
