data_image0
_chemical_formula_structural       Ho4H36C32S4O40
_chemical_formula_sum              "Ho4 H36 C32 S4 O40"
_cell_length_a       6.783754848933888
_cell_length_b       11.620788764489976
_cell_length_c       14.791845118976381
_cell_angle_alpha    89.99984745578378
_cell_angle_beta     90.00132935427459
_cell_angle_gamma    96.3614433855103

_space_group_name_H-M_alt    "P 1"
_space_group_IT_number       1

loop_
  _space_group_symop_operation_xyz
  'x, y, z'

loop_
  _atom_site_type_symbol
  _atom_site_label
  _atom_site_symmetry_multiplicity
  _atom_site_fract_x
  _atom_site_fract_y
  _atom_site_fract_z
  _atom_site_occupancy
  Ho  Ho1       1.0  0.6748838616631687  0.0985173111076705  0.5971960825137401  1.0000
  Ho  Ho2       1.0  0.8251390082664614  0.4014766776080522  0.09720009717038643  1.0000
  Ho  Ho3       1.0  0.3251266260310572  0.9014734313076717  0.40279698515228557  1.0000
  Ho  Ho4       1.0  0.1748664930125727  0.59853315084996  0.9028044632661649  1.0000
  H   H1        1.0  0.9355791383555357  0.0857524382199983  0.4241521483959617  1.0000
  H   H2        1.0  0.5644169878655418  0.4142469868161882  0.9241570435338817  1.0000
  H   H3        1.0  0.06442615797530492  0.9142417926460099  0.5758429473827464  1.0000
  H   H4        1.0  0.43559075917003304  0.5857593657461564  0.07585157320779251  1.0000
  H   H5        1.0  0.808182526480131  0.19364748319912908  0.4298017517218682  1.0000
  H   H6        1.0  0.6918265410495721  0.30635622171119087  0.9298021772487675  1.0000
  H   H7        1.0  0.19182294487683996  0.8063476135022613  0.5701933440567828  1.0000
  H   H8        1.0  0.3081775600204324  0.6936466800638286  0.0702023831881746  1.0000
  H   H9        1.0  0.35189693861205035  0.9363146754179612  0.6461014214979457  1.0000
  H   H10       1.0  0.14810600150698863  0.563687435523491  0.1461090375906409  1.0000
  H   H11       1.0  0.6481028890077027  0.06367437926783741  0.3538970544982051  1.0000
  H   H12       1.0  0.8518927330718215  0.4363180888665  0.8538934946699401  1.0000
  H   H13       1.0  0.5157412771385593  0.9059767217330404  0.7194197614973348  1.0000
  H   H14       1.0  0.9842621162044196  0.5940288371287465  0.2194255111439105  1.0000
  H   H15       1.0  0.48426124856072056  0.0940183875231781  0.2805793905545784  1.0000
  H   H16       1.0  0.015739564133760094  0.4059766747067428  0.7805770211325014  1.0000
  H   H17       1.0  0.7096959562142473  0.14667309406684134  0.8056455307456291  1.0000
  H   H18       1.0  0.7903186697528782  0.35333054050375534  0.3056533375475042  1.0000
  H   H19       1.0  0.29030334608986413  0.8533133631120723  0.19434348057610856  1.0000
  H   H20       1.0  0.20967574844065237  0.6466828015132862  0.6943451383918742  1.0000
  H   H21       1.0  0.888690405517572  0.20139049682708082  0.7447256999243663  1.0000
  H   H22       1.0  0.611317447685309  0.29861661004363077  0.24473711707022971  1.0000
  H   H23       1.0  0.11131106980462849  0.7985994174161846  0.2552646635014639  1.0000
  H   H24       1.0  0.3886683083748751  0.7013976354726811  0.7552660911588731  1.0000
  H   H25       1.0  0.7133309845230117  0.47417245042589695  0.6586614850955854  1.0000
  H   H26       1.0  0.7866821634630485  0.0258311352129681  0.1586612115010908  1.0000
  H   H27       1.0  0.28669580728794847  0.5258260217355615  0.3413349628901018  1.0000
  H   H28       1.0  0.21331916697539557  0.9741726449522619  0.8413474052090564  1.0000
  H   H29       1.0  0.7050072208845395  0.6864934876308197  0.6787864764786137  1.0000
  H   H30       1.0  0.7949821769593372  0.8135112490273784  0.1787836076038261  1.0000
  H   H31       1.0  0.295012206528  0.31350501591689556  0.32120997146748215  1.0000
  H   H32       1.0  0.2050031268287  0.18649346602300199  0.821225009019166  1.0000
  H   H33       1.0  0.8026784257808187  0.5274173927234288  0.3730335755201396  1.0000
  H   H34       1.0  0.6973272728180859  0.9725760818931877  0.87302692038336  1.0000
  H   H35       1.0  0.19732999142025417  0.47257769142372297  0.6269649005152615  1.0000
  H   H36       1.0  0.3026704117395412  0.027424247485001305  0.12698102026296  1.0000
  C   C1        1.0  0.7599685097891538  0.35924782279272444  0.5004976903512102  1.0000
  C   C2        1.0  0.7400253478636574  0.14075058614000824  0.0004892168887167  1.0000
  C   C3        1.0  0.2400400822855175  0.6407481271893118  0.49949470125050516  1.0000
  C   C4        1.0  0.259973984464196  0.859250602795861  0.9995133153800142  1.0000
  C   C5        1.0  0.7515531488508459  0.48620319030094084  0.5142584610507797  1.0000
  C   C6        1.0  0.7484537071353116  0.0137977681510932  0.0142618605631313  1.0000
  C   C7        1.0  0.24846056208603073  0.5137962041912162  0.4857386629117714  1.0000
  C   C8        1.0  0.2515437297085726  0.9862086283519034  0.9857454040267513  1.0000
  C   C9        1.0  0.7261857885019724  0.5319151611698061  0.600380050544203  1.0000
  C   C10       1.0  0.7737950846045791  0.9680887157771564  0.1003759253483096  1.0000
  C   C11       1.0  0.27381943527683456  0.46808600265683253  0.3996197775634798  1.0000
  C   C12       1.0  0.22619923133517267  0.031916827444590005  0.8996266068885107  1.0000
  C   C13       1.0  0.7204942224105793  0.6506792586749698  0.6117841412570755  1.0000
  C   C14       1.0  0.7794994284147663  0.8493193686133936  0.1117877848033473  1.0000
  C   C15       1.0  0.27952190917338277  0.3493175257564546  0.3882116306250936  1.0000
  C   C16       1.0  0.22050060415317324  0.1506852836644086  0.888220155850654  1.0000
  C   C17       1.0  0.7359156489759899  0.7256785270756442  0.5376169206238046  1.0000
  C   C18       1.0  0.7640646732276082  0.7743235954743002  0.0376178653696329  1.0000
  C   C19       1.0  0.26408375587000416  0.274315728899488  0.4623795272195892  1.0000
  C   C20       1.0  0.2359143889894356  0.22567941301434058  0.9623907512217897  1.0000
  C   C21       1.0  0.7665856017939844  0.6786761487285561  0.4518049911516115  1.0000
  C   C22       1.0  0.7334070718641357  0.8213208773238139  0.9518051532449904  1.0000
  C   C23       1.0  0.23342091966890874  0.32132414298490636  0.5481880764822125  1.0000
  C   C24       1.0  0.2665754612415014  0.17868471611660658  0.0482054915066712  1.0000
  C   C25       1.0  0.7750317822127004  0.5608864808080299  0.43993579297359287  1.0000
  C   C26       1.0  0.7249599461998602  0.939108811649568  0.9399315392691321  1.0000
  C   C27       1.0  0.22495289388728418  0.4391078379397939  0.5600626829351685  1.0000
  C   C28       1.0  0.2750330721066518  0.0608976036855182  0.06007978158608301  1.0000
  C   C29       1.0  0.7131218685397089  0.8518996519071609  0.549865295147626  1.0000
  C   C30       1.0  0.786876217299188  0.6480997997949629  0.0498688010106676  1.0000
  C   C31       1.0  0.28686480560307365  0.14809725806980373  0.4501365610098134  1.0000
  C   C32       1.0  0.21312504031607196  0.3519109133300161  0.9501337312575445  1.0000
  S   S1        1.0  0.8112245527349132  0.7731408288957624  0.3586598806812447  1.0000
  S   S2        1.0  0.6887562616899956  0.7268570792824107  0.8586651871089259  1.0000
  S   S3        1.0  0.1887598755665962  0.22685955697660634  0.6413345389301668  1.0000
  S   S4        1.0  0.31124237071977495  0.2731406463125623  0.14134478169000184  1.0000
  O   O1        1.0  0.8018831251600604  0.1059087102223941  0.4415393665225054  1.0000
  O   O2        1.0  0.6981217622452008  0.39409328375154457  0.9415430397392512  1.0000
  O   O3        1.0  0.1981213983786603  0.8940889902623113  0.5584550531999001  1.0000
  O   O4        1.0  0.3018920511318726  0.6059139095365041  0.05845746445587  1.0000
  O   O5        1.0  0.4632484897446005  0.9692364255560479  0.6862362584076538  1.0000
  O   O6        1.0  0.03675386674947843  0.5307674361149354  0.18623802108013626  1.0000
  O   O7        1.0  0.5367564565678791  0.030756073639324203  0.3137601894675086  1.0000
  O   O8        1.0  0.9632448678462779  0.46923808827511243  0.8137651872286186  1.0000
  O   O9        1.0  0.7662070002913381  0.14665668311184282  0.7438523262757004  1.0000
  O   O10       1.0  0.7338182061923532  0.3533416836589539  0.2438595260307679  1.0000
  O   O11       1.0  0.2338108220995637  0.853319296161317  0.2561400653983767  1.0000
  O   O12       1.0  0.26616158562757875  0.6466795199264512  0.7561416540138026  1.0000
  O   O13       1.0  0.7292209020707932  0.29251433077099165  0.5686561029916533  1.0000
  O   O14       1.0  0.7707813167631627  0.20748666788342973  0.06865659623257872  1.0000
  O   O15       1.0  0.27077460916368784  0.7074825415418573  0.4313383166832949  1.0000
  O   O16       1.0  0.2292236593019013  0.7925205630680239  0.9313425558186595  1.0000
  O   O17       1.0  0.7985793474069568  0.32372846822873674  0.42147534232220357  1.0000
  O   O18       1.0  0.7014300751949206  0.17627176571255634  0.92146602711329  1.0000
  O   O19       1.0  0.20141616375973112  0.676268404083885  0.5785163731600138  1.0000
  O   O20       1.0  0.29856736158117053  0.8237346307902199  0.07853853328386153  1.0000
  O   O21       1.0  0.6213099287962222  0.8116551725570816  0.3329973797662689  1.0000
  O   O22       1.0  0.878688046430767  0.6883391865164654  0.8330068424822628  1.0000
  O   O23       1.0  0.3786796183505317  0.18834865782535104  0.6670010961577973  1.0000
  O   O24       1.0  0.1213102359267424  0.31165680740776486  0.16700312631675732  1.0000
  O   O25       1.0  0.9576634619123895  0.867909133166158  0.3917815116542229  1.0000
  O   O26       1.0  0.5423239569751956  0.6320913590549183  0.8917922217124001  1.0000
  O   O27       1.0  0.04233422200123021  0.1320911962099416  0.6082007391611769  1.0000
  O   O28       1.0  0.4576666107113141  0.36790293458411594  0.10820895842076081  1.0000
  O   O29       1.0  0.8968798111185378  0.7073055434283547  0.2859608985739186  1.0000
  O   O30       1.0  0.6031029725454717  0.792683663227287  0.7859658106923677  1.0000
  O   O31       1.0  0.10310441259067459  0.2926792448531614  0.7140382533914647  1.0000
  O   O32       1.0  0.39690267410878033  0.20731229931035244  0.214040101857158  1.0000
  O   O33       1.0  0.5752864078376163  0.8954062565408164  0.5077365627000177  1.0000
  O   O34       1.0  0.924743471626613  0.6046077757121467  0.007736240308077001  1.0000
  O   O35       1.0  0.4247182906424882  0.1045923097789867  0.492254476781433  1.0000
  O   O36       1.0  0.07526188436193593  0.39541591866652237  0.9922703482564261  1.0000
  O   O37       1.0  0.8235056382887151  0.9150432197651597  0.6040781197204197  1.0000
  O   O38       1.0  0.6764839799496303  0.5849519554860834  0.10406706285791502  1.0000
  O   O39       1.0  0.17650277887846502  0.08495186438188541  0.39591900421861953  1.0000
  O   O40       1.0  0.32351454976571864  0.41503797131218095  0.8959293849857134  1.0000
