data_image0
_chemical_formula_structural       Cu4H24C16Br4N4O4
_chemical_formula_sum              "Cu4 H24 C16 Br4 N4 O4"
_cell_length_a       6.287621151921698
_cell_length_b       8.52522539697177
_cell_length_c       13.070670114797204
_cell_angle_alpha    81.66458272567712
_cell_angle_beta     76.12734594491602
_cell_angle_gamma    68.360535875641

_space_group_name_H-M_alt    "P 1"
_space_group_IT_number       1

loop_
  _space_group_symop_operation_xyz
  'x, y, z'

loop_
  _atom_site_type_symbol
  _atom_site_label
  _atom_site_symmetry_multiplicity
  _atom_site_fract_x
  _atom_site_fract_y
  _atom_site_fract_z
  _atom_site_occupancy
  Cu  Cu1       1.0  0.379185654073971  0.8334144641736642  0.8238667398281478  1.0000
  Cu  Cu2       1.0  0.03642027248626064  0.6665369626592721  0.6760641899516598  1.0000
  Cu  Cu3       1.0  0.6208511716358553  0.1665710794405157  0.1761316350621058  1.0000
  Cu  Cu4       1.0  0.963591603634718  0.3334702235059979  0.32393613279050015  1.0000
  H   H1        1.0  0.13155619586383668  0.15761534813050557  0.9339600359229507  1.0000
  H   H2        1.0  0.22274940804194882  0.3424509482041245  0.5660920664753917  1.0000
  H   H3        1.0  0.8684578621906383  0.8423855564321554  0.06604141617177821  1.0000
  H   H4        1.0  0.7772200167574536  0.6575474218238923  0.4339093836010477  1.0000
  H   H5        1.0  0.935889787743463  0.13528568333078536  0.8639658772051035  1.0000
  H   H6        1.0  0.9347442394460541  0.36510850677929335  0.6360196554942945  1.0000
  H   H7        1.0  0.0641160270060369  0.8647108225860337  0.1360492049260387  1.0000
  H   H8        1.0  0.06523350887485417  0.6348941075855448  0.3639907749387916  1.0000
  H   H9        1.0  0.6186007042840345  0.0803217623532433  0.7085529340456063  1.0000
  H   H10       1.0  0.40782885626602206  0.4196823087937601  0.7914501059058948  1.0000
  H   H11       1.0  0.381401065316339  0.919676010732161  0.2914363970716352  1.0000
  H   H12       1.0  0.5921690887383587  0.5803195845575289  0.20854568296422826  1.0000
  H   H13       1.0  0.5254183633009148  0.1279817137978725  0.8428819148206372  1.0000
  H   H14       1.0  0.49622768007787943  0.37196130835689445  0.6571158667439789  1.0000
  H   H15       1.0  0.47459644591650335  0.8720187677299762  0.1571109445345158  1.0000
  H   H16       1.0  0.5037703664743416  0.628039189454853  0.3428773200456448  1.0000
  H   H17       1.0  0.81582229951438  0.4291799207670053  0.8179598465044081  1.0000
  H   H18       1.0  0.06199906430705242  0.0712626507937131  0.6822189520039784  1.0000
  H   H19       1.0  0.18418684352721465  0.5708212933644177  0.18204789272439106  1.0000
  H   H20       1.0  0.9379864248576836  0.9287334195131011  0.3177872777644808  1.0000
  H   H21       1.0  0.019394482602550105  0.4478314887349057  0.8848147656265724  1.0000
  H   H22       1.0  0.3509245483731004  0.052196212101563305  0.6152546374930382  1.0000
  H   H23       1.0  0.9806241397755497  0.5521630217442636  0.1151855315276364  1.0000
  H   H24       1.0  0.6490545463234765  0.9478047154092123  0.3847472737847752  1.0000
  C   C1        1.0  0.4797693105826961  0.7381855064426761  0.9429275127988888  1.0000
  C   C2        1.0  0.1601241558667539  0.7618975492731436  0.5569927644922288  1.0000
  C   C3        1.0  0.5202327524463966  0.2617546346585087  0.05707542923434517  1.0000
  C   C4        1.0  0.8398656561767831  0.2381093608763365  0.44300194729721915  1.0000
  C   C5        1.0  0.07655470268274894  0.18527476454401176  0.85772206360447  1.0000
  C   C6        1.0  0.11916800409836258  0.3149386152612266  0.6422997524305174  1.0000
  C   C7        1.0  0.9234542927652779  0.8147175739935832  0.14228560365690868  1.0000
  C   C8        1.0  0.8808133714405098  0.6850635953081934  0.35770247663470656  1.0000
  C   C9        1.0  0.4713887843412576  0.15427877943542256  0.7666212948539766  1.0000
  C   C10       1.0  0.3923509231602649  0.3457667603141843  0.7333936478467891  1.0000
  C   C11       1.0  0.5286076210877791  0.8457244998357111  0.23337690041077508  1.0000
  C   C12       1.0  0.6076403238321428  0.6542302738628152  0.26660641688913966  1.0000
  C   C13       1.0  0.9990437830153877  0.3769340973826658  0.8263719506341262  1.0000
  C   C14       1.0  0.20158896747970073  0.1232690618551402  0.6736935064135565  1.0000
  C   C15       1.0  0.0009669482863044344  0.6230670417614876  0.17363426573262325  1.0000
  C   C16       1.0  0.7984106600756459  0.8767254927818656  0.3263076839202981  1.0000
  Br  Br1       1.0  0.628846102503949  0.7074742381034653  0.6592749245769697  1.0000
  Br  Br2       1.0  0.9960314142565493  0.7922288462810981  0.8407176951979024  1.0000
  Br  Br3       1.0  0.371155404980392  0.2925092613487692  0.3407334108355968  1.0000
  Br  Br4       1.0  0.003956268935681376  0.20785207937463923  0.1592615132750765  1.0000
  N   N1        1.0  0.276436951307538  0.0899327373418046  0.7768631993829586  1.0000
  N   N2        1.0  0.143261766833781  0.41021143221983175  0.7231617797943528  1.0000
  N   N3        1.0  0.7235692224878889  0.9100618182803616  0.2231380122633055  1.0000
  N   N4        1.0  0.8567393002883955  0.5897880748329599  0.27683702759504303  1.0000
  O   O1        1.0  0.5285374778523034  0.66733612530075  0.021331633782573103  1.0000
  O   O2        1.0  0.21617339035482497  0.8326923136025144  0.4785512351647654  1.0000
  O   O3        1.0  0.4714764257912377  0.3326688812735767  0.9786759060057192  1.0000
  O   O4        1.0  0.7838219319142891  0.1673130231589681  0.5214372630749153  1.0000
