data_image0
_chemical_formula_structural       CdH24C28Br2N8
_chemical_formula_sum              "Cd1 H24 C28 Br2 N8"
_cell_length_a       8.440143177120458
_cell_length_b       8.206293418666911
_cell_length_c       12.603046467006344
_cell_angle_alpha    69.24991423013977
_cell_angle_beta     74.43254210868831
_cell_angle_gamma    63.48294235505592

_space_group_name_H-M_alt    "P 1"
_space_group_IT_number       1

loop_
  _space_group_symop_operation_xyz
  'x, y, z'

loop_
  _atom_site_type_symbol
  _atom_site_label
  _atom_site_symmetry_multiplicity
  _atom_site_fract_x
  _atom_site_fract_y
  _atom_site_fract_z
  _atom_site_occupancy
  Cd  Cd1       1.0  0.5000000679793644  0.9999967629519089  0.4999998436106949  1.0000
  H   H1        1.0  0.43464628955601353  0.35899549314493845  0.00714638893477117  1.0000
  H   H2        1.0  0.5653513407399088  0.6409969991507296  0.9928609213511308  1.0000
  H   H3        1.0  0.14317958061830888  0.28701649210982083  0.6128156997664648  1.0000
  H   H4        1.0  0.8568157489664189  0.712985854517008  0.3871914054993014  1.0000
  H   H5        1.0  0.8643964552206357  0.29007498564019574  0.746488300154617  1.0000
  H   H6        1.0  0.13560141046997384  0.7099203067732917  0.25351912523871784  1.0000
  H   H7        1.0  0.9674942103820428  0.7526816040496127  0.6996653159853281  1.0000
  H   H8        1.0  0.032503224050373085  0.24732500235001004  0.3003388372091464  1.0000
  H   H9        1.0  0.2510005499045532  0.7670175398926274  0.5725830503671149  1.0000
  H   H10       1.0  0.7489911761092786  0.23298773842537904  0.42742090273422667  1.0000
  H   H11       1.0  0.7228900011454796  0.8743236464601765  0.8237970134525272  1.0000
  H   H12       1.0  0.27709924254369867  0.12568463810824682  0.17620038256043102  1.0000
  H   H13       1.0  0.25515735579876514  0.4653788011651158  0.7530573440754794  1.0000
  H   H14       1.0  0.7448396893981765  0.5346321039629203  0.2469435293430493  1.0000
  H   H15       1.0  0.3637741840156679  0.5924018372260066  0.7736236065001095  1.0000
  H   H16       1.0  0.6362293318748088  0.40760478671876393  0.22637700411830516  1.0000
  H   H17       1.0  0.21052297054382757  0.5149650486618426  0.8872561984934393  1.0000
  H   H18       1.0  0.7894716644335062  0.4850458327304282  0.11274672640463024  1.0000
  H   H19       1.0  0.7741350344991533  0.9560236556826922  0.1599630042310095  1.0000
  H   H20       1.0  0.22587258176015007  0.0439676419166517  0.840031564406118  1.0000
  H   H21       1.0  0.5616457498995546  0.1453346153408148  0.17550225780161097  1.0000
  H   H22       1.0  0.438360994576385  0.8546524134564917  0.824495030228441  1.0000
  H   H23       1.0  0.7547199300307594  0.19403540847616088  0.10751752118303412  1.0000
  H   H24       1.0  0.24528174454309243  0.8059557670924204  0.8924845553371483  1.0000
  C   C1        1.0  0.10154114646576322  0.16915824482120456  0.6366129170813082  1.0000
  C   C2        1.0  0.8984559569498956  0.8308426568571647  0.3633949712052738  1.0000
  C   C3        1.0  0.9462227181312529  0.16962922407910244  0.7109861689988932  1.0000
  C   C4        1.0  0.05377237605879505  0.830370322429907  0.2890208211594399  1.0000
  C   C5        1.0  0.8992408246566298  0.01460234855496619  0.7384095487128307  1.0000
  C   C6        1.0  0.10075061005348121  0.9854001714394726  0.2615927031582785  1.0000
  C   C7        1.0  0.0057647749078811265  0.8703879185549042  0.6850710516215414  1.0000
  C   C8        1.0  0.994230955670844  0.12961309663832313  0.3149331040364344  1.0000
  C   C9        1.0  0.16084852281581863  0.8793124915614712  0.61328621198075  1.0000
  C   C10       1.0  0.8391497298005958  0.12068846377902533  0.38671906444326953  1.0000
  C   C11       1.0  0.7371454254423994  0.001121036073087101  0.8248048879758301  1.0000
  C   C12       1.0  0.2628501933182433  0.9988800627086365  0.17519609543655415  1.0000
  C   C13       1.0  0.5684099190114225  0.17417587741218202  0.7911683946732494  1.0000
  C   C14       1.0  0.431591324304236  0.8258266121425348  0.20883040964807256  1.0000
  C   C15       1.0  0.46899544155287737  0.3007479553238995  0.8545193989695578  1.0000
  C   C16       1.0  0.5310020746152873  0.6992545822156728  0.14547931032549155  1.0000
  C   C17       1.0  0.6580364905963806  0.11214793970312803  0.004572076084670566  1.0000
  C   C18       1.0  0.3419662632009945  0.8878503256824286  0.9954266030886316  1.0000
  C   C19       1.0  0.7622660680332627  0.9810553224102209  0.9448657682203319  1.0000
  C   C20       1.0  0.2377341916809499  0.018942981930955196  0.05513258324831579  1.0000
  C   C21       1.0  0.5213197969746233  0.20323199905239162  0.685442364010676  1.0000
  C   C22       1.0  0.4786736425236101  0.7967778315981346  0.3145475341598143  1.0000
  C   C23       1.0  0.31426884824984563  0.477906666610636  0.8157381971497061  1.0000
  C   C24       1.0  0.6857310243566985  0.5220999426276194  0.18426469762661674  1.0000
  C   C25       1.0  0.6878290796476703  0.0996734843384246  0.1184586204815403  1.0000
  C   C26       1.0  0.3121760984375045  0.9003178104222868  0.8815372065737394  1.0000
  C   C27       1.0  0.9051697143358126  0.8194326703329863  0.9943305887791782  1.0000
  C   C28       1.0  0.09482555490238552  0.1805756735748361  0.0056616785349205955  1.0000
  Br  Br1       1.0  0.33511072478984977  0.30924442773716987  0.32679251828025707  1.0000
  Br  Br2       1.0  0.6649411236887205  0.6907456313182151  0.6731748630996465  1.0000
  N   N1        1.0  0.2102297256392944  0.023779197112339993  0.5914602049826527  1.0000
  N   N2        1.0  0.7897631378167842  0.9762231675729822  0.4085473656398691  1.0000
  N   N3        1.0  0.5166163659865786  0.2701006377986984  0.9580005396033898  1.0000
  N   N4        1.0  0.4833837981055565  0.7298947619390361  0.042001662064812734  1.0000
  N   N5        1.0  0.49312541799555  0.21333046890476476  0.5967584575982059  1.0000
  N   N6        1.0  0.5068744686791858  0.7866691459728871  0.4032436365396421  1.0000
  N   N7        1.0  0.02564411337752396  0.6829643012758807  0.03172648238395945  1.0000
  N   N8        1.0  0.9743585426699608  0.3170270533375685  0.9682682239052696  1.0000
