data_image0
_chemical_formula_structural       Cu2H18C14N14
_chemical_formula_sum              "Cu2 H18 C14 N14"
_cell_length_a       5.79257482085227
_cell_length_b       9.831942323603135
_cell_length_c       9.337562087162798
_cell_angle_alpha    80.25724259583933
_cell_angle_beta     78.30485493441749
_cell_angle_gamma    86.02428656862014

_space_group_name_H-M_alt    "P 1"
_space_group_IT_number       1

loop_
  _space_group_symop_operation_xyz
  'x, y, z'

loop_
  _atom_site_type_symbol
  _atom_site_label
  _atom_site_symmetry_multiplicity
  _atom_site_fract_x
  _atom_site_fract_y
  _atom_site_fract_z
  _atom_site_occupancy
  Cu  Cu1       1.0  0.21676761415754703  0.5285538276880145  0.07001986003500353  1.0000
  Cu  Cu2       1.0  0.783213199659606  0.47146363840909783  0.9299709441221894  1.0000
  H   H1        1.0  0.8870462474668982  0.7793363569421456  0.5011336143798389  1.0000
  H   H2        1.0  0.11300507167175063  0.22062834555362792  0.4988812099306088  1.0000
  H   H3        1.0  0.20698697660814958  0.9502903736525852  0.4439947898327505  1.0000
  H   H4        1.0  0.7930568498846781  0.04967976544332939  0.5560384583118607  1.0000
  H   H5        1.0  0.5206659009934498  0.7533844734222298  0.0691486305918687  1.0000
  H   H6        1.0  0.47933977992358473  0.24663119080133805  0.930840311319372  1.0000
  H   H7        1.0  0.7089459433776496  0.5908806293091826  0.43957130427355656  1.0000
  H   H8        1.0  0.29109063539495145  0.4091620706053261  0.5604152856684409  1.0000
  H   H9        1.0  0.9225348918878139  0.4654198869490571  0.3729607033242531  1.0000
  H   H10       1.0  0.07744301084160547  0.5345919065109684  0.6270441220124142  1.0000
  H   H11       1.0  0.7719477712724016  0.5745045933937973  0.24817434411447437  1.0000
  H   H12       1.0  0.22802984012847816  0.4254918603621291  0.7518283617022095  1.0000
  H   H13       1.0  0.7082317302071742  0.9527750047498671  0.10817391347017487  1.0000
  H   H14       1.0  0.2917821352947739  0.04724883470921529  0.8918460687162979  1.0000
  H   H15       1.0  0.6803492508051078  0.9680543625516831  0.29776940435463933  1.0000
  H   H16       1.0  0.3196640221051439  0.03195723226320269  0.7022480671060337  1.0000
  H   H17       1.0  0.5047255861693571  0.07567500045406919  0.187768871262577  1.0000
  H   H18       1.0  0.49528643672573475  0.9243313751743756  0.812250556725701  1.0000
  C   C1        1.0  0.03693328262355068  0.6750802640424567  0.3177528720732  1.0000
  C   C2        1.0  0.963106911307001  0.3249252951532142  0.6822384123385918  1.0000
  C   C3        1.0  0.03275468993571452  0.7763513759572546  0.4070896455946667  1.0000
  C   C4        1.0  0.9672916641701973  0.22362848398281435  0.5929312117895054  1.0000
  C   C5        1.0  0.2095319959744018  0.8716217795011613  0.37400227845141404  1.0000
  C   C6        1.0  0.7905207467071591  0.1283461966169952  0.6260076220951165  1.0000
  C   C7        1.0  0.3916367570200591  0.8677495447967795  0.25043027127023276  1.0000
  C   C8        1.0  0.6083927412869768  0.1322582344325838  0.7495824372173632  1.0000
  C   C9        1.0  0.38561894136446273  0.7636076630551684  0.16709538611093686  1.0000
  C   C10       1.0  0.6144017422485532  0.23639884858722127  0.83289397739501  1.0000
  C   C11       1.0  0.8496423859579493  0.5709671578687575  0.3468916040113257  1.0000
  C   C12       1.0  0.150353238817857  0.42904317975069967  0.6531004369500979  1.0000
  C   C13       1.0  0.5820338104914242  0.9706598148650014  0.20833703865132247  1.0000
  C   C14       1.0  0.41798101452697983  0.029335508582157385  0.7916760631599901  1.0000
  N   N1        1.0  0.47928104289766793  0.4062371517082041  0.12989033827781785  1.0000
  N   N2        1.0  0.5206542623859534  0.5937761395771018  0.8700929404304178  1.0000
  N   N3        1.0  0.4894684495116124  0.347122072641305  0.2531369304363764  1.0000
  N   N4        1.0  0.5104762567108736  0.6528489839425828  0.7468510092377942  1.0000
  N   N5        1.0  0.507981027920529  0.2876628964239671  0.3697558677956253  1.0000
  N   N6        1.0  0.4919786550502393  0.7122795304546372  0.6302030496146644  1.0000
  N   N7        1.0  0.9682569585763616  0.6291945384612132  0.9622422689383825  1.0000
  N   N8        1.0  0.031678710898667396  0.3708171820345854  0.03778405030568881  1.0000
  N   N9        1.0  0.9504698078435324  0.7516441235000143  0.9149638392008088  1.0000
  N   N10       1.0  0.0494941783189375  0.2483827485829124  0.0850192397724285  1.0000
  N   N11       1.0  0.9296206183553578  0.868491163185645  0.8700043607434581  1.0000
  N   N12       1.0  0.07034275837250449  0.13150394785925099  0.129947839658783  1.0000
  N   N13       1.0  0.21519908131335086  0.6704310010299392  0.199782081125484  1.0000
  N   N14       1.0  0.7848246499591697  0.32958059420347036  0.8002094014019221  1.0000
