data_image0
_chemical_formula_structural       Ni2H28C24O16
_chemical_formula_sum              "Ni2 H28 C24 O16"
_cell_length_a       6.24166350074769
_cell_length_b       9.649239474522403
_cell_length_c       10.920429806262485
_cell_angle_alpha    72.65040113202646
_cell_angle_beta     80.37700498744032
_cell_angle_gamma    82.16461907102524

_space_group_name_H-M_alt    "P 1"
_space_group_IT_number       1

loop_
  _space_group_symop_operation_xyz
  'x, y, z'

loop_
  _atom_site_type_symbol
  _atom_site_label
  _atom_site_symmetry_multiplicity
  _atom_site_fract_x
  _atom_site_fract_y
  _atom_site_fract_z
  _atom_site_occupancy
  Ni  Ni1       1.0  0.9668527374984849  0.25761182322796117  0.47958792764092084  1.0000
  Ni  Ni2       1.0  0.0331467092162967  0.7423794054135866  0.520416319848401  1.0000
  H   H1        1.0  0.11165491316724999  0.6511616673242032  0.14936121914723083  1.0000
  H   H2        1.0  0.8883116789788589  0.34886088599037623  0.8506273903179817  1.0000
  H   H3        1.0  0.7643939570241189  0.44057918797158646  0.17250285519581607  1.0000
  H   H4        1.0  0.23556842470220832  0.5594326791037433  0.8274918285625216  1.0000
  H   H5        1.0  0.9060731588700862  0.6402831786556432  0.9874530032640716  1.0000
  H   H6        1.0  0.093880065767415  0.3596932574374918  0.012560508191100389  1.0000
  H   H7        1.0  0.8391733684491955  0.8771389832559818  0.8191423165307156  1.0000
  H   H8        1.0  0.16085332504528083  0.12285794500453312  0.18086150318638514  1.0000
  H   H9        1.0  0.1857889354422966  0.08937829283013338  0.8068688067241748  1.0000
  H   H10       1.0  0.8142379199001015  0.9106384583371605  0.19314603511782735  1.0000
  H   H11       1.0  0.04545540608867069  0.8846491452935011  0.9874781900138812  1.0000
  H   H12       1.0  0.9545466539546796  0.1153767728874229  0.012516282231302973  1.0000
  H   H13       1.0  0.3359030770888084  0.17270307785335595  0.4254526273787674  1.0000
  H   H14       1.0  0.6640769968249245  0.8272845636348903  0.5745626433497291  1.0000
  H   H15       1.0  0.20739954360433896  0.03861160206532329  0.43192107910761723  1.0000
  H   H16       1.0  0.7926103625288121  0.9614184392035199  0.5680733646701978  1.0000
  H   H17       1.0  0.75314550222123  0.4987637611635662  0.47917161364416916  1.0000
  H   H18       1.0  0.24681009099930407  0.5012506770626359  0.5208339823538423  1.0000
  H   H19       1.0  0.6091063235736982  0.35913601064521566  0.5560051051248392  1.0000
  H   H20       1.0  0.39084248946209504  0.6408859111873753  0.4439779987814417  1.0000
  H   H21       1.0  0.712119609897151  0.23802890354509293  0.32342743110267946  1.0000
  H   H22       1.0  0.28786374547035365  0.7619586022056595  0.6765857412331965  1.0000
  H   H23       1.0  0.8349117744695463  0.08200771569855898  0.37139952625617667  1.0000
  H   H24       1.0  0.1650633930103425  0.9180060754495468  0.6286035179795988  1.0000
  H   H25       1.0  0.2239409535747825  0.2908790571414883  0.6510169673790499  1.0000
  H   H26       1.0  0.7760669656599078  0.7091104541181465  0.3489649874103689  1.0000
  H   H27       1.0  0.003806978572939103  0.4074152222582938  0.6523233767289509  1.0000
  H   H28       1.0  0.9962168621884973  0.5925762903235281  0.3476776165370125  1.0000
  C   C1        1.0  0.28620441426008364  0.6498988494895668  0.11592317958778149  1.0000
  C   C2        1.0  0.7137832243675107  0.3500992360069972  0.8840775302591052  1.0000
  C   C3        1.0  0.42654889224701986  0.5336862555397274  0.17345144453809516  1.0000
  C   C4        1.0  0.5734875361381029  0.46631338032847225  0.8265360759958039  1.0000
  C   C5        1.0  0.653339761691832  0.5314891442757244  0.12706161038366298  1.0000
  C   C6        1.0  0.34667707127398734  0.46848815530360355  0.872924705994684  1.0000
  C   C7        1.0  0.7327068293783514  0.6434052294354587  0.024822429988645894  1.0000
  C   C8        1.0  0.2672940649981257  0.3565661540706272  0.9751724839776867  1.0000
  C   C9        1.0  0.6667691271999274  0.8801285318681309  0.8587133929074894  1.0000
  C   C10       1.0  0.33321866418559415  0.11986736044597986  0.1412869896808289  1.0000
  C   C11       1.0  0.5235148256510485  0.9965700368840866  0.8041457064751324  1.0000
  C   C12       1.0  0.4764944416335766  0.003441863783152106  0.1958730138842952  1.0000
  C   C13       1.0  0.2972913912166106  0.9984419316614888  0.8518828675157264  1.0000
  C   C14       1.0  0.7027234421618972  0.0015619295207897903  0.14812197755598785  1.0000
  C   C15       1.0  0.21937474366420429  0.8849720296158025  0.952022546114193  1.0000
  C   C16       1.0  0.7806278874520629  0.11504615917983327  0.0479675866280687  1.0000
  C   C17       1.0  0.3630832174592413  0.7662892990380356  0.011847900913586768  1.0000
  C   C18       1.0  0.6369243080209016  0.2337017728199839  0.9881620517870854  1.0000
  C   C19       1.0  0.5915749236360243  0.7637432009996346  0.9644225042968768  1.0000
  C   C20       1.0  0.4084388780346799  0.2362279590368317  0.035583180686558094  1.0000
  C   C21       1.0  0.3348204460729747  0.4109014403171756  0.2807515342251249  1.0000
  C   C22       1.0  0.665166442499121  0.5891095608604786  0.7192365375826382  1.0000
  C   C23       1.0  0.6056014969132875  0.12139204042266978  0.6957084088951433  1.0000
  C   C24       1.0  0.394444021133495  0.8786401702345117  0.304285802137201  1.0000
  O   O1        1.0  0.133561937802078  0.427707956511199  0.32804233176668157  1.0000
  O   O2        1.0  0.8664211878698396  0.5722627802995389  0.6719461640413156  1.0000
  O   O3        1.0  0.45669849499564213  0.2940788984555595  0.31994739468858296  1.0000
  O   O4        1.0  0.5432920762826255  0.7059225160307037  0.680062202546736  1.0000
  O   O5        1.0  0.4866703249778936  0.2417638773929056  0.6711013062702446  1.0000
  O   O6        1.0  0.5133435586230918  0.7582291922393264  0.32890933990078947  1.0000
  O   O7        1.0  0.7953022122023512  0.1006749257106705  0.632892576525556  1.0000
  O   O8        1.0  0.20471778407706148  0.8992774267021347  0.3671094606696242  1.0000
  O   O9        1.0  0.2251861978523166  0.10419261506680039  0.48464394520052406  1.0000
  O   O10       1.0  0.7747981472515306  0.8958046388894939  0.5153664565046724  1.0000
  O   O11       1.0  0.7091213481536657  0.4060509140290947  0.4750467126346718  1.0000
  O   O12       1.0  0.29093030380355606  0.5939346388219915  0.5249762368212669  1.0000
  O   O13       1.0  0.8600431073215875  0.18586757774823326  0.3397138523528012  1.0000
  O   O14       1.0  0.13996955379543152  0.8141489475035397  0.6602602392885257  1.0000
  O   O15       1.0  0.09469204643857408  0.3398737417020711  0.6067109300338911  1.0000
  O   O16       1.0  0.9053144059871202  0.6601366276108322  0.39327550261105404  1.0000
