data_image0
_chemical_formula_structural       Zn2H48C52S4N4Cl4O16
_chemical_formula_sum              "Zn2 H48 C52 S4 N4 Cl4 O16"
_cell_length_a       11.421801787736907
_cell_length_b       11.319131917537227
_cell_length_c       14.032842897024507
_cell_angle_alpha    78.20195896713153
_cell_angle_beta     66.1028914348615
_cell_angle_gamma    59.69271938033531

_space_group_name_H-M_alt    "P 1"
_space_group_IT_number       1

loop_
  _space_group_symop_operation_xyz
  'x, y, z'

loop_
  _atom_site_type_symbol
  _atom_site_label
  _atom_site_symmetry_multiplicity
  _atom_site_fract_x
  _atom_site_fract_y
  _atom_site_fract_z
  _atom_site_occupancy
  Zn  Zn1       1.0  0.7996071348780801  0.9999454352585031  8.341545125631911e-06  1.0000
  Zn  Zn2       1.0  0.549572604949269  0.5000850332617331  0.5000510575428193  1.0000
  H   H1        1.0  0.6033054874097203  0.12059350532589255  0.5555067414487667  1.0000
  H   H2        1.0  0.27879435534743613  0.8800510650310756  0.444614500913822  1.0000
  H   H3        1.0  0.9087110261643618  0.6200917330015373  0.9448148610804594  1.0000
  H   H4        1.0  0.4737449542671114  0.37944979708326093  0.05585824203968309  1.0000
  H   H5        1.0  0.4207420009326198  0.27853483851433936  0.7008996288532927  1.0000
  H   H6        1.0  0.39964214907514156  0.7222624056562381  0.2989405722703681  1.0000
  H   H7        1.0  0.8717476703548069  0.7779762909242364  0.7991878168365146  1.0000
  H   H8        1.0  0.4491209622499924  0.22157975507861494  0.2013011686311756  1.0000
  H   H9        1.0  0.10986487898854598  0.15400059864772686  0.719446236400877  1.0000
  H   H10       1.0  0.9831686191746912  0.8455252631456247  0.28007610359884444  1.0000
  H   H11       1.0  0.5788779151428681  0.6544552607616579  0.7800634405607524  1.0000
  H   H12       1.0  0.0139740471182179  0.34551460198888145  0.2194519410542739  1.0000
  H   H13       1.0  0.2941486380335618  0.0009898556776946  0.5655603268135607  1.0000
  H   H14       1.0  0.8605643048611571  0.9985245580733491  0.43407768615632136  1.0000
  H   H15       1.0  0.6092608614398356  0.5015069189132361  0.9340515201561176  1.0000
  H   H16       1.0  0.0453316325916616  0.49839828584552504  0.06550497438033889  1.0000
  H   H17       1.0  0.4901331529828923  0.12765814540208706  0.34575854916826637  1.0000
  H   H18       1.0  0.9640388885980541  0.8719224730296201  0.6539709052087871  1.0000
  H   H19       1.0  0.5859794845842072  0.6279963928877237  0.15400797450286063  1.0000
  H   H20       1.0  0.3679556353045827  0.372091669052132  0.8457859544692566  1.0000
  H   H21       1.0  0.6363263814922462  0.12449596496329457  0.36686077001699163  1.0000
  H   H22       1.0  0.12768109327328847  0.8756042165688668  0.6333823765668073  1.0000
  H   H23       1.0  0.7532949968888332  0.6243115236025288  0.13341759406070244  1.0000
  H   H24       1.0  0.5108320271167203  0.37553191473226377  0.8669358954527553  1.0000
  H   H25       1.0  0.6427721425776269  0.07154141476742382  0.84815234464714  1.0000
  H   H26       1.0  0.562987604231445  0.9284401411630082  0.15189048163117747  1.0000
  H   H27       1.0  0.24128946711015675  0.5718018800298595  0.6519522189062598  1.0000
  H   H28       1.0  0.4642122946477728  0.4287659114156382  0.3481856105534434  1.0000
  H   H29       1.0  0.42969512354163436  0.07005146477015238  0.8401585752701449  1.0000
  H   H30       1.0  0.34038681398109105  0.9302703673152163  0.15977231978711606  1.0000
  H   H31       1.0  0.020508463273699738  0.5699788719191899  0.6598391674453695  1.0000
  H   H32       1.0  0.24964840727975707  0.43011156770803183  0.34025764306972656  1.0000
  H   H33       1.0  0.08665558672112182  0.12336685583678528  0.1401104139795848  1.0000
  H   H34       1.0  0.34950353028759235  0.8768225891692578  0.859927215834773  1.0000
  H   H35       1.0  0.9763500323780362  0.6232294822126718  0.35990437055496477  1.0000
  H   H36       1.0  0.9602368234303003  0.37663385603075733  0.6400879283005168  1.0000
  H   H37       1.0  0.8735733257412122  0.12236525837919739  0.13185185097991334  1.0000
  H   H38       1.0  0.12743760117545094  0.8774381200917463  0.8682019661943556  1.0000
  H   H39       1.0  0.754974896972044  0.622398047174684  0.3681926496013546  1.0000
  H   H40       1.0  0.7462417803695091  0.3774617155918277  0.6318175597859153  1.0000
  H   H41       1.0  0.7238430817660201  0.26434209316930424  0.990896445059363  1.0000
  H   H42       1.0  0.9794808703024598  0.7354954681163264  0.00909287826920033  1.0000
  H   H43       1.0  0.4650995409153965  0.7644269267698008  0.5091587317335993  1.0000
  H   H44       1.0  0.7382716950780617  0.23565097611625418  0.4909918196954735  1.0000
  H   H45       1.0  0.7983780234882898  0.19537531926431484  0.8759277962965866  1.0000
  H   H46       1.0  0.8699169029380159  0.8043429002666967  0.12407450582815478  1.0000
  H   H47       1.0  0.4242526594492732  0.6956773861435578  0.624176034209256  1.0000
  H   H48       1.0  0.7437445230026042  0.30460660099330283  0.37599981201359595  1.0000
  C   C1        1.0  0.45809885797332583  0.052319365521398695  0.5516015279060582  1.0000
  C   C2        1.0  0.06170015074297198  0.9477701491528094  0.44825054423719024  1.0000
  C   C3        1.0  0.7594830889850496  0.5522870757751406  0.9483596403530327  1.0000
  C   C4        1.0  0.2604551235354932  0.44740447223913554  0.051750229835981494  1.0000
  C   C5        1.0  0.4956181652344184  0.12774020505973746  0.5900981379493048  1.0000
  C   C6        1.0  0.2129677644550583  0.8727107322688852  0.40982872753892247  1.0000
  C   C7        1.0  0.8355820510771254  0.6274339227752462  0.9099952114941698  1.0000
  C   C8        1.0  0.37324470522695913  0.37221687873515913  0.0903948391561116  1.0000
  C   C9        1.0  0.39308583252548607  0.21524659989373157  0.6742074042847932  1.0000
  C   C10       1.0  0.28207295611914407  0.785284431835734  0.32561251752595405  1.0000
  C   C11       1.0  0.8172715215683938  0.7148870304614903  0.8257830425443586  1.0000
  C   C12       1.0  0.35822982888645066  0.2847405051336906  0.17453152211116668  1.0000
  C   C13       1.0  0.25590480857805187  0.2223649236188834  0.7203447058612582  1.0000
  C   C14       1.0  0.19828225109265651  0.7778519478798104  0.2793070210356703  1.0000
  C   C15       1.0  0.7262010238298086  0.7222434936103213  0.7793652355508341  1.0000
  C   C16       1.0  0.228222932333601  0.27750376978252683  0.2206232997839592  1.0000
  C   C17       1.0  0.2177132867741277  0.146772156420738  0.6828277511308513  1.0000
  C   C18       1.0  0.047080766061675744  0.8530106778970817  0.3168066853655205  1.0000
  C   C19       1.0  0.6502402211475342  0.6470250675097801  0.8168007971858059  1.0000
  C   C20       1.0  0.11452972807479965  0.3528622511364078  0.18294539967037335  1.0000
  C   C21       1.0  0.32044344935290786  0.06119985497645079  0.5970338146336189  1.0000
  C   C22       1.0  0.9784902642234385  0.9385214870760025  0.40268018038993614  1.0000
  C   C23       1.0  0.6671481826076828  0.5615100400123153  0.9026900056577603  1.0000
  C   C24       1.0  0.13177488226413903  0.4383380700397552  0.09708616264377666  1.0000
  C   C25       1.0  0.6009949071377036  0.06217182378397009  0.34580141644656937  1.0000
  C   C26       1.0  0.009046166598714954  0.9376576475205665  0.6542296263784735  1.0000
  C   C27       1.0  0.6967117378344059  0.5622747108483636  0.15428479150410368  1.0000
  C   C28       1.0  0.413138751848237  0.43775544532524446  0.8458468079414346  1.0000
  C   C29       1.0  0.7069396255650985  0.9912773121498405  0.24069890022571627  1.0000
  C   C30       1.0  0.9388939307797912  0.008538647912324398  0.7593882710651699  1.0000
  C   C31       1.0  0.6973904765956789  0.4914262275346886  0.25945020987291656  1.0000
  C   C32       1.0  0.44805522063104064  0.5087621082581818  0.7407842694098861  1.0000
  C   C33       1.0  0.5737982730633034  0.03950195740983279  0.9152473778538804  1.0000
  C   C34       1.0  0.5287769341859703  0.9606586672624428  0.08476900235480396  1.0000
  C   C35       1.0  0.23927441017045933  0.5396671978552163  0.5848165520975995  1.0000
  C   C36       1.0  0.3631842158679389  0.46084634621307424  0.41527305079219445  1.0000
  C   C37       1.0  0.45444930496982733  0.038974290060721686  0.9113184614994269  1.0000
  C   C38       1.0  0.40496752947123554  0.961319856969567  0.08862186334891925  1.0000
  C   C39       1.0  0.11610447627902686  0.5389991019196002  0.5886888398009945  1.0000
  C   C40       1.0  0.2433478683795086  0.4612458015339769  0.4113802609952728  1.0000
  C   C41       1.0  0.36624404423326945  0.00019545397325519996  0.9999758163914265  1.0000
  C   C42       1.0  0.11636120048900986  0.5000352626210258  0.5000360418314287  1.0000
  C   C43       1.0  0.2369173822846521  0.00018293361703309997  0.9999848329213137  1.0000
  C   C44       1.0  0.9871186577890395  0.4999359915946186  0.4999960267937594  1.0000
  C   C45       1.0  0.1009696097841939  0.06739340357439969  0.07826932607873262  1.0000
  C   C46       1.0  0.24624445808684184  0.9328042571958475  0.9217580080655947  1.0000
  C   C47       1.0  0.9291094630823975  0.5672512805319982  0.42174448622910166  1.0000
  C   C48       1.0  0.9185726879438363  0.4325926421707534  0.57823691481547  1.0000
  C   C49       1.0  0.9816306630385726  0.0665456685785415  0.07451406495854238  1.0000
  C   C50       1.0  0.12243978604177386  0.9334378253622401  0.9254974252051866  1.0000
  C   C51       1.0  0.8059823438426789  0.5664788141873629  0.4255074540520452  1.0000
  C   C52       1.0  0.7984244552217276  0.4333430944528514  0.5744915309508586  1.0000
  S   S1        1.0  0.5943885050666751  0.9339763298575718  0.44681021249385816  1.0000
  S   S2        1.0  0.9749312350009447  0.0659278226892326  0.5532701293112294  1.0000
  S   S3        1.0  0.7908532197671431  0.4340096958105946  0.05332590955978133  1.0000
  S   S4        1.0  0.27825437143390985  0.56580736623183  0.946925947899338  1.0000
  N   N1        1.0  0.61164476539507  4.046492077949998e-05  2.742922958992504e-05  1.0000
  N   N2        1.0  0.36153571761865777  0.500285333069101  0.5000683634714278  1.0000
  N   N3        1.0  0.9915065931663346  0.9999311027618063  1.6959658438514938e-05  1.0000
  N   N4        1.0  0.7416282354398691  0.4999386899690703  0.5000119174439918  1.0000
  Cl  Cl1       1.0  0.1302923156090827  0.3275260450272128  0.8278884978884306  1.0000
  Cl  Cl2       1.0  0.2853753055430275  0.672926817112753  0.17158515737880725  1.0000
  Cl  Cl3       1.0  0.7084044405471914  0.8271603513971261  0.6716159867380966  1.0000
  Cl  Cl4       1.0  0.20771427584207208  0.1724422266311052  0.32821282370530713  1.0000
  O   O1        1.0  0.5219797645698848  0.8685994365630519  0.42282700966951836  1.0000
  O   O2        1.0  0.8133272236823147  0.131160301882197  0.5770759873654329  1.0000
  O   O3        1.0  0.694425265091766  0.3688677612455392  0.07706062872536988  1.0000
  O   O4        1.0  0.1404640763995458  0.6310525391547729  0.9229431146119609  1.0000
  O   O5        1.0  0.8063592853826973  0.8699995133046841  0.2408027067453773  1.0000
  O   O6        1.0  0.917778861109703  0.12953062484447037  0.7594815003464106  1.0000
  O   O7        1.0  0.7971722847624321  0.37035510546101585  0.25956278290076534  1.0000
  O   O8        1.0  0.42614375081488015  0.6300222340880522  0.7409634620602077  1.0000
  O   O9        1.0  0.6835986114511954  0.063769198777976  0.16164820406164176  1.0000
  O   O10       1.0  0.9080743406146752  0.9364506273583046  0.838320789770563  1.0000
  O   O11       1.0  0.5946057636127974  0.5636574602287964  0.3383560777596769  1.0000
  O   O12       1.0  0.4971525831955574  0.4363647453068893  0.6617113775452665  1.0000
  O   O13       1.0  0.7199667094641172  0.208680866560627  0.946630905599079  1.0000
  O   O14       1.0  0.8757660026966718  0.7910557006100803  0.053175653750877044  1.0000
  O   O15       1.0  0.41683334767764546  0.7089564663093666  0.553259017936206  1.0000
  O   O16       1.0  0.6786851826182528  0.2913120936724738  0.44673310254606247  1.0000
