data_image0
_chemical_formula_structural       Cd8H32C56N8O36
_chemical_formula_sum              "Cd8 H32 C56 N8 O36"
_cell_length_a       8.38179705036772
_cell_length_b       8.428895039000542
_cell_length_c       21.74726804914707
_cell_angle_alpha    89.99996349197333
_cell_angle_beta     94.15740290059013
_cell_angle_gamma    90.00001954022532

_space_group_name_H-M_alt    "P 1"
_space_group_IT_number       1

loop_
  _space_group_symop_operation_xyz
  'x, y, z'

loop_
  _atom_site_type_symbol
  _atom_site_label
  _atom_site_symmetry_multiplicity
  _atom_site_fract_x
  _atom_site_fract_y
  _atom_site_fract_z
  _atom_site_occupancy
  Cd  Cd1       1.0  0.7811335716511819  0.5152259263821152  0.8633662729630984  1.0000
  Cd  Cd2       1.0  0.7188678975379118  0.0152258038049595  0.6366336210371982  1.0000
  Cd  Cd3       1.0  0.21886750634168808  0.4847740260436168  0.136633730758966  1.0000
  Cd  Cd4       1.0  0.28113198158076363  0.9847741486209711  0.363365890385289  1.0000
  Cd  Cd5       1.0  0.8754077988370527  0.31342159489138055  0.5179141446625407  1.0000
  Cd  Cd6       1.0  0.6245913680341174  0.8134202880664247  0.9820856117305254  1.0000
  Cd  Cd7       1.0  0.12459088407555899  0.6865795439294968  0.48208533436149986  1.0000
  Cd  Cd8       1.0  0.3754085137525109  0.1865796643591295  0.017914359593234497  1.0000
  H   H1        1.0  0.9552043589579143  0.04591210878249539  0.4429809323234295  1.0000
  H   H2        1.0  0.5447966607369705  0.5459114581168335  0.05701912380526149  1.0000
  H   H3        1.0  0.0447955201607613  0.9540878436434281  0.5570185790990506  1.0000
  H   H4        1.0  0.4552032210496577  0.4540884943087276  0.9429808475185055  1.0000
  H   H5        1.0  0.789816002374877  0.9911616995809777  0.46966263271635  1.0000
  H   H6        1.0  0.710183955638456  0.4911617448550841  0.03033728229685549  1.0000
  H   H7        1.0  0.2101838794117583  0.008838252844583398  0.53033733860741  1.0000
  H   H8        1.0  0.2898159288164877  0.5088405803603563  0.9696631489278928  1.0000
  H   H9        1.0  0.2936548413663544  0.25885310697816516  0.700772238029529  1.0000
  H   H10       1.0  0.2063438408571443  0.7588533076006384  0.7992272362587656  1.0000
  H   H11       1.0  0.7063450404200964  0.7411456590522717  0.29922773329438  1.0000
  H   H12       1.0  0.7936548447234202  0.24114783121987662  0.20077270266654776  1.0000
  H   H13       1.0  0.3841510954173941  0.35864666364925296  0.8060410131737896  1.0000
  H   H14       1.0  0.11585120290782669  0.8586470031403975  0.6939580740414257  1.0000
  H   H15       1.0  0.6158499799077076  0.6413544751719797  0.19395853064686006  1.0000
  H   H16       1.0  0.8841498750852278  0.14135413568045863  0.3060419296804966  1.0000
  H   H17       1.0  0.17571158689504068  0.4587367988848427  0.8743094164707583  1.0000
  H   H18       1.0  0.3242907470066498  0.9587373176775245  0.6256905661078632  1.0000
  H   H19       1.0  0.824289488430054  0.5412643399363901  0.1256901273498912  1.0000
  H   H20       1.0  0.6757103336543652  0.04126382114296939  0.3743098975153316  1.0000
  H   H21       1.0  0.24015630462609033  0.9609348944633777  0.14378075781272767  1.0000
  H   H22       1.0  0.2598419798870851  0.460932060048158  0.35621883675440796  1.0000
  H   H23       1.0  0.7598435771605379  0.039065057962183396  0.8562192135110321  1.0000
  H   H24       1.0  0.7401555068194624  0.5390702651676732  0.6437806098711789  1.0000
  H   H25       1.0  0.9785876387662569  0.06187883325751639  0.17536011619525027  1.0000
  H   H26       1.0  0.521410996007745  0.5618753720883376  0.3246403311398396  1.0000
  H   H27       1.0  0.021412248356462295  0.93812230556243  0.8246407749309199  1.0000
  H   H28       1.0  0.4785888911149741  0.43812576673161624  0.6753605599863305  1.0000
  H   H29       1.0  0.7291479065993017  0.004960355023669598  0.10558191919365358  1.0000
  H   H30       1.0  0.7708507083103272  0.5049604242850236  0.3944180821375766  1.0000
  H   H31       1.0  0.2708507816492158  0.9950407837964761  0.8944184796329324  1.0000
  H   H32       1.0  0.2291491761442614  0.49503952814016833  0.6055823490874559  1.0000
  C   C1        1.0  0.9342133934627982  0.34116170384950806  0.7566172167203291  1.0000
  C   C2        1.0  0.5657857871260745  0.8411643200105131  0.7433834527014793  1.0000
  C   C3        1.0  0.0657864883234751  0.6588358757857973  0.24338275460372216  1.0000
  C   C4        1.0  0.4342129011224429  0.15883681880963252  0.2566169461251135  1.0000
  C   C5        1.0  0.043240029804294984  0.2973598814730564  0.713609470010283  1.0000
  C   C6        1.0  0.45675986292776827  0.7973613727727269  0.7863904871751969  1.0000
  C   C7        1.0  0.9567598519821559  0.7026388845573804  0.28639050131362603  1.0000
  C   C8        1.0  0.5432400188590448  0.20263976604795889  0.21360948414842076  1.0000
  C   C9        1.0  0.2067455601795132  0.2988405147991315  0.7324158219179182  1.0000
  C   C10       1.0  0.2932543356678465  0.7988419816831964  0.7675845948073101  1.0000
  C   C11       1.0  0.7932555178131794  0.7011582512314688  0.2675841818042954  1.0000
  C   C12       1.0  0.7067455487869195  0.20115915713711977  0.23241583641758715  1.0000
  C   C13       1.0  0.2573885964844748  0.3533778738184947  0.7909722380426698  1.0000
  C   C14       1.0  0.2426125120464988  0.8533782314521401  0.709028197764553  1.0000
  C   C15       1.0  0.7426112853021605  0.6466220786070592  0.209027733281097  1.0000
  C   C16       1.0  0.7573885712822913  0.14662172097285972  0.2909727257600636  1.0000
  C   C17       1.0  0.1423259499447767  0.4080350474231479  0.8291627504114913  1.0000
  C   C18       1.0  0.3576763633023247  0.9080355048476746  0.6708363247444921  1.0000
  C   C19       1.0  0.857675125380325  0.5919660913980778  0.17083679340915833  1.0000
  C   C20       1.0  0.6423247120227772  0.09196563397355817  0.3291632190761574  1.0000
  C   C21       1.0  0.7543506377712532  0.3211448257566261  0.7435015038437315  1.0000
  C   C22       1.0  0.7456497356437167  0.8211451081485137  0.7564996627654779  1.0000
  C   C23       1.0  0.24564924668297286  0.67885275387831  0.2564989273815925  1.0000
  C   C24       1.0  0.2543513450169356  0.17885365788172433  0.24350080085800838  1.0000
  C   C25       1.0  0.9922788367256031  0.26466067107246255  0.6469287347174272  1.0000
  C   C26       1.0  0.5077191218750201  0.7646595324479649  0.8530714610845962  1.0000
  C   C27       1.0  0.007721045061025198  0.7353392813530987  0.35307123660633266  1.0000
  C   C28       1.0  0.49228075991160825  0.23534041997758945  0.1469285102391638  1.0000
  C   C29       1.0  0.9908413034360704  0.8114315310889706  0.027802154104833183  1.0000
  C   C30       1.0  0.5091586002745531  0.31142961301219424  0.4721978047935309  1.0000
  C   C31       1.0  0.009159774556984197  0.18856960773189257  0.9721978496170888  1.0000
  C   C32       1.0  0.4908400826376961  0.6885691530184345  0.527801674230794  1.0000
  C   C33       1.0  0.13450715039690664  0.8434236909699564  0.0627465764987747  1.0000
  C   C34       1.0  0.3654922974862628  0.3434195752839884  0.43725353906093994  1.0000
  C   C35       1.0  0.8654939249283727  0.15657863424640078  0.9372529673217258  1.0000
  C   C36       1.0  0.6345063880937615  0.6565780043511393  0.5627463998648066  1.0000
  C   C37       1.0  0.12935419543511273  0.9343193096143877  0.1164667739745013  1.0000
  C   C38       1.0  0.37064527724267987  0.4343152819453522  0.38353285948984  1.0000
  C   C39       1.0  0.8706456863517004  0.06568182920629789  0.8835331973491165  1.0000
  C   C40       1.0  0.6293534083380621  0.5656870432702802  0.6164670794353311  1.0000
  C   C41       1.0  0.983651307430982  0.9913874169219807  0.13364258767403203  1.0000
  C   C42       1.0  0.5163474544438529  0.4913844848719006  0.3663572948861215  1.0000
  C   C43       1.0  0.0163485743558311  0.0086137218987048  0.8663573836495855  1.0000
  C   C44       1.0  0.48365003493047  0.5086166539484367  0.6336426116408943  1.0000
  C   C45       1.0  0.8464293576036894  0.9594425493319038  0.09564303121924668  1.0000
  C   C46       1.0  0.6535693946199074  0.45944197487470717  0.404356859140634  1.0000
  C   C47       1.0  0.1535705241829461  0.04055740309365059  0.9043569401045132  1.0000
  C   C48       1.0  0.3464292936282618  0.5405567911551827  0.5956435396862503  1.0000
  C   C49       1.0  0.9862633361273793  0.705388403441418  0.9710964941873212  1.0000
  C   C50       1.0  0.513736994309305  0.20538482620274578  0.5289033209829127  1.0000
  C   C51       1.0  0.0137389354039641  0.29461273537998517  0.028903082031625598  1.0000
  C   C52       1.0  0.4862616886027666  0.7946127534327513  0.4710961580415614  1.0000
  C   C53       1.0  0.2949206238360135  0.7825106455238354  0.04685786030423599  1.0000
  C   C54       1.0  0.20507880831144118  0.2825076371169501  0.45314273002983185  1.0000
  C   C55       1.0  0.7050792606187527  0.21749049329648065  0.9531425709206615  1.0000
  C   C56       1.0  0.7949186783945661  0.7174911289135011  0.5468567165961955  1.0000
  N   N1        1.0  0.9854742784796144  0.39923096348606885  0.812408400796755  1.0000
  N   N2        1.0  0.5145273120660434  0.8992312793532731  0.6875923192431016  1.0000
  N   N3        1.0  0.014526796845132096  0.6007678025449081  0.18759114302417856  1.0000
  N   N4        1.0  0.48547377126273966  0.10076867307171969  0.3124086042815151  1.0000
  N   N5        1.0  0.8515025622466154  0.8722128897420232  0.04425660470876379  1.0000
  N   N6        1.0  0.6484961636218286  0.37221104464869365  0.4557433069502395  1.0000
  N   N7        1.0  0.1484973168722448  0.12778824907903188  0.9557429067135813  1.0000
  N   N8        1.0  0.3515049143710485  0.627788907777038  0.544256696771825  1.0000
  O   O1        1.0  0.6618000608808573  0.3793552567734153  0.7813852981974347  1.0000
  O   O2        1.0  0.8382015289959739  0.8793580037312265  0.718616346497754  1.0000
  O   O3        1.0  0.33820102511534594  0.6206411364658277  0.21861608522889497  1.0000
  O   O4        1.0  0.1617995516646786  0.12064076229901124  0.2813841171257322  1.0000
  O   O5        1.0  0.8568717305419112  0.08242457481864557  0.4603685102328753  1.0000
  O   O6        1.0  0.6431293001844267  0.5824227985407402  0.0396315369806644  1.0000
  O   O7        1.0  0.14312934745096584  0.9175753776070863  0.539631493489189  1.0000
  O   O8        1.0  0.35686938272800717  0.41757715388501276  0.9603679420435185  1.0000
  O   O9        1.0  0.7061967312067094  0.24730599668808403  0.6950850608714916  1.0000
  O   O10       1.0  0.7938036198989238  0.7473050309973529  0.8049161237671851  1.0000
  O   O11       1.0  0.2938019570416301  0.7526939557369303  0.3049153379552435  1.0000
  O   O12       1.0  0.2061974607617287  0.25269373503288517  0.1950843398563009  1.0000
  O   O13       1.0  0.9831970051924869  0.12433149760236256  0.6264415647105537  1.0000
  O   O14       1.0  0.5168044942930621  0.6243315154981985  0.8735578427480275  1.0000
  O   O15       1.0  0.016805263670718797  0.8756684548242788  0.3735575516072629  1.0000
  O   O16       1.0  0.4831953874935662  0.37566843692735563  0.12644212857573928  1.0000
  O   O17       1.0  0.9694610247150377  0.3894089548226204  0.6141144084669179  1.0000
  O   O18       1.0  0.5305405575271108  0.8894089575051108  0.8858853941686744  1.0000
  O   O19       1.0  0.0305412468159503  0.6105898112085271  0.38588516775232046  1.0000
  O   O20       1.0  0.46945932425951753  0.11059099492045019  0.1141145771550924  1.0000
  O   O21       1.0  0.8478953387055839  0.6869945337162092  0.9419166851308701  1.0000
  O   O22       1.0  0.6521061823804927  0.18699451501645836  0.5580831669284831  1.0000
  O   O23       1.0  0.15210573661934032  0.31300541870989207  0.0580828586899216  1.0000
  O   O24       1.0  0.3478948902764714  0.8130054374100053  0.4419159169910286  1.0000
  O   O25       1.0  0.1127887369809457  0.6422067967615772  0.9565097182848845  1.0000
  O   O26       1.0  0.38721349595025595  0.14220450726070774  0.5434894217790073  1.0000
  O   O27       1.0  0.8872111394699473  0.3577943420598473  0.04348933323618099  1.0000
  O   O28       1.0  0.6127875793741281  0.8577918859800133  0.4565101220422178  1.0000
  O   O29       1.0  0.3790130778791934  0.8735249871832095  0.015175674322783494  1.0000
  O   O30       1.0  0.1209875753053353  0.3735242725791962  0.48482446628495524  1.0000
  O   O31       1.0  0.6209880001136837  0.12647496524252225  0.9848243293992807  1.0000
  O   O32       1.0  0.8790123064811224  0.6264744934512335  0.5151755050389539  1.0000
  O   O33       1.0  0.340892942176275  0.6507033228064215  0.0694997647244406  1.0000
  O   O34       1.0  0.15910524860586858  0.15070152180783944  0.4304999055921641  1.0000
  O   O35       1.0  0.6591069396105311  0.34929781601426413  0.9305002065991772  1.0000
  O   O36       1.0  0.8408934369743404  0.8492972442224198  0.5695000333334405  1.0000
