data_image0
_chemical_formula_structural       Li4H56C48N4O16
_chemical_formula_sum              "Li4 H56 C48 N4 O16"
_cell_length_a       10.063097007000264
_cell_length_b       10.536303343000124
_cell_length_c       11.702346487000307
_cell_angle_alpha    90.00001240749845
_cell_angle_beta     89.9999768789072
_cell_angle_gamma    90.00001251613816

_space_group_name_H-M_alt    "P 1"
_space_group_IT_number       1

loop_
  _space_group_symop_operation_xyz
  'x, y, z'

loop_
  _atom_site_type_symbol
  _atom_site_label
  _atom_site_symmetry_multiplicity
  _atom_site_fract_x
  _atom_site_fract_y
  _atom_site_fract_z
  _atom_site_occupancy
  Li  Li1       1.0  0.5000000610905388  0.4999999676737802  0.616641249173078  1.0000
  Li  Li2       1.0  2.0736577259999994e-07  1.5034667200000002e-07  0.3833579852539302  1.0000
  Li  Li3       1.0  0.49999899677619897  1.3315248989999998e-07  0.6734511744936851  1.0000
  Li  Li4       1.0  2.779502566e-07  0.4999999848678626  0.3265480599334935  1.0000
  H   H1        1.0  0.19439236487732356  0.24356937115409485  0.44645147785063694  1.0000
  H   H2        1.0  0.8056068435351023  0.7564305232301152  0.44645142188910103  1.0000
  H   H3        1.0  0.6943924899022846  0.2564306831710326  0.5535487170286046  1.0000
  H   H4        1.0  0.3056066681920129  0.7435692369906022  0.5535488318598992  1.0000
  H   H5        1.0  0.3534099725856805  0.29537885279648896  0.6357468246459062  1.0000
  H   H6        1.0  0.6465901406189261  0.7046210871496329  0.6357468137050899  1.0000
  H   H7        1.0  0.8534101746862742  0.20462123467144977  0.3642533151182689  1.0000
  H   H8        1.0  0.1465900660755608  0.7953786399284866  0.3642534951586214  1.0000
  H   H9        1.0  0.2934413494247963  0.15079112910975573  0.5958479852351742  1.0000
  H   H10       1.0  0.7065577887959478  0.8492097503324203  0.5958479816800801  1.0000
  H   H11       1.0  0.7934415658836328  0.3492089458593881  0.4041521753139604  1.0000
  H   H12       1.0  0.20655766240235346  0.6507899892442809  0.40415230639903393  1.0000
  H   H13       1.0  0.2409892725662175  0.27028467028486597  0.796906828024454  1.0000
  H   H14       1.0  0.7590107649198288  0.7297162575505781  0.7969067830082182  1.0000
  H   H15       1.0  0.7409895561309341  0.22971539375210884  0.20309335070439966  1.0000
  H   H16       1.0  0.2590107603495825  0.770284442057978  0.20309348689091414  1.0000
  H   H17       1.0  0.1538818928553027  0.1387071971096105  0.7378878975807338  1.0000
  H   H18       1.0  0.8461181723599296  0.8612937165204713  0.7378878480089239  1.0000
  H   H19       1.0  0.6538811850864404  0.36129379787162463  0.2621123113395569  1.0000
  H   H20       1.0  0.34611810993482817  0.6387060521438245  0.2621132462284236  1.0000
  H   H21       1.0  0.9728941855883941  0.2915236888067625  0.7481865597668004  1.0000
  H   H22       1.0  0.027105874788098592  0.7084772273021541  0.7481867642886613  1.0000
  H   H23       1.0  0.47289414397648943  0.20847642356431353  0.2518135385845355  1.0000
  H   H24       1.0  0.5271061496135729  0.7915234239723008  0.2518135859879891  1.0000
  H   H25       1.0  0.0802246853415625  0.42016738243996343  0.7161948525114779  1.0000
  H   H26       1.0  0.9197753900658511  0.5798335259687731  0.7161947225726307  1.0000
  H   H27       1.0  0.5802248966687741  0.07983359718946301  0.28380452740855583  1.0000
  H   H28       1.0  0.4197753818905738  0.9201662580472173  0.2838054916058538  1.0000
  H   H29       1.0  0.9787065723207178  0.3713324889438212  0.5283938947946254  1.0000
  H   H30       1.0  0.0212935913221628  0.6286683742628512  0.5283940857816558  1.0000
  H   H31       1.0  0.47870640916988083  0.1286685737381461  0.47160620154226496  1.0000
  H   H32       1.0  0.5212937811535951  0.8713313267008121  0.47160712103891445  1.0000
  H   H33       1.0  0.9981121043728791  0.20517744470419075  0.5525377510325739  1.0000
  H   H34       1.0  0.0018880479265561995  0.7948234243136055  0.5525371265884755  1.0000
  H   H35       1.0  0.4981119906076613  0.29482267292284803  0.44746233857831175  1.0000
  H   H36       1.0  0.5018882110593523  0.7051762726054066  0.4474632324285323  1.0000
  H   H37       1.0  0.2916973756922729  0.9053214502117585  0.8691419666818943  1.0000
  H   H38       1.0  0.7083036215851166  0.09467854591058969  0.8691409609852695  1.0000
  H   H39       1.0  0.7916966685481129  0.5946783071099662  0.13085914641764865  1.0000
  H   H40       1.0  0.20830268814094668  0.405321511313737  0.1308583745430738  1.0000
  H   H41       1.0  0.09789616761949559  0.8573653469620554  0.9967497366293825  1.0000
  H   H42       1.0  0.9021037759733942  0.1426346798742912  0.996748673105415  1.0000
  H   H43       1.0  0.597895531409975  0.6426343699670981  0.003250589111622999  1.0000
  H   H44       1.0  0.4021038852339202  0.3573654177424004  0.0032505952521689  1.0000
  H   H45       1.0  0.0336547140360679  0.6326279588866728  0.03244483090343659  1.0000
  H   H46       1.0  0.9663456826212454  0.36737183584970984  0.032444643429130296  1.0000
  H   H47       1.0  0.5336546699465786  0.8673717446531981  0.9675555171033705  1.0000
  H   H48       1.0  0.46634528736275627  0.132628275156371  0.9675546026624812  1.0000
  H   H49       1.0  0.1523336527719366  0.4582860982202847  0.931755885507776  1.0000
  H   H50       1.0  0.8476673150875198  0.5417148620720839  0.9317540640758182  1.0000
  H   H51       1.0  0.6523329629193171  0.04171394733899091  0.06824603300798059  1.0000
  H   H52       1.0  0.34766542945791906  0.958285856014065  0.0682444660365817  1.0000
  H   H53       1.0  0.34600468200637385  0.5074978602550857  0.8057238680571002  1.0000
  H   H54       1.0  0.6539953513368956  0.4925011715035908  0.8057238132218313  1.0000
  H   H55       1.0  0.846005029880047  0.9925019083854921  0.19427637169003723  1.0000
  H   H56       1.0  0.15399529074322518  0.007497925302303101  0.19427554112935744  1.0000
  C   C1        1.0  0.2324412990953846  0.43765073279355704  0.4919389486481263  1.0000
  C   C2        1.0  0.7675588816752777  0.5623491725392071  0.4919388680606786  1.0000
  C   C3        1.0  0.7324414010560146  0.06234932946181001  0.5080612330434632  1.0000
  C   C4        1.0  0.26755877213997076  0.9376505797513771  0.5080605443461507  1.0000
  C   C5        1.0  0.1837465256549535  0.3029725664829712  0.5231215790398379  1.0000
  C   C6        1.0  0.8162536404651133  0.6970282954546647  0.5231215078147285  1.0000
  C   C7        1.0  0.6837466731015668  0.19702748562332317  0.4768786195292093  1.0000
  C   C8        1.0  0.3162535147448152  0.8029714669850918  0.47687874224411064  1.0000
  C   C9        1.0  0.18098986439325418  0.23849361917959294  0.7242265398867003  1.0000
  C   C10       1.0  0.8190102072405664  0.7615072911623174  0.7242264802687683  1.0000
  C   C11       1.0  0.6809891273590551  0.26150643235206417  0.2757736596379558  1.0000
  C   C12       1.0  0.3190101612437104  0.738492471851977  0.27577376883463955  1.0000
  C   C13       1.0  0.0595372099712534  0.3197811262767943  0.6975131229345094  1.0000
  C   C14       1.0  0.9404628742134946  0.6802197776354149  0.6975130053839604  1.0000
  C   C15       1.0  0.5595374355047794  0.18021889994153642  0.3024871186851285  1.0000
  C   C16       1.0  0.44046283427672245  0.8197800106924121  0.302488056153777  1.0000
  C   C17       1.0  0.0410270316440347  0.2993280151554886  0.5691551062370408  1.0000
  C   C18       1.0  0.958973112847964  0.700673806961504  0.5691549862559312  1.0000
  C   C19       1.0  0.5410272015533691  0.20067295630438048  0.43084514179827227  1.0000
  C   C20       1.0  0.45897300792098145  0.7993259852242646  0.43084606886621657  1.0000
  C   C21       1.0  0.4514772194042749  0.7408017030341227  0.7606124069908657  1.0000
  C   C22       1.0  0.5485228351342711  0.2591982669659814  0.76061148872747  1.0000
  C   C23       1.0  0.9514764989369694  0.7591980875891624  0.23938779619997766  1.0000
  C   C24       1.0  0.0485228067614756  0.24080175695647912  0.23938704765080832  1.0000
  C   C25       1.0  0.3307092091525519  0.709551649521565  0.8310461623242984  1.0000
  C   C26       1.0  0.6692918060236791  0.290447388331863  0.8310443537618537  1.0000
  C   C27       1.0  0.8307085289321776  0.7904481159310918  0.1689549372538579  1.0000
  C   C28       1.0  0.1692908098583317  0.20955171166184533  0.16895328622884154  1.0000
  C   C29       1.0  0.259552187502905  0.8078546268666854  0.8838526876701633  1.0000
  C   C30       1.0  0.7404478091330091  0.1921453727962971  0.8838516898220089  1.0000
  C   C31       1.0  0.7595525033160797  0.6921460728547473  0.1161475820412576  1.0000
  C   C32       1.0  0.2404468602851111  0.3078546911274885  0.11614678003578398  1.0000
  C   C33       1.0  0.15193519854917534  0.7804977808546455  0.9548880298542172  1.0000
  C   C34       1.0  0.8480647647120207  0.21950223590584977  0.9548861455068616  1.0000
  C   C35       1.0  0.6519355540004453  0.7195019473376477  0.04511313168631399  1.0000
  C   C36       1.0  0.34806483670500654  0.28049785044780856  0.04511228705101899  1.0000
  C   C37       1.0  0.1143155483677845  0.6543339855901565  0.973417641219498  1.0000
  C   C38       1.0  0.885684406187231  0.345665086530886  0.9734166229434961  1.0000
  C   C39       1.0  0.6143149476809454  0.8456657347612693  0.02658353336006769  1.0000
  C   C40       1.0  0.3856834642706559  0.15433405856406068  0.026582651105087493  1.0000
  C   C41       1.0  0.18273186364035607  0.5563812253889325  0.9183030322706923  1.0000
  C   C42       1.0  0.8172681168099557  0.443618782565764  0.9183003477331296  1.0000
  C   C43       1.0  0.6827312594853296  0.9436185092220769  0.08169897312544797  1.0000
  C   C44       1.0  0.3172681203011436  0.0563812973690787  0.08169724096931928  1.0000
  C   C45       1.0  0.2904989057257055  0.5834324614065879  0.847448850279562  1.0000
  C   C46       1.0  0.7095021017440715  0.4165675294943084  0.8474470523525778  1.0000
  C   C47       1.0  0.7904982620873539  0.9165672956654588  0.1525531177648389  1.0000
  C   C48       1.0  0.2095010844093181  0.08343252797969573  0.15255142823091458  1.0000
  N   N1        1.0  0.2648030541999232  0.24455361522446134  0.6174120506341935  1.0000
  N   N2        1.0  0.7351970676191328  0.7554472694081014  0.617412018884984  1.0000
  N   N3        1.0  0.7648032593229955  0.2554474028753049  0.3825881198409815  1.0000
  N   N4        1.0  0.2351969728247099  0.7445524761375638  0.3825874047383592  1.0000
  O   O1        1.0  0.3408005798328518  0.4776837647625884  0.5310456206641587  1.0000
  O   O2        1.0  0.6591995825641063  0.5223161499828279  0.5310455698339849  1.0000
  O   O3        1.0  0.8408006910014194  0.0223163200772589  0.4689545234704155  1.0000
  O   O4        1.0  0.1592004942981404  0.9776835797233832  0.4689538801296889  1.0000
  O   O5        1.0  0.15692381488010199  0.499852798402678  0.4246968979351067  1.0000
  O   O6        1.0  0.8430763974832728  0.500147090745486  0.424696779054507  1.0000
  O   O7        1.0  0.6569238710065264  0.00014724811316570003  0.5753033099306393  1.0000
  O   O8        1.0  0.343075276866692  0.999852677284622  0.5753034617078183  1.0000
  O   O9        1.0  0.5055649452981399  0.6512294894503512  0.7031905717590374  1.0000
  O   O10       1.0  0.4944341424891475  0.34877046672879425  0.7031905442235312  1.0000
  O   O11       1.0  0.005565908396590701  0.8487702082349883  0.29680893145395254  1.0000
  O   O12       1.0  0.9944343640529066  0.151229650131711  0.2968095466620682  1.0000
  O   O13       1.0  0.49517451489208497  0.8530270265296739  0.7630854186514637  1.0000
  O   O14       1.0  0.5048255384843543  0.14697294406576594  0.7630853481977338  1.0000
  O   O15       1.0  0.9951747636222733  0.6469737223005794  0.23691391486446625  1.0000
  O   O16       1.0  0.004825536968049  0.35302707074941253  0.2369149123848401  1.0000
