data_image0
_chemical_formula_structural       Dy4H32C32N4O36
_chemical_formula_sum              "Dy4 H32 C32 N4 O36"
_cell_length_a       9.449955575
_cell_length_b       9.944935087022857
_cell_length_c       14.19
_cell_angle_alpha    90.0
_cell_angle_beta     90.0
_cell_angle_gamma    92.94209433689629

_space_group_name_H-M_alt    "P 1"
_space_group_IT_number       1

loop_
  _space_group_symop_operation_xyz
  'x, y, z'

loop_
  _atom_site_type_symbol
  _atom_site_label
  _atom_site_symmetry_multiplicity
  _atom_site_fract_x
  _atom_site_fract_y
  _atom_site_fract_z
  _atom_site_occupancy
  Dy  Dy1       1.0  0.3825239895632889  0.4159637561623271  0.8561310782241021  1.0000
  Dy  Dy2       1.0  0.6174824499901349  0.08402885118966448  0.356131782945738  1.0000
  Dy  Dy3       1.0  0.6174861168433239  0.5840375683674139  0.143868217054262  1.0000
  Dy  Dy4       1.0  0.3825168568126429  0.9159684458836352  0.6438682170542618  1.0000
  H   H1        1.0  0.5794007529619307  0.1896428551760536  0.9057019027484114  1.0000
  H   H2        1.0  0.4205952133029172  0.3103517659041514  0.4056990838618758  1.0000
  H   H3        1.0  0.4205933715824345  0.8103564556254597  0.0943009161381241  1.0000
  H   H4        1.0  0.5793998062898424  0.689644524305038  0.5943002114164884  1.0000
  H   H5        1.0  0.559518300238544  0.271359946368456  0.00119802677942  1.0000
  H   H6        1.0  0.4404777747980617  0.2286366884399698  0.5011973220577843  1.0000
  H   H7        1.0  0.4404846162693445  0.7286454056177192  0.998803382663844  1.0000
  H   H8        1.0  0.5595225902107471  0.7713606086333228  0.49880338266384416  1.0000
  H   H9        1.0  0.4601288264000445  0.23968903577879527  0.6884087385482756  1.0000
  H   H10       1.0  0.5398684700002221  0.2603106196219613  0.18841014799154004  1.0000
  H   H11       1.0  0.5398703716309754  0.7603062475662838  0.3115912614517242  1.0000
  H   H12       1.0  0.4601291010916242  0.7396937255001035  0.811589147286824  1.0000
  H   H13       1.0  0.5819245520131843  0.3496023495161963  0.7143988724453862  1.0000
  H   H14       1.0  0.4180818875402323  0.15039025783579518  0.21439887244538613  1.0000
  H   H15       1.0  0.4180828941225839  0.6503889063724415  0.2855976039464422  1.0000
  H   H16       1.0  0.5819177455778046  0.8496130804221663  0.7855990133897137  1.0000
  H   H17       1.0  0.2896327645837716  0.5882895555052343  0.6951416490486224  1.0000
  H   H18       1.0  0.7103667625247071  0.9117114244252633  0.19514023960535803  1.0000
  H   H19       1.0  0.7103675460391585  0.4117067347039551  0.30485694150810616  1.0000
  H   H20       1.0  0.28963297936508775  0.08829392756091889  0.8048569415081059  1.0000
  H   H21       1.0  0.2938657045468744  0.4378529819203649  0.6573128964059193  1.0000
  H   H22       1.0  0.7061370460411851  0.0621496940727226  0.15731571529246213  1.0000
  H   H23       1.0  0.7061367224881181  0.5621433082888174  0.34268357998590193  1.0000
  H   H24       1.0  0.29386375405463383  0.9378556579134596  0.8426849894291732  1.0000
  H   H25       1.0  0.9342016390837812  0.7291820641885138  0.9262558139534889  1.0000
  H   H26       1.0  0.0658063536729543  0.7708189157419837  0.42625017618041017  1.0000
  H   H27       1.0  0.0658075178885511  0.2708212740694407  0.0737505285412254  1.0000
  H   H28       1.0  0.9341899416693521  0.2291814019236469  0.5737512332628611  1.0000
  H   H29       1.0  0.8138855854650231  0.31851441324639745  0.8429760394644105  1.0000
  H   H30       1.0  0.18611594375937554  0.18148524215435904  0.34297392529950327  1.0000
  H   H31       1.0  0.1861205600468452  0.6814919456038878  0.15702607470049657  1.0000
  H   H32       1.0  0.813876009987041  0.8185130617830438  0.6570253699788609  1.0000
  C   C1        1.0  0.0998711742509784  0.5971278086654976  0.8902452431289658  1.0000
  C   C2        1.0  0.9001366009622487  0.9028691438085588  0.39024031007751586  1.0000
  C   C3        1.0  0.9001378739495963  0.40287351586424336  0.1097582804792125  1.0000
  C   C4        1.0  0.09986270584052188  0.097128153264741  0.6097561663143054  1.0000
  C   C5        1.0  0.9589670488389147  0.6280576672699709  0.9042445384073261  1.0000
  C   C6        1.0  0.04104083514607029  0.8719412989322989  0.4042381959126117  1.0000
  C   C7        1.0  0.0410409955415076  0.3719446641238733  0.0957561663143025  1.0000
  C   C8        1.0  0.958957413450669  0.12805599814099367  0.5957582804792096  1.0000
  C   C9        1.0  0.8535204689021257  0.5268597692713826  0.8875461592670887  1.0000
  C   C10       1.0  0.1464854074425546  0.973141210659115  0.38754122621564585  1.0000
  C   C11       1.0  0.1464862997287568  0.4731385346660275  0.1124594785059898  1.0000
  C   C12       1.0  0.8535121636492989  0.0268631344629497  0.6124608879492612  1.0000
  C   C13       1.0  0.8922987228990706  0.399759285171065  0.8579619450317109  1.0000
  C   C14       1.0  0.107701639347539  0.1002383565014711  0.3579556025369968  1.0000
  C   C15       1.0  0.10770381290767972  0.600239018766338  0.1420415785764604  1.0000
  C   C16       1.0  0.8922904231706353  0.8997619611641524  0.6420451021846387  1.0000
  C   C17       1.0  0.0355406901307518  0.3754364688584104  0.8511353065539138  1.0000
  C   C18       1.0  0.9644617885279274  0.1245611728141256  0.3511324876673712  1.0000
  C   C19       1.0  0.9644631214255383  0.6245658625354338  0.1488661028893574  1.0000
  C   C20       1.0  0.0355344524285002  0.8754381379873948  0.6488632840028217  1.0000
  C   C21       1.0  0.22323917530521703  0.6989852026563383  0.8986377730796347  1.0000
  C   C22       1.0  0.776766755425335  0.8010167841382625  0.3986335447498206  1.0000
  C   C23       1.0  0.776767810869174  0.30101712873750586  0.1013678646934437  1.0000
  C   C24       1.0  0.223231656329034  0.1989835335273611  0.601360112755465  1.0000
  C   C25       1.0  0.6988218456353296  0.5454807141273719  0.9040859760394608  1.0000
  C   C26       1.0  0.30117936279819457  0.9545122108902433  0.4040838618745609  1.0000
  C   C27       1.0  0.3011773523956904  0.4545145692177073  0.0959154334038033  1.0000
  C   C28       1.0  0.6988143810450254  0.0454800518625049  0.5959210711768819  1.0000
  C   C29       1.0  0.0883121152653175  0.2384324693691369  0.8274587737843573  1.0000
  C   C30       1.0  0.9116879206660328  0.2615591311187444  0.3274559548978145  1.0000
  C   C31       1.0  0.9116861333314288  0.7615648277041629  0.17254052149400675  1.0000
  C   C32       1.0  0.0883059863348237  0.7384361522263346  0.6725398167723782  1.0000
  N   N1        1.0  0.1357384446566883  0.47283144111238323  0.8668456659619463  1.0000
  N   N2        1.0  0.8642629214100807  0.027165193696042398  0.3668463706835823  1.0000
  N   N3        1.0  0.8642621378956293  0.5271698834173577  0.1331564482029606  1.0000
  N   N4        1.0  0.1357342145947555  0.9728310965131397  0.6331550387596891  1.0000
  O   O1        1.0  0.3489499461815981  0.6499710577666632  0.8905257223396745  1.0000
  O   O2        1.0  0.6510557670054454  0.8500269015715034  0.3905306553911174  1.0000
  O   O3        1.0  0.6510571487645507  0.3500332873554014  0.10946723044397537  1.0000
  O   O4        1.0  0.3489401476357159  0.1499663680453551  0.6094700493305112  1.0000
  O   O5        1.0  0.20165329250571062  0.8198501773215341  0.9119520789288202  1.0000
  O   O6        1.0  0.7983543195498868  0.6801437545601914  0.4119499647639202  1.0000
  O   O7        1.0  0.7983522547615038  0.1801451060235451  0.0880479210711798  1.0000
  O   O8        1.0  0.2016469948931956  0.3198515287848807  0.5880408738548297  1.0000
  O   O9        1.0  0.6616610840362753  0.5899569224718986  0.9835475687103565  1.0000
  O   O10       1.0  0.338345608096553  0.9100591604202534  0.4835405214940067  1.0000
  O   O11       1.0  0.3383511682939115  0.4100645393400412  0.0164580690627218  1.0000
  O   O12       1.0  0.6616443923954307  0.08994216410948748  0.5164559548978147  1.0000
  O   O13       1.0  0.6142365840268269  0.5089104027769622  0.8384996476391819  1.0000
  O   O14       1.0  0.3857704297841238  0.9910724535995498  0.3384897815362962  1.0000
  O   O15       1.0  0.3857646216445048  0.4910828668398892  0.1615081042988038  1.0000
  O   O16       1.0  0.6142281451278819  0.0089308846584117  0.6615081042988038  1.0000
  O   O17       1.0  0.004024188262818  0.1414825310519205  0.8144954193093739  1.0000
  O   O18       1.0  0.9959795661454012  0.3585191380770567  0.3144954193093738  1.0000
  O   O19       1.0  0.9959787826309494  0.8585238277983718  0.18550105708245468  1.0000
  O   O20       1.0  0.0040157797626320995  0.6414831933167875  0.6855066948555333  1.0000
  O   O21       1.0  0.22733807967196637  0.2367852396846715  0.8230725863284007  1.0000
  O   O22       1.0  0.7726641270573253  0.263207367667313  0.3230739957716722  1.0000
  O   O23       1.0  0.7726634523146317  0.7632140711168418  0.17692600422832777  1.0000
  O   O24       1.0  0.2273308925354414  0.7367889225418763  0.6769274136715993  1.0000
  O   O25       1.0  0.5198762409421036  0.2517774462871216  0.9379654686398877  1.0000
  O   O26       1.0  0.48011416236319354  0.2482121404725319  0.4379619450317094  1.0000
  O   O27       1.0  0.4801178292163825  0.7482208576502813  0.06203946441155488  1.0000
  O   O28       1.0  0.5198830824133935  0.751786163464871  0.5620373502466549  1.0000
  O   O29       1.0  0.5115731154814612  0.28595544851144433  0.741571529245945  1.0000
  O   O30       1.0  0.4884241265329266  0.2140432000252019  0.24157293868921664  1.0000
  O   O31       1.0  0.488428307733372  0.7140418485618483  0.2584270613107833  1.0000
  O   O32       1.0  0.5115743396073213  0.785958124504539  0.7584263565891475  1.0000
  O   O33       1.0  0.3369013133536498  0.5007880299991285  0.7052276250880922  1.0000
  O   O34       1.0  0.6631013883729295  0.999212949931369  0.20522903453135644  1.0000
  O   O35       1.0  0.6631000010894397  0.49920725334595056  0.2947702607470077  1.0000
  O   O36       1.0  0.3368982991309863  0.0007913951907027999  0.7947695560253718  1.0000
