data_image0
_chemical_formula_structural       Zr6H44C44N4O32
_chemical_formula_sum              "Zr6 H44 C44 N4 O32"
_cell_length_a       12.835386290866097
_cell_length_b       17.46543633801761
_cell_length_c       17.506371996332426
_cell_angle_alpha    85.23958634863894
_cell_angle_beta     70.96178840311822
_cell_angle_gamma    70.89956774668812

_space_group_name_H-M_alt    "P 1"
_space_group_IT_number       1

loop_
  _space_group_symop_operation_xyz
  'x, y, z'

loop_
  _atom_site_type_symbol
  _atom_site_label
  _atom_site_symmetry_multiplicity
  _atom_site_fract_x
  _atom_site_fract_y
  _atom_site_fract_z
  _atom_site_occupancy
  Zr  Zr1       1.0  0.028201970840200416  0.014740821389871393  0.8960674751842532  1.0000
  Zr  Zr2       1.0  0.024183654130943994  0.8724045224432189  0.05095649271535757  1.0000
  Zr  Zr3       1.0  0.8486426963557605  0.17041176814165482  0.044328596913011595  1.0000
  Zr  Zr4       1.0  0.8382241383553007  0.024983706355918404  0.19944144935737282  1.0000
  Zr  Zr5       1.0  0.7598006276185386  0.001473572279721202  0.026877360941448075  1.0000
  Zr  Zr6       1.0  0.11114457506467801  0.0411087180272673  0.06691999142999089  1.0000
  H   H1        1.0  0.8010599208824091  0.9985932727892006  0.5955989816605011  1.0000
  H   H2        1.0  0.6757483272119204  0.007348562303889099  0.4974042004806734  1.0000
  H   H3        1.0  0.07146886513719153  0.0287988131196073  0.4974953508793618  1.0000
  H   H4        1.0  0.19645331172129943  0.020784709705168304  0.5970016826009044  1.0000
  H   H5        1.0  0.8130216326916014  0.5649706755951485  0.0047696735491272  1.0000
  H   H6        1.0  0.6842315807660811  0.4674064477069421  0.01906450771907941  1.0000
  H   H7        1.0  0.061514360999190394  0.4763497112767041  0.07826926591712888  1.0000
  H   H8        1.0  0.1889716353155465  0.5743632006626669  0.0685982013574318  1.0000
  H   H9        1.0  0.21478819321193768  0.9093138058016238  0.9314940050990969  1.0000
  H   H10       1.0  0.7953282985030441  0.8877982999706548  0.1515708883136497  1.0000
  H   H11       1.0  0.9159681535454283  0.1564642912722576  0.18836334832272428  1.0000
  H   H12       1.0  0.8047198503857943  0.13346860944609057  0.9122471800907802  1.0000
  H   H13       1.0  0.9639883011826954  0.758348837038625  0.15047224001988713  1.0000
  H   H14       1.0  0.9290440933326707  0.8566385194326857  0.22521660052720455  1.0000
  H   H15       1.0  0.6679575174238367  0.13005913805394442  0.3039176654929675  1.0000
  H   H16       1.0  0.7742521712004945  0.3143302323322885  0.1266188042832681  1.0000
  H   H17       1.0  0.8820876854297522  0.28362251508630726  0.9418228511766314  1.0000
  H   H18       1.0  0.009094340701395302  0.0901421442977579  0.7568821988066502  1.0000
  H   H19       1.0  0.11266533154503837  0.9059834224000481  0.7802575539382417  1.0000
  H   H20       1.0  0.20485543361413522  0.7359767860803431  0.9734419534689349  1.0000
  H   H21       1.0  0.6657705525104235  0.2866709410184285  0.13247084752988056  1.0000
  H   H22       1.0  0.10633141418113468  0.11077286508086098  0.7811544168138056  1.0000
  H   H23       1.0  0.08625792466258995  0.7401217958898132  0.9591736024800069  1.0000
  H   H24       1.0  0.9221881057248212  0.9133761057847919  0.2956086543587873  1.0000
  H   H25       1.0  0.2490931366248716  0.24758801321917903  0.084147546045692  1.0000
  H   H26       1.0  0.03801257733230303  0.3616447775201692  0.039862004231167696  1.0000
  H   H27       1.0  0.4993478475222517  0.3342973538976395  0.0737110983228533  1.0000
  H   H28       1.0  0.4175844702097607  0.20716866373025772  0.0189381201007066  1.0000
  H   H29       1.0  0.450324658322579  0.8363648095100372  0.083397188124465  1.0000
  H   H30       1.0  0.36423255617000894  0.706390319653913  0.03946700401149172  1.0000
  H   H31       1.0  0.6172139110667132  0.7954636135465093  0.021982726242768483  1.0000
  H   H32       1.0  0.8545865020964102  0.6758335087888057  0.021949199624657446  1.0000
  H   H33       1.0  0.35025354917177515  0.6055850324017413  0.07885872771463909  1.0000
  H   H34       1.0  0.5199081186498233  0.4346584000346779  0.024048302909967772  1.0000
  H   H35       1.0  0.24894601327904556  0.058185593003457804  0.2733613615111778  1.0000
  H   H36       1.0  0.05641037438741139  0.9906211220362026  0.3793764597289169  1.0000
  H   H37       1.0  0.41713556403146174  0.9889129813782558  0.23227994692265946  1.0000
  H   H38       1.0  0.5053598485760774  0.03881921225209339  0.35806828653242206  1.0000
  H   H39       1.0  0.444453498238417  0.06930325845874563  0.859488508041302  1.0000
  H   H40       1.0  0.35858960752894836  0.0089480610578505  0.7382067661564307  1.0000
  H   H41       1.0  0.6115656701346384  0.9939619961787186  0.824259955117455  1.0000
  H   H42       1.0  0.8388880031428342  0.013683886871646699  0.7064080024998204  1.0000
  H   H43       1.0  0.34939673568413815  0.026684150440900105  0.6341409897996114  1.0000
  H   H44       1.0  0.5174187870816098  0.015084154866549704  0.4613787167373857  1.0000
  C   C1        1.0  0.6373412218629328  0.0096593796792916  0.6947760069512652  1.0000
  C   C2        1.0  0.7090358510575285  0.005705259999672298  0.6141465417204229  1.0000
  C   C3        1.0  0.6443041072608439  0.008923959687727702  0.5629847924366301  1.0000
  C   C4        1.0  0.5304731817540899  0.014792170030332799  0.610974992558006  1.0000
  C   C5        1.0  0.2319143655227549  0.02821763449285441  0.3999189003255949  1.0000
  C   C6        1.0  0.161914540891253  0.026055853240144703  0.4798904841205313  1.0000
  C   C7        1.0  0.22590473586182475  0.0239150729338249  0.5315980192383803  1.0000
  C   C8        1.0  0.33710506775203436  0.024797405444601798  0.4844545625005878  1.0000
  C   C9        1.0  0.6469032831265482  0.6647521642670142  0.028318904639220863  1.0000
  C   C10       1.0  0.7194988455177694  0.58384449905018  0.017808735175222495  1.0000
  C   C11       1.0  0.6527386691376194  0.5331049269392026  0.024498140841984716  1.0000
  C   C12       1.0  0.5366054687875988  0.5817966408459441  0.039946414575410844  1.0000
  C   C13       1.0  0.22540857598242778  0.37690214181628084  0.06568815880802957  1.0000
  C   C14       1.0  0.1537481430758092  0.45770134169487875  0.0705554224204121  1.0000
  C   C15       1.0  0.21958565692051482  0.5085851558399597  0.06685949133960625  1.0000
  C   C16       1.0  0.3337960092669475  0.4599437916577784  0.05901187634780308  1.0000
  C   C17       1.0  0.8183130426741203  0.9977289603642987  0.8331433845086522  1.0000
  C   C18       1.0  0.2799201918412422  0.8563688938304069  0.06914627689010898  1.0000
  C   C19       1.0  0.8245130313287987  0.8050464702840046  0.01854657809956717  1.0000
  C   C20       1.0  0.2733781251334833  0.0529107214622258  0.8851272142936607  1.0000
  C   C21       1.0  0.05585218206216071  0.23501044352669004  0.06136636964848209  1.0000
  C   C22       1.0  0.5859970838336466  0.007233466375950602  0.2082214928391295  1.0000
  C   C23       1.0  0.06294230906039641  0.0261430171564143  0.2572758444688361  1.0000
  C   C24       1.0  0.5827760288017458  0.1835189727735695  0.04245548370896295  1.0000
  C   C25       1.0  0.19367802591595062  0.30503644829610715  0.06939944509573341  1.0000
  C   C26       1.0  0.09482064610197234  0.30591743993042536  0.056397778839766474  1.0000
  C   C27       1.0  0.4361668120403053  0.3153705423040378  0.05769701736024761  1.0000
  C   C28       1.0  0.4673882952570594  0.2361001146369475  0.03926661811860302  1.0000
  C   C29       1.0  0.3981071410082747  0.8052941759857148  0.06889324305229391  1.0000
  C   C30       1.0  0.4306383595399692  0.7259649584250456  0.050138430156856414  1.0000
  C   C31       1.0  0.6800228218601136  0.7360675577100724  0.02330699110410706  1.0000
  C   C32       1.0  0.788539495210735  0.7334428878960751  0.019803195865179604  1.0000
  C   C33       1.0  0.4345814471277337  0.5590184408850687  0.055723732397758886  1.0000
  C   C34       1.0  0.435916497782813  0.4819382182523668  0.04587389949056589  1.0000
  C   C35       1.0  0.19982759279211143  0.0347303355845909  0.3279728003643  1.0000
  C   C36       1.0  0.10667267931161464  0.015274115445926396  0.326318204398703  1.0000
  C   C37       1.0  0.46990976493469117  0.006200930026445001  0.2608300581291161  1.0000
  C   C38       1.0  0.44012042716038025  0.024735938309710503  0.3398865390403003  1.0000
  C   C39       1.0  0.3906124740855148  0.0518451284520722  0.8319953469308246  1.0000
  C   C40       1.0  0.4231428402102467  0.025457369035940806  0.7550588618168489  1.0000
  C   C41       1.0  0.6709918425280748  0.002736337461257697  0.7659723918618724  1.0000
  C   C42       1.0  0.7771473080084449  0.0047090874208351  0.7634282474433289  1.0000
  C   C43       1.0  0.43193683598816085  0.021158747846577296  0.5870874228624956  1.0000
  C   C44       1.0  0.43491063413596726  0.020382535105653694  0.5084321035726092  1.0000
  N   N1        1.0  0.5266648387116035  0.0156634140921668  0.6922447449758522  1.0000
  N   N2        1.0  0.33989830747903227  0.027591187537304104  0.4030892973862095  1.0000
  N   N3        1.0  0.5336878301883632  0.6629509383771788  0.04164886453170875  1.0000
  N   N4        1.0  0.3361533658143187  0.37885664573486383  0.059433943699900675  1.0000
  O   O1        1.0  0.9220739575077773  0.0014898753485183985  0.8171369180863407  1.0000
  O   O2        1.0  0.7518580497612461  0.9900350673301974  0.9039022692451083  1.0000
  O   O3        1.0  0.21083199167453165  0.8216440017629907  0.05998433382148953  1.0000
  O   O4        1.0  0.25713416577133336  0.9325199512699597  0.07771050991123467  1.0000
  O   O5        1.0  0.9289795668715115  0.7902951355571729  0.021165538176788373  1.0000
  O   O6        1.0  0.7527298457967152  0.8756271659714018  0.018346086713272255  1.0000
  O   O7        1.0  0.19671330978374613  0.05571624089957789  0.8523841772926345  1.0000
  O   O8        1.0  0.2594288654504666  0.0486826422650424  0.9609187400127368  1.0000
  O   O9        1.0  0.14588856695316837  0.9331249588344193  0.8078388494847032  1.0000
  O   O10       1.0  0.023118931058697025  0.11671656189569996  0.7978069881809089  1.0000
  O   O11       1.0  0.1433267502762732  0.7686478227460255  0.9521474798565848  1.0000
  O   O12       1.0  0.0074921665032548655  0.7946307454041274  0.1504181551879142  1.0000
  O   O13       1.0  0.9378303632890453  0.9460800632457091  0.9743452651456292  1.0000
  O   O14       1.0  0.13919958692594056  0.94083160168924  0.9669023581825369  1.0000
  O   O15       1.0  0.955188217473001  0.2501084634831585  0.05298357010966726  1.0000
  O   O16       1.0  0.12134917574017828  0.1651252312035467  0.0725711195986491  1.0000
  O   O17       1.0  0.6550850400230745  0.0179637496125054  0.24174985079586958  1.0000
  O   O18       1.0  0.6085518049648115  0.996056268649859  0.13239078030117213  1.0000
  O   O19       1.0  0.9673351092896993  0.011429984753831897  0.2707251664268071  1.0000
  O   O20       1.0  0.12014175422668673  0.0493646370331149  0.18974898284839264  1.0000
  O   O21       1.0  0.6457646892192345  0.2146725426823366  0.06465416646819476  1.0000
  O   O22       1.0  0.6118054675587247  0.1095402929925697  0.02005466190190928  1.0000
  O   O23       1.0  0.7371980000713877  0.27277392851502913  0.14728360004472302  1.0000
  O   O24       1.0  0.8226615196186701  0.2572357512693983  0.9607514705261335  1.0000
  O   O25       1.0  0.7522307136131446  0.1111776816088295  0.287924257091305  1.0000
  O   O26       1.0  0.8742706141368545  0.902757787013485  0.2667428390239904  1.0000
  O   O27       1.0  0.9238388755866042  0.1201901931909077  0.14618666105059921  1.0000
  O   O28       1.0  0.7859495465302686  0.07473618904139563  0.10052483302313683  1.0000
  O   O29       1.0  0.012739609320505019  0.09108583721153708  0.9919883450182994  1.0000
  O   O30       1.0  0.8354015192311977  0.925071972872047  0.12261255613648808  1.0000
  O   O31       1.0  0.8408712224573593  0.09757578144263587  0.9484092443336535  1.0000
  O   O32       1.0  0.010977932695745186  0.9666677654214197  0.1163371885003102  1.0000
