data_image0
_chemical_formula_structural       Zn8H16C24N24O16
_chemical_formula_sum              "Zn8 H16 C24 N24 O16"
_cell_length_a       7.670540829002982
_cell_length_b       9.749647486008126
_cell_length_c       13.492233155016445
_cell_angle_alpha    89.99985221597753
_cell_angle_beta     90.00010105955838
_cell_angle_gamma    89.99999957616969

_space_group_name_H-M_alt    "P 1"
_space_group_IT_number       1

loop_
  _space_group_symop_operation_xyz
  'x, y, z'

loop_
  _atom_site_type_symbol
  _atom_site_label
  _atom_site_symmetry_multiplicity
  _atom_site_fract_x
  _atom_site_fract_y
  _atom_site_fract_z
  _atom_site_occupancy
  Zn  Zn1       1.0  0.5749086115687517  0.9418648193513588  0.0008406342170487998  1.0000
  Zn  Zn2       1.0  0.42508944698045076  0.058134541011035885  0.5008416372226916  1.0000
  Zn  Zn3       1.0  0.9250912227926663  0.4418631508291141  0.0008405350345057997  1.0000
  Zn  Zn4       1.0  0.07491205051154991  0.5581351838564784  0.5008409952416526  1.0000
  Zn  Zn5       1.0  0.9869419683817497  0.7445189469908939  0.730099101480327  1.0000
  Zn  Zn6       1.0  0.0130581053149115  0.2554806215898181  0.23010029821689665  1.0000
  Zn  Zn7       1.0  0.5130588271505941  0.24451728100241607  0.7301000715680174  1.0000
  Zn  Zn8       1.0  0.4869412465472251  0.7554812618988649  0.23010006929731464  1.0000
  H   H1        1.0  0.2624848282512815  0.17863098343255499  0.050257768226117584  1.0000
  H   H2        1.0  0.7375146873426388  0.8213702520816498  0.5502584015510548  1.0000
  H   H3        1.0  0.23751657356426387  0.6786295739208157  0.05025728925851069  1.0000
  H   H4        1.0  0.7624816383406382  0.32136858455906736  0.5502588805208788  1.0000
  H   H5        1.0  0.35639061267487193  0.6075283434960922  0.7365359499163232  1.0000
  H   H6        1.0  0.643606873616335  0.39247120213626363  0.23653529968058956  1.0000
  H   H7        1.0  0.14361031212109762  0.10753077941903648  0.7365355685440347  1.0000
  H   H8        1.0  0.8563923889262526  0.8924708175695167  0.2365356810535743  1.0000
  H   H9        1.0  0.16702874001879306  0.9358968345188571  0.9075576451140817  1.0000
  H   H10       1.0  0.8329718843847476  0.0641021013042504  0.40755853855800683  1.0000
  H   H11       1.0  0.33297531997639146  0.4358982435980038  0.9075574535801036  1.0000
  H   H12       1.0  0.6670266081150301  0.5641017179045349  0.40755798892453027  1.0000
  H   H13       1.0  0.19682494611553378  0.970403743445772  0.32081487674641096  1.0000
  H   H14       1.0  0.8031767127866233  0.029597553031088405  0.8208148296959761  1.0000
  H   H15       1.0  0.30317468535598385  0.47040310135213287  0.3208146553413583  1.0000
  H   H16       1.0  0.6968230624802202  0.529595118089091  0.8208157922690872  1.0000
  C   C1        1.0  0.2765856227903356  0.10564875000629571  0.11056290857195705  1.0000
  C   C2        1.0  0.7234140799483839  0.8943512448019886  0.6105633915907729  1.0000
  C   C3        1.0  0.223413359441416  0.6056493919349392  0.11056389779944448  1.0000
  C   C4        1.0  0.7765837359226851  0.39434855151317544  0.6105646258653437  1.0000
  C   C5        1.0  0.3495137364661787  0.6902276474655052  0.7905669545825444  1.0000
  C   C6        1.0  0.65048391749977  0.30977067983185685  0.29056646554364807  1.0000
  C   C7        1.0  0.15048865895904842  0.1902290576693275  0.7905658389388888  1.0000
  C   C8        1.0  0.8495142097607555  0.8097692696306638  0.29056609885562057  1.0000
  C   C9        1.0  0.2517437094248223  0.8577945788405968  0.8763864935954186  1.0000
  C   C10       1.0  0.7482555145546925  0.14220446813020968  0.3763864152201107  1.0000
  C   C11       1.0  0.24825764714991289  0.357795988442561  0.8763854759659606  1.0000
  C   C12       1.0  0.7517454878932739  0.6422030585321962  0.376385209350083  1.0000
  C   C13       1.0  0.8237335037536865  0.7214520519271801  0.9659962394855837  1.0000
  C   C14       1.0  0.1762646946238462  0.2785487268801319  0.46599681563132106  1.0000
  C   C15       1.0  0.6762654166732885  0.221450384924772  0.9660025613593103  1.0000
  C   C16       1.0  0.32373408540708226  0.7785503938666807  0.4659993877640502  1.0000
  C   C17       1.0  0.7150031242659977  0.6744837692034763  0.05717336314730659  1.0000
  C   C18       1.0  0.2849977164754235  0.32551641597702025  0.5571722444907932  1.0000
  C   C19       1.0  0.7849981909766157  0.17448620425077618  0.05717608818515168  1.0000
  C   C20       1.0  0.21500004239132406  0.8255160322806672  0.5571724841183253  1.0000
  C   C21       1.0  0.2430797250587844  0.0006385539585594  0.2483437394994182  1.0000
  C   C22       1.0  0.756920405253979  0.9993619752488381  0.7483433190110416  1.0000
  C   C23       1.0  0.2569196856782483  0.500637144326042  0.24834402115163096  1.0000
  C   C24       1.0  0.7430791409466407  0.4993592821675961  0.7483437785291469  1.0000
  N   N1        1.0  0.4801838830179149  0.7276883844648053  0.8490050502740443  1.0000
  N   N2        1.0  0.5198165596781762  0.2723128114948565  0.3490052412986201  1.0000
  N   N3        1.0  0.019816086043334704  0.22769492386885298  0.8490008389586092  1.0000
  N   N4        1.0  0.9801843566435339  0.7723114004919225  0.3490035232720671  1.0000
  N   N5        1.0  0.3857461110604278  0.00011570652951319998  0.10876499023445517  1.0000
  N   N6        1.0  0.6142548897885263  0.9998842946887763  0.6087659080823398  1.0000
  N   N7        1.0  0.1142528665260798  0.5001173748095623  0.10876512886014919  1.0000
  N   N8        1.0  0.8857481343251762  0.4998816007279813  0.608767251791903  1.0000
  N   N9        1.0  0.20350840843138937  0.7680345377401847  0.8050773792810728  1.0000
  N   N10       1.0  0.7964892905640825  0.23196373781863847  0.30507644061903233  1.0000
  N   N11       1.0  0.29649403133567637  0.26803389568767944  0.8050771511772364  1.0000
  N   N12       1.0  0.7035075787257697  0.7319633541943417  0.30507592755863994  1.0000
  N   N13       1.0  0.36435792245880805  0.9328713234767176  0.19763968584496888  1.0000
  N   N14       1.0  0.6356446578822813  0.0671283608461124  0.697639400815717  1.0000
  N   N15       1.0  0.1356413270954349  0.43287170809249187  0.19763929648650694  1.0000
  N   N16       1.0  0.8643586458675897  0.5671259248741194  0.6976397901747899  1.0000
  N   N17       1.0  0.4167725324369941  0.8362019542211312  0.9036207834016349  1.0000
  N   N18       1.0  0.5832293834399352  0.16379802131575616  0.4036227227986016  1.0000
  N   N19       1.0  0.0832263014635757  0.3362064418772945  0.9036173768247477  1.0000
  N   N20       1.0  0.916773007027217  0.6637955850250705  0.403620941202213  1.0000
  N   N21       1.0  0.18497552770387668  0.11003131924584857  0.19671983396178655  1.0000
  N   N22       1.0  0.8150257460937951  0.8899693940347502  0.6967196758299959  1.0000
  N   N23       1.0  0.315026329238158  0.6100299092543294  0.19672091503199593  1.0000
  N   N24       1.0  0.684968426117777  0.3899677269879972  0.6967208182608429  1.0000
  O   O1        1.0  0.8110159738532162  0.8444021874437907  0.9384239592478846  1.0000
  O   O2        1.0  0.1889808352671025  0.1556007410368565  0.4384225540409331  1.0000
  O   O3        1.0  0.6889828599095438  0.3443953919831201  0.9384243645385124  1.0000
  O   O4        1.0  0.31101786027905826  0.6556034337837601  0.4384228899232453  1.0000
  O   O5        1.0  0.7341165616611534  0.5558753186597798  0.09060382769732199  1.0000
  O   O6        1.0  0.26588568651833805  0.44412474731394275  0.5906054332476243  1.0000
  O   O7        1.0  0.7658874657557887  0.055877753824731285  0.0906065335752544  1.0000
  O   O8        1.0  0.2341160861173393  0.9441243634999238  0.5906056920370302  1.0000
  O   O9        1.0  0.6114433361257882  0.7657495704651254  0.09245574712286948  1.0000
  O   O10       1.0  0.38855631042005706  0.23424843755210384  0.5924556437389298  1.0000
  O   O11       1.0  0.8885554804182477  0.2657530305570077  0.09245635247602019  1.0000
  O   O12       1.0  0.1114428624385368  0.7342480544945573  0.5924550383822547  1.0000
  O   O13       1.0  0.9202781341528947  0.6305072960036708  0.9261882850738272  1.0000
  O   O14       1.0  0.07972124437487339  0.36949567610489703  0.4261871124115401  1.0000
  O   O15       1.0  0.5797232709152738  0.1305025525691761  0.926190063162515  1.0000
  O   O16       1.0  0.42027871499747954  0.8694983681752431  0.42618978132897195  1.0000
