data_image0
_chemical_formula_structural       Ho4H56C60O28
_chemical_formula_sum              "Ho4 H56 C60 O28"
_cell_length_a       7.510435040360186
_cell_length_b       15.341047420532462
_cell_length_c       15.4006
_cell_angle_alpha    62.494296125029535
_cell_angle_beta     86.98901311166298
_cell_angle_gamma    87.02670453169277

_space_group_name_H-M_alt    "P 1"
_space_group_IT_number       1

loop_
  _space_group_symop_operation_xyz
  'x, y, z'

loop_
  _atom_site_type_symbol
  _atom_site_label
  _atom_site_symmetry_multiplicity
  _atom_site_fract_x
  _atom_site_fract_y
  _atom_site_fract_z
  _atom_site_occupancy
  Ho  Ho1       1.0  0.033680636381674796  0.28175510473647586  0.3577984278762188  1.0000
  Ho  Ho2       1.0  0.4661708546881655  0.6422552014662555  0.7179412367655261  1.0000
  Ho  Ho3       1.0  0.9663206853690268  0.7182451187135397  0.6422029938480592  1.0000
  Ho  Ho4       1.0  0.533830425478385  0.35774575725858426  0.2820585491093227  1.0000
  H   H1        1.0  0.1703010773304499  0.1336023756737035  0.5480354290607752  1.0000
  H   H2        1.0  0.32905028336169545  0.45130359575126267  0.8657672032448148  1.0000
  H   H3        1.0  0.8296991190195443  0.8663941714022199  0.4519644661848831  1.0000
  H   H4        1.0  0.6709563716748831  0.5486966276987529  0.13423278321053542  1.0000
  H   H5        1.0  0.3439132226853445  0.1673794302993485  0.4748880703870099  1.0000
  H   H6        1.0  0.15584963245868974  0.5249207811583145  0.8320916338974771  1.0000
  H   H7        1.0  0.6560854324224222  0.8326207931506671  0.5251127703210232  1.0000
  H   H8        1.0  0.844149230569833  0.4750757659176087  0.16790764617739032  1.0000
  H   H9        1.0  0.428423317887315  0.1786923686612809  0.16728431207278766  1.0000
  H   H10       1.0  0.0714437970872339  0.8329538726435786  0.8216313199131235  1.0000
  H   H11       1.0  0.5715739207306783  0.8213093253383759  0.8327152390670138  1.0000
  H   H12       1.0  0.9285575246634679  0.1670463508064373  0.17836945248579641  1.0000
  H   H13       1.0  0.5063087588659556  0.10642000089779907  0.2850841437990326  1.0000
  H   H14       1.0  0.9942645203985023  0.7145187459319047  0.8937345982984369  1.0000
  H   H15       1.0  0.4936897714893576  0.8935824283766747  0.7149163346381968  1.0000
  H   H16       1.0  0.0057382178419729014  0.28548000696847  0.10626421704196082  1.0000
  H   H17       1.0  0.25345907211293184  0.11332643727070747  0.08875008427678921  1.0000
  H   H18       1.0  0.24715831720568807  0.9120238561067848  0.8862401133224298  1.0000
  H   H19       1.0  0.7465368331835975  0.8866752567289495  0.9112495010175721  1.0000
  H   H20       1.0  0.7528404626545324  0.0879741615187726  0.1137630376324594  1.0000
  H   H21       1.0  0.10182021686289032  0.972648735465789  0.08801377363025155  1.0000
  H   H22       1.0  0.3981242503880082  0.9133804381474562  0.02621594982422686  1.0000
  H   H23       1.0  0.8981758131860857  0.027350752709409693  0.911988121910966  1.0000
  H   H24       1.0  0.6018733209031951  0.0866153736536504  0.9737895455320641  1.0000
  H   H25       1.0  0.07665583526735281  0.8154359500858701  0.24260254165268688  1.0000
  H   H26       1.0  0.4224921483218934  0.7585124441646656  0.18327191556434738  1.0000
  H   H27       1.0  0.9233401947816234  0.1845635380893285  0.7574013018645759  1.0000
  H   H28       1.0  0.5775055477217634  0.24148116181198276  0.8167306954360001  1.0000
  H   H29       1.0  0.19045542002279345  0.8006436912814221  0.39506021728644225  1.0000
  H   H30       1.0  0.3086663853557495  0.6053694049067531  0.19836955116321067  1.0000
  H   H31       1.0  0.8095444436539834  0.1993587379930517  0.6049428242976376  1.0000
  H   H32       1.0  0.6913311859354534  0.39462640689435347  0.801630100264923  1.0000
  H   H33       1.0  0.292907535606254  0.0023903784358906993  0.4363330536570942  1.0000
  H   H34       1.0  0.20798725090032377  0.5625808221019993  0.9982006021172654  1.0000
  H   H35       1.0  0.7071001616627297  0.9976149919378584  0.5636664862287335  1.0000
  H   H36       1.0  0.7920115289598967  0.4374171955235653  0.0017986528855117704  1.0000
  H   H37       1.0  0.5024910810183056  0.9556080062654784  0.4155151933357575  1.0000
  H   H38       1.0  0.9980559480012585  0.5836383576373692  0.04440989226723251  1.0000
  H   H39       1.0  0.4975063239362996  0.044390746634903194  0.5844844079482101  1.0000
  H   H40       1.0  0.0019442483487282023  0.4163581894385543  0.9555887043277239  1.0000
  H   H41       1.0  0.3674175486919822  0.44032447215706577  0.5077910030791486  1.0000
  H   H42       1.0  0.1323262610963027  0.4924973674740585  0.5595127707558094  1.0000
  H   H43       1.0  0.6325889400079916  0.5596786923922252  0.4922069852559758  1.0000
  H   H44       1.0  0.867682935830757  0.5075050618004155  0.4404848371435719  1.0000
  H   H45       1.0  0.48624679445003954  0.33301625927816747  0.5241765158895363  1.0000
  H   H46       1.0  0.012927783809253404  0.47610441538910203  0.666311094117802  1.0000
  H   H47       1.0  0.5137611107397079  0.6669854347214892  0.47582276201382007  1.0000
  H   H48       1.0  0.9870787880590227  0.5238972786105549  0.33368691928941274  1.0000
  H   H49       1.0  0.42314891642409685  0.1724410621519112  0.6611158294600799  1.0000
  H   H50       1.0  0.0764955399276985  0.33912639302232606  0.8265762816459629  1.0000
  H   H51       1.0  0.5768523637424535  0.8275598965729214  0.33888200843872346  1.0000
  H   H52       1.0  0.923503073595917  0.6608745657025138  0.1734203259112448  1.0000
  H   H53       1.0  0.3382995237347401  0.07862587747266048  0.8363758728874446  1.0000
  H   H54       1.0  0.16295085931720615  0.1635126200273262  0.9207231006272425  1.0000
  H   H55       1.0  0.6616991313730268  0.9213743459773623  0.1636217211938345  1.0000
  H   H56       1.0  0.8370477126222511  0.8364890739723305  0.07927252040590106  1.0000
  C   C1        1.0  0.25718620962589966  0.17937543896793778  0.28074314670809747  1.0000
  C   C2        1.0  0.2430312972290807  0.7194443519429896  0.8203995520987492  1.0000
  C   C3        1.0  0.7428124038977159  0.8206255197569021  0.7192573568012222  1.0000
  C   C4        1.0  0.7569727743328585  0.280554400957385  0.17960247571384264  1.0000
  C   C5        1.0  0.3853488556344118  0.12525038900705  0.24159977945129904  1.0000
  C   C6        1.0  0.11501624880971656  0.758417593713041  0.8747185146313685  1.0000
  C   C7        1.0  0.6146483413994304  0.8747520402674239  0.7583994344897819  1.0000
  C   C8        1.0  0.8849864894307587  0.24158115918734063  0.12528030070902932  1.0000
  C   C9        1.0  0.3057890031942846  0.0370652036152848  0.2425889737690028  1.0000
  C   C10       1.0  0.19469728273909936  0.7576087914123661  0.9624966484597126  1.0000
  C   C11       1.0  0.6942069021022447  0.962936490384372  0.7574119101760531  1.0000
  C   C12       1.0  0.8053002053838014  0.24238849093837433  0.037506224523099305  1.0000
  C   C13       1.0  0.2392398267661306  0.0443576592680586  0.15613366786309515  1.0000
  C   C14       1.0  0.2611506927010722  0.8445190102683496  0.9550592482888193  1.0000
  C   C15       1.0  0.7607587867574779  0.9556432994567814  0.8438668356462175  1.0000
  C   C16       1.0  0.7388467538376771  0.15547900735720785  0.044943936820622844  1.0000
  C   C17       1.0  0.1548473153691177  0.9658195029488537  0.15551219144032308  1.0000
  C   C18       1.0  0.3451434721939179  0.8455057490751726  0.03322785255714683  1.0000
  C   C19       1.0  0.8451500064171781  0.03418072050116189  0.8444899820729719  1.0000
  C   C20       1.0  0.6548583069824474  0.15448638635184148  0.9667785770037157  1.0000
  C   C21       1.0  0.1400052551984103  0.8779460740802563  0.24192856117865355  1.0000
  C   C22       1.0  0.3596033440105018  0.7589844905983296  0.1209837843620961  1.0000
  C   C23       1.0  0.8599906916822632  0.1220548846445837  0.7580752572665261  1.0000
  C   C24       1.0  0.6403917269743715  0.24100838010350148  0.8790198814714217  1.0000
  C   C25       1.0  0.2065129466748417  0.8696661443458422  0.32833664042269123  1.0000
  C   C26       1.0  0.29310790203828657  0.6721573577968698  0.12942490594309664  1.0000
  C   C27       1.0  0.7934828754533783  0.13033702020344856  0.6716661664263343  1.0000
  C   C28       1.0  0.7068871273624352  0.3278362481797784  0.8705771240410061  1.0000
  C   C29       1.0  0.2881013518766337  0.948788332321186  0.3302747103948604  1.0000
  C   C30       1.0  0.21205682046809218  0.6698199191479259  0.050675758093838515  1.0000
  C   C31       1.0  0.7118971368945209  0.05121483222810499  0.6697260801690064  1.0000
  C   C32       1.0  0.7879420009762795  0.3301773632028144  0.94932448343301  1.0000
  C   C33       1.0  0.35824879058657894  0.9430112780699387  0.4235299954088562  1.0000
  C   C34       1.0  0.14223961354728232  0.5758812082991156  0.056999846633438295  1.0000
  C   C35       1.0  0.6417497813528783  0.0569904159297181  0.5764695215763923  1.0000
  C   C36       1.0  0.8577590831446358  0.4241182798760831  0.9429974353212034  1.0000
  C   C37       1.0  0.3181509829543501  0.8483005286613972  0.5147472387063985  1.0000
  C   C38       1.0  0.1820832669434083  0.4849512420088046  0.15191601666482776  1.0000
  C   C39       1.0  0.6818447560055674  0.15170410643753474  0.4852529457691405  1.0000
  C   C40       1.0  0.8179140964270389  0.515048246166394  0.8480806501190161  1.0000
  C   C41       1.0  0.2273371027528555  0.3468548666426442  0.4695347173779397  1.0000
  C   C42       1.0  0.27220029998008494  0.5304662238416354  0.6529803908959907  1.0000
  C   C43       1.0  0.7726680110414959  0.6531490331814709  0.5304636172383752  1.0000
  C   C44       1.0  0.7278063134723424  0.4695347348831972  0.34701990768599  1.0000
  C   C45       1.0  0.3538201453350211  0.3606670041136439  0.5359179805907106  1.0000
  C   C46       1.0  0.1454107328987178  0.4641966396987697  0.6388915309644504  1.0000
  C   C47       1.0  0.6461837598903131  0.6393346898860128  0.46408139977631196  1.0000
  C   C48       1.0  0.8545957973854001  0.5358057895757041  0.3611061452440438  1.0000
  C   C49       1.0  0.2984616857788254  0.3092543829592812  0.6430041163380197  1.0000
  C   C50       1.0  0.2005164883459969  0.35674798932948437  0.6902324468206942  1.0000
  C   C51       1.0  0.7015449692577461  0.6907458404907345  0.35699327281592735  1.0000
  C   C52       1.0  0.7994901251064306  0.6432529693953553  0.3097646051345323  1.0000
  C   C53       1.0  0.345164125588738  0.209126863960698  0.6972335217310788  1.0000
  C   C54       1.0  0.1544519856696667  0.3027060254231202  0.7901664296163133  1.0000
  C   C55       1.0  0.6548357796721972  0.7908748300389588  0.30276336379821345  1.0000
  C   C56       1.0  0.8455465862697975  0.6972956685765297  0.20983049006753163  1.0000
  C   C57       1.0  0.2982390366651515  0.15610913787691763  0.7963378431005879  1.0000
  C   C58       1.0  0.20221001170330766  0.2034343663136156  0.8433633912497102  1.0000
  C   C59       1.0  0.7017582435369931  0.8438918208479222  0.20365814928582185  1.0000
  C   C60       1.0  0.797787268498837  0.7965665924112244  0.1566332504620505  1.0000
  O   O1        1.0  0.3097072147805804  0.2570770759933723  0.28386960525878635  1.0000
  O   O2        1.0  0.1905677112912016  0.7167341289609225  0.7427687579977801  1.0000
  O   O3        1.0  0.690288732100093  0.7429238827314606  0.7161329145356987  1.0000
  O   O4        1.0  0.8094362771024348  0.2832660944890932  0.2572332447427287  1.0000
  O   O5        1.0  0.10086384402885777  0.1517173413842698  0.3097594924803246  1.0000
  O   O6        1.0  0.3992108816774689  0.6901230627192232  0.8479283289832297  1.0000
  O   O7        1.0  0.8991278949666537  0.8482872937146553  0.6902355998560807  1.0000
  O   O8        1.0  0.6007906064098378  0.3098742196315242  0.15207379221055828  1.0000
  O   O9        1.0  0.15571535194844444  0.8293414674588531  0.5365709098787051  1.0000
  O   O10       1.0  0.3444018187254585  0.46328563419828567  0.17107350771406976  1.0000
  O   O11       1.0  0.8442790121058578  0.170663902914896  0.46343156885408376  1.0000
  O   O12       1.0  0.6555967947981498  0.536715324526547  0.828926346469892  1.0000
  O   O13       1.0  0.4483451135524774  0.7934534388284575  0.5647110665240477  1.0000
  O   O14       1.0  0.051726615210149894  0.4351687251276957  0.2068962407570112  1.0000
  O   O15       1.0  0.5516495415908835  0.20654678462155823  0.435287928671599  1.0000
  O   O16       1.0  0.948272247818366  0.5648278219482207  0.7931017406671543  1.0000
  O   O17       1.0  0.07061164676873229  0.31835561466628076  0.4974399799322384  1.0000
  O   O18       1.0  0.428751170351731  0.5022419646475029  0.6814637410076332  1.0000
  O   O19       1.0  0.9293948835153926  0.6816468146081929  0.5025622415537115  1.0000
  O   O20       1.0  0.5712541929475279  0.4977575235276959  0.3185392141023868  1.0000
  O   O21       1.0  0.2847359075778186  0.362733126354449  0.3828268934873833  1.0000
  O   O22       1.0  0.21517619414327532  0.6174698225996096  0.6373875144123248  1.0000
  O   O23       1.0  0.7152664148211371  0.6372729792941172  0.6171698485165393  1.0000
  O   O24       1.0  0.784825086023275  0.38253113612523026  0.36261097281182236  1.0000
  O   O25       1.0  0.2150809798042062  0.1497225408008873  0.482101749852049  1.0000
  O   O26       1.0  0.2846918295248457  0.5175533274740188  0.8496383596110136  1.0000
  O   O27       1.0  0.7849205498672517  0.8502740062750362  0.5178987605644068  1.0000
  O   O28       1.0  0.7153081589043848  0.48244689597599677  0.15035984964105614  1.0000
