data_image0
_chemical_formula_structural       Cd2H60C68N4O12
_chemical_formula_sum              "Cd2 H60 C68 N4 O12"
_cell_length_a       9.534936119702657
_cell_length_b       11.472257887051738
_cell_length_c       14.89189462087262
_cell_angle_alpha    89.99823616651044
_cell_angle_beta     90.0010987386468
_cell_angle_gamma    112.76564821168097

_space_group_name_H-M_alt    "P 1"
_space_group_IT_number       1

loop_
  _space_group_symop_operation_xyz
  'x, y, z'

loop_
  _atom_site_type_symbol
  _atom_site_label
  _atom_site_symmetry_multiplicity
  _atom_site_fract_x
  _atom_site_fract_y
  _atom_site_fract_z
  _atom_site_occupancy
  Cd  Cd1       1.0  0.49999037322413636  0.9999926068305739  0.9999950009656831  1.0000
  Cd  Cd2       1.0  3.268018311144329e-06  0.9999936510795208  0.5000024389055184  1.0000
  H   H1        1.0  0.6168938087946926  0.25192616323660394  0.8886372978798961  1.0000
  H   H2        1.0  0.8831171483942768  0.7480626140340263  0.3886275333680659  1.0000
  H   H3        1.0  0.3831029716228755  0.7480707679375697  0.1113662006837828  1.0000
  H   H4        1.0  0.11691027532061328  0.25192793250088397  0.6113605208195098  1.0000
  H   H5        1.0  0.8003145290410103  0.15939404209366606  0.1168975764314624  1.0000
  H   H6        1.0  0.699680002231368  0.8405921602673273  0.6168783161593083  1.0000
  H   H7        1.0  0.19966147277256857  0.8405895535661971  0.8831059221602615  1.0000
  H   H8        1.0  0.3003170418761272  0.15939158076464113  0.3831070518940436  1.0000
  H   H9        1.0  0.009689039550629285  0.36919607190842635  0.1218982428063029  1.0000
  H   H10       1.0  0.4903238162961968  0.6307758621055582  0.621880870800567  1.0000
  H   H11       1.0  0.990292354822891  0.6307809646222039  0.8781139854777893  1.0000
  H   H12       1.0  0.5096950980184545  0.3691891834828737  0.3781085266482904  1.0000
  H   H13       1.0  0.8214880351132123  0.4627490582351185  0.8804390034050726  1.0000
  H   H14       1.0  0.6785274026296692  0.5372362759922851  0.3804296603153361  1.0000
  H   H15       1.0  0.17851184559578573  0.5372431827302933  0.1195671812584393  1.0000
  H   H16       1.0  0.3214972967171121  0.46275519427518935  0.6195469782383756  1.0000
  H   H17       1.0  0.0418859580363389  0.1132860562031865  0.014012583627284402  1.0000
  H   H18       1.0  0.45812428719121095  0.8867443996823922  0.5139927756807339  1.0000
  H   H19       1.0  0.9581155355983523  0.8867533113700785  0.9859835278947388  1.0000
  H   H20       1.0  0.5418658242834411  0.11324023545756753  0.48601542353048194  1.0000
  H   H21       1.0  0.20132081242390845  0.25204617180322225  0.035390009179622  1.0000
  H   H22       1.0  0.2987211552331531  0.7479743095453416  0.5353768671149481  1.0000
  H   H23       1.0  0.7987154967507165  0.7479661088159019  0.9646094604119853  1.0000
  H   H24       1.0  0.701278857386768  0.2520113361619636  0.4646306606399691  1.0000
  H   H25       1.0  0.8916273826647085  0.0799296569571695  0.8833549552753013  1.0000
  H   H26       1.0  0.60839830994977  0.9201008737028289  0.3833410390302063  1.0000
  H   H27       1.0  0.10839421345345819  0.920119272184735  0.1166445137902841  1.0000
  H   H28       1.0  0.3915939618654392  0.0798884878230339  0.6166691746572255  1.0000
  H   H29       1.0  0.8098610166553044  0.16759375023554668  0.7493644104685657  1.0000
  H   H30       1.0  0.690154768467778  0.8324236346394258  0.24935292157108085  1.0000
  H   H31       1.0  0.19018353809344987  0.8324572218583339  0.2506303581727352  1.0000
  H   H32       1.0  0.3098329188444636  0.16756946463084432  0.750650576981137  1.0000
  H   H33       1.0  0.96828281602005  0.3804126046957776  0.6930463388530725  1.0000
  H   H34       1.0  0.5317279347919524  0.619597350587064  0.1930580556078567  1.0000
  H   H35       1.0  0.03177443996822406  0.6196271473348105  0.3069450724693681  1.0000
  H   H36       1.0  0.4682561640976672  0.3803947816297678  0.8069461144396045  1.0000
  H   H37       1.0  0.3610822312338229  0.41414606681487953  0.977789659561374  1.0000
  H   H38       1.0  0.13892402736853174  0.5858874445822978  0.4777746405322106  1.0000
  H   H39       1.0  0.6389348760616611  0.5858792734650534  0.022224582892569296  1.0000
  H   H40       1.0  0.861054134781341  0.41410087747552626  0.522230201029501  1.0000
  H   H41       1.0  0.5069146808538676  0.6311995197301316  0.9236162499917313  1.0000
  H   H42       1.0  0.9930981447454101  0.3688370101921947  0.42361751525756125  1.0000
  H   H43       1.0  0.49312910537170745  0.3688222353936155  0.0763885915842337  1.0000
  H   H44       1.0  0.006892698885600516  0.6311561109556789  0.5763792682518344  1.0000
  H   H45       1.0  0.4262438950416082  0.7125181727667494  0.7876233556105346  1.0000
  H   H46       1.0  0.07377489091469158  0.28750437040037014  0.2876414499060687  1.0000
  H   H47       1.0  0.5738253103437857  0.2875178921408832  0.21238282896731422  1.0000
  H   H48       1.0  0.9262155206720452  0.7124878054027589  0.7123586911429669  1.0000
  H   H49       1.0  0.1905975188152382  0.576595953020373  0.70643301720051  1.0000
  H   H50       1.0  0.30942829884961753  0.42341731301418417  0.2064575532322621  1.0000
  H   H51       1.0  0.8094751991219553  0.42345238624896087  0.293563766166713  1.0000
  H   H52       1.0  0.6905669413375931  0.5765739535851465  0.7935526604511622  1.0000
  H   H53       1.0  0.47793188615048615  0.9522004826636206  0.20967960286730403  1.0000
  H   H54       1.0  0.022052134899112702  0.0477624364405287  0.7096849594553802  1.0000
  H   H55       1.0  0.5220074232607103  0.04777626418447769  0.7903097939453546  1.0000
  H   H56       1.0  0.977913909682286  0.9522154367345194  0.2903192106481001  1.0000
  H   H57       1.0  0.6305311184348383  0.9728768708483172  0.1548135524402241  1.0000
  H   H58       1.0  0.8694382865213581  0.02709554185778979  0.6548351574784023  1.0000
  H   H59       1.0  0.36940304255648476  0.02710926354897229  0.8451771872415252  1.0000
  H   H60       1.0  0.13052490184483653  0.9728898501269615  0.3451663264932634  1.0000
  C   C1        1.0  0.7070076431629602  0.28132633074570623  0.9389776489635082  1.0000
  C   C2        1.0  0.7929897862792855  0.7186548863591753  0.4389573816398311  1.0000
  C   C3        1.0  0.2929746153331649  0.7186525963778934  0.06103323629113791  1.0000
  C   C4        1.0  0.2070220435842742  0.2813336681709586  0.5610253004240207  1.0000
  C   C5        1.0  0.8087010917979428  0.23015964973384223  0.0662074715340566  1.0000
  C   C6        1.0  0.6913072265236763  0.7698209350892495  0.5661877682686196  1.0000
  C   C7        1.0  0.19129582054331706  0.7698306861460297  0.9337993846396984  1.0000
  C   C8        1.0  0.30870869969037773  0.2301582244946019  0.43380162899440217  1.0000
  C   C9        1.0  0.9269444395013409  0.3481824903513057  0.0677170303942418  1.0000
  C   C10       1.0  0.5730681625472016  0.6518027810838375  0.5677013304231906  1.0000
  C   C11       1.0  0.07304478812636721  0.6518162732525142  0.9322931831628127  1.0000
  C   C12       1.0  0.4269480077005312  0.3481792072215982  0.4322813517455657  1.0000
  C   C13       1.0  0.9372754705211505  0.4370484195509404  0.0007232235442487  1.0000
  C   C14       1.0  0.5627219287076101  0.5629353909980067  0.5007074847812092  1.0000
  C   C15       1.0  0.06270981237004492  0.5629371247445576  0.999277589057492  1.0000
  C   C16       1.0  0.4372969658444034  0.4370456737558328  0.4992765404279709  1.0000
  C   C17       1.0  0.8224543645086158  0.4006331958245113  0.9353615680874724  1.0000
  C   C18       1.0  0.6775520001057556  0.5993425590796589  0.4353527561547281  1.0000
  C   C19       1.0  0.1775203411295649  0.5993475639217679  0.0646452880608805  1.0000
  C   C20       1.0  0.32246578621762717  0.4006337865647324  0.5646279115722734  1.0000
  C   C21       1.0  0.2464690241842149  0.11256285581638538  0.9569241158160225  1.0000
  C   C22       1.0  0.2535149149647539  0.8874392146797023  0.4569215170141092  1.0000
  C   C23       1.0  0.7534923599552954  0.8874300626043877  0.0430538653372068  1.0000
  C   C24       1.0  0.7464648633671586  0.1125434644154595  0.5430980977615719  1.0000
  C   C25       1.0  0.1440350078196317  0.18375144782663003  0.9824116658122719  1.0000
  C   C26       1.0  0.3559850627621728  0.8162706845701635  0.482399275277352  1.0000
  C   C27       1.0  0.8559674257957325  0.8162785030675291  0.017589817876988403  1.0000
  C   C28       1.0  0.6440153258661924  0.1837111944196579  0.5176129530681237  1.0000
  C   C29       1.0  0.09710758682464872  0.24267783056609463  0.9039512152532296  1.0000
  C   C30       1.0  0.402906848772318  0.7573461468212699  0.4039401356407666  1.0000
  C   C31       1.0  0.9029182375251564  0.7573551084558687  0.09605161155931799  1.0000
  C   C32       1.0  0.5970746577494878  0.2426403136166613  0.5960680634950393  1.0000
  C   C33       1.0  0.963418774906522  0.17390738503245018  0.8588893045821706  1.0000
  C   C34       1.0  0.5365903376379817  0.8261182588221128  0.35887201624318277  1.0000
  C   C35       1.0  0.03660349737897657  0.8261453179224246  0.1411141934803268  1.0000
  C   C36       1.0  0.4633877684249867  0.1738653513182484  0.6411328253739796  1.0000
  C   C37       1.0  0.9161430833343684  0.22321225567945638  0.7832090015868689  1.0000
  C   C38       1.0  0.5838693543564872  0.7768048292778289  0.2832008588739185  1.0000
  C   C39       1.0  0.0838957787849281  0.7768377347598302  0.2167918105865425  1.0000
  C   C40       1.0  0.41611085594310987  0.2231787953792406  0.7168033112499972  1.0000
  C   C41       1.0  0.00450613142530904  0.34161388351522964  0.7511992566804511  1.0000
  C   C42       1.0  0.4955023674541721  0.6583976510110361  0.2512037655119812  1.0000
  C   C43       1.0  0.9955370710270941  0.6584295408441251  0.2487934975231028  1.0000
  C   C44       1.0  0.5044854517604876  0.3415888530252573  0.7487997331191707  1.0000
  C   C45       1.0  0.14165107965849444  0.41645785874077756  0.7951029763417878  1.0000
  C   C46       1.0  0.3583569796406109  0.5835568028757548  0.2951068718363175  1.0000
  C   C47       1.0  0.8583800613548929  0.5835798285326204  0.20489582141037488  1.0000
  C   C48       1.0  0.6416363442312089  0.41643256608339385  0.7048932692641685  1.0000
  C   C49       1.0  0.1889456504892379  0.3674649767515206  0.873271877845184  1.0000
  C   C50       1.0  0.31106073131071105  0.63255251159422  0.373269320970806  1.0000
  C   C51       1.0  0.8110801738818482  0.6325679622101248  0.1267343064985056  1.0000
  C   C52       1.0  0.6889291921490894  0.3674340069346442  0.626734849179556  1.0000
  C   C53       1.0  0.32374253754599636  0.4479541338931412  0.9176334832181112  1.0000
  C   C54       1.0  0.1762599902906388  0.5520796338581065  0.4176271183718043  1.0000
  C   C55       1.0  0.6762801865804632  0.5520834951445509  0.0823774015942504  1.0000
  C   C56       1.0  0.8237182279248714  0.44791340017749787  0.5823743656033002  1.0000
  C   C57       1.0  0.40683061984080376  0.5689051429783872  0.887077693692305  1.0000
  C   C58       1.0  0.09317221666272255  0.4311174773322365  0.38708322775051585  1.0000
  C   C59       1.0  0.5932061016878053  0.4311241019457838  0.112924461725882  1.0000
  C   C60       1.0  0.9068068095672075  0.5688727354391929  0.6129135557194516  1.0000
  C   C61       1.0  0.3610442410638158  0.6157938759399997  0.809465505201203  1.0000
  C   C62       1.0  0.13897457766617544  0.38422505374162325  0.3094854811060088  1.0000
  C   C63       1.0  0.6390110987112081  0.3842439781608463  0.1905319496877951  1.0000
  C   C64       1.0  0.8610222225438166  0.6157558581826876  0.6905280902409457  1.0000
  C   C65       1.0  0.23091566201781424  0.5405205322831674  0.7646391849264375  1.0000
  C   C66       1.0  0.26908626244232187  0.459489530439825  0.2646475891249906  1.0000
  C   C67       1.0  0.7691189552911908  0.4595086980760499  0.23536632800990992  1.0000
  C   C68       1.0  0.7308962763989796  0.5405129565244096  0.7353491942215626  1.0000
  N   N1        1.0  0.699947452933749  0.1964473943318481  0.0027303786407842003  1.0000
  N   N2        1.0  0.8000528839854297  0.8035335373476469  0.5027092219249596  1.0000
  N   N3        1.0  0.3000418505350029  0.80354006204815  0.9972838640880325  1.0000
  N   N4        1.0  0.1999498527728107  0.19645118527859037  0.4972734601274382  1.0000
  O   O1        1.0  0.5426608275145952  0.0011981677143211005  0.16130521783649243  1.0000
  O   O2        1.0  0.9573119281461474  0.9987834576289314  0.661309605771976  1.0000
  O   O3        1.0  0.457282990609592  0.998786148468419  0.8386949230143658  1.0000
  O   O4        1.0  0.042659545259880395  0.0012085876686640997  0.3386885206415329  1.0000
  O   O5        1.0  0.34018700169337274  0.10951309897659908  0.017073875407327  1.0000
  O   O6        1.0  0.15980259943338374  0.8904765847232239  0.5170791237820822  1.0000
  O   O7        1.0  0.6597777464700627  0.8904619389725568  0.9828953763977141  1.0000
  O   O8        1.0  0.8401858399893597  0.10950898084664121  0.48294854908831303  1.0000
  O   O9        1.0  0.2275039003187374  0.06025613094503508  0.8803077705334703  1.0000
  O   O10       1.0  0.2724442916897018  0.939743741368957  0.3803041696523053  1.0000
  O   O11       1.0  0.7724277803721976  0.9397337558098898  0.1196702104699838  1.0000
  O   O12       1.0  0.7275226171036664  0.06023602214570898  0.6197127590525469  1.0000
