data_image0
_chemical_formula_structural       H20Pb2C32N4O4F12
_chemical_formula_sum              "H20 Pb2 C32 N4 O4 F12"
_cell_length_a       8.083646948323421
_cell_length_b       10.113810485893657
_cell_length_c       11.239909000835441
_cell_angle_alpha    99.18863978854239
_cell_angle_beta     100.03899107665217
_cell_angle_gamma    108.91952448649992

_space_group_name_H-M_alt    "P 1"
_space_group_IT_number       1

loop_
  _space_group_symop_operation_xyz
  'x, y, z'

loop_
  _atom_site_type_symbol
  _atom_site_label
  _atom_site_symmetry_multiplicity
  _atom_site_fract_x
  _atom_site_fract_y
  _atom_site_fract_z
  _atom_site_occupancy
  H   H1        1.0  0.5752878229152429  0.193872062432952  0.014822822930994973  1.0000
  H   H2        1.0  0.42469727539189966  0.8061299392865777  0.9851794830347345  1.0000
  H   H3        1.0  0.45773623490306653  0.005886824926868401  0.1296217948339304  1.0000
  H   H4        1.0  0.5422659065118295  0.9941195688464504  0.870385921842761  1.0000
  H   H5        1.0  0.40759645379827  0.0838557239133451  0.3404246258401571  1.0000
  H   H6        1.0  0.5924062896360455  0.9161464176984992  0.6595789662957898  1.0000
  H   H7        1.0  0.4626814914130932  0.3426284142921928  0.41954498026690595  1.0000
  H   H8        1.0  0.5373112816398375  0.6573683513539165  0.5804494684176902  1.0000
  H   H9        1.0  0.5568072836387189  0.5812636334872111  0.400528430696383  1.0000
  H   H10       1.0  0.4431817452513656  0.4187416643600486  0.5994677330610401  1.0000
  H   H11       1.0  0.9521927398556758  0.8220512201370624  0.1908591316360031  1.0000
  H   H12       1.0  0.047809521088609586  0.17794986037836935  0.8091424626409491  1.0000
  H   H13       1.0  0.10640059395608857  0.9692848040640527  0.40556416135495976  1.0000
  H   H14       1.0  0.893598509045731  0.030711942142502797  0.5944399545677115  1.0000
  H   H15       1.0  0.2145683959503586  0.8472666013959795  0.5663505446324707  1.0000
  H   H16       1.0  0.7854322713361342  0.1527280215427282  0.43365255342964554  1.0000
  H   H17       1.0  0.173039274975288  0.5897505825893816  0.5008490414506639  1.0000
  H   H18       1.0  0.8269621812405746  0.41024296196341226  0.499155770275685  1.0000
  H   H19       1.0  0.06745420843886049  0.3746824763213397  0.3535104865625697  1.0000
  H   H20       1.0  0.932548621947042  0.6253144324421669  0.646476314719969  1.0000
  Pb  Pb1       1.0  0.7558186766458377  0.5152103151829266  0.023208864777643612  1.0000
  Pb  Pb2       1.0  0.24418262203319333  0.48478863643888565  0.9767896228191405  1.0000
  C   C1        1.0  0.5480887554416114  0.22219258484672372  0.10516760227086051  1.0000
  C   C2        1.0  0.451915565851465  0.7778073999932927  0.8948394171935662  1.0000
  C   C3        1.0  0.4840650897595467  0.11793541903350047  0.1693862023118697  1.0000
  C   C4        1.0  0.5159335764142695  0.8820688067164469  0.8306207640540606  1.0000
  C   C5        1.0  0.45631629020313375  0.1619233876487485  0.2861071612667843  1.0000
  C   C6        1.0  0.5436892862204488  0.8380766201065412  0.7138982354940283  1.0000
  C   C7        1.0  0.48813298126732  0.3059795231867355  0.3305249633639136  1.0000
  C   C8        1.0  0.5118751081320951  0.6940205236983062  0.6694780770274774  1.0000
  C   C9        1.0  0.5504012473641283  0.40730064423146217  0.26002230185100933  1.0000
  C   C10       1.0  0.4495893620995303  0.5927024901431749  0.7399781782726862  1.0000
  C   C11       1.0  0.570400908953289  0.5547332805468841  0.3060215593345106  1.0000
  C   C12       1.0  0.4296016823738285  0.44527425473238935  0.6939774867474853  1.0000
  C   C13       1.0  0.584713915919764  0.6588316675491227  0.2396675617421309  1.0000
  C   C14       1.0  0.4152815488745105  0.3411683311046758  0.7603277016646004  1.0000
  C   C15       1.0  0.5732482811088319  0.8006481643312283  0.3009077792670709  1.0000
  C   C16       1.0  0.42673978551599845  0.1993550046224115  0.6990852778101768  1.0000
  C   C17       1.0  0.0040582054785432515  0.7743706548274929  0.2623834859097727  1.0000
  C   C18       1.0  0.9959408676602878  0.22562616508781028  0.7376108505970224  1.0000
  C   C19       1.0  0.08953635541028138  0.856297129889249  0.38221091577835137  1.0000
  C   C20       1.0  0.9104567458005307  0.14369744266817008  0.6177903610139381  1.0000
  C   C21       1.0  0.1490256657229736  0.7882052636668319  0.4705565885707585  1.0000
  C   C22       1.0  0.8509782898946341  0.21178835351968667  0.5294414215971415  1.0000
  C   C23       1.0  0.12465068531606957  0.6443985182495381  0.4343949577028425  1.0000
  C   C24       1.0  0.8753640024641317  0.3555994635247544  0.5656050192025788  1.0000
  C   C25       1.0  0.038419836074261575  0.5663171047320716  0.3105445473662414  1.0000
  C   C26       1.0  0.961587819211971  0.4336904149955672  0.6894622325062159  1.0000
  C   C27       1.0  0.023856454719833692  0.4183551567667507  0.27655264183563594  1.0000
  C   C28       1.0  0.9761451797716703  0.5816502362173137  0.7234450756417985  1.0000
  C   C29       1.0  0.9749734941096335  0.33137013321378117  0.15966484645597495  1.0000
  C   C30       1.0  0.02504183320756679  0.6686321571412323  0.840333187097535  1.0000
  C   C31       1.0  0.99102380515199  0.18330999560861022  0.14533599792569163  1.0000
  C   C32       1.0  0.008985222079317519  0.8166922404772093  0.8546621478056196  1.0000
  N   N1        1.0  0.5842168916981407  0.3628063742687502  0.14886222082574113  1.0000
  N   N2        1.0  0.41578207820019486  0.6371957186996724  0.8511435723076274  1.0000
  N   N3        1.0  0.9754991984786442  0.6336114684715852  0.2272648490260138  1.0000
  N   N4        1.0  0.024498147898910416  0.3663842406288609  0.7727326684766282  1.0000
  O   O1        1.0  0.5947819810434964  0.6533467058739857  0.12479415775634096  1.0000
  O   O2        1.0  0.4052136489421869  0.3466565201617371  0.875199831552912  1.0000
  O   O3        1.0  0.9224432432456879  0.3570938543992598  0.05222745470913283  1.0000
  O   O4        1.0  0.07755272304233779  0.6429071584453893  0.9477760298212344  1.0000
  F   F1        1.0  0.41200102668422295  0.8098909042908318  0.24713340107053483  1.0000
  F   F2        1.0  0.5879912932518038  0.19011338110344408  0.752858563830479  1.0000
  F   F3        1.0  0.5842866349472473  0.8205098272815334  0.42588399752887807  1.0000
  F   F4        1.0  0.415695747185204  0.17948900173745844  0.5741094923744612  1.0000
  F   F5        1.0  0.7053799991753565  0.9166378790196107  0.2853545598874589  1.0000
  F   F6        1.0  0.29461187084844914  0.0833652648687035  0.7146460756082433  1.0000
  F   F7        1.0  0.1172931085120936  0.17651785945214019  0.0792653562966379  1.0000
  F   F8        1.0  0.8827331302230659  0.823483334815272  0.9207480804264208  1.0000
  F   F9        1.0  0.0407955782572742  0.1478555825799788  0.2549466209124205  1.0000
  F   F10       1.0  0.9591999956969774  0.852130475065792  0.745049229283822  1.0000
  F   F11       1.0  0.8332917475687793  0.0763086115778293  0.0800576403001472  1.0000
  F   F12       1.0  0.16671912052355253  0.9236894354665566  0.919929423959971  1.0000
