data_image0
_chemical_formula_structural       Zn2H48C62N4O16
_chemical_formula_sum              "Zn2 H48 C62 N4 O16"
_cell_length_a       9.488075002757734
_cell_length_b       10.993688273047137
_cell_length_c       28.020923140966183
_cell_angle_alpha    88.0883297760277
_cell_angle_beta     87.7500435992654
_cell_angle_gamma    89.09387244100772

_space_group_name_H-M_alt    "P 1"
_space_group_IT_number       1

loop_
  _space_group_symop_operation_xyz
  'x, y, z'

loop_
  _atom_site_type_symbol
  _atom_site_label
  _atom_site_symmetry_multiplicity
  _atom_site_fract_x
  _atom_site_fract_y
  _atom_site_fract_z
  _atom_site_occupancy
  Zn  Zn1       1.0  0.6418712721003602  0.5037928882488102  0.4969996609956199  1.0000
  Zn  Zn2       1.0  0.3600392234657123  0.5072784359949978  0.502338186398447  1.0000
  H   H1        1.0  0.7181462934810483  0.5582747143036144  0.343129848806747  1.0000
  H   H2        1.0  0.275197343851282  0.4237328494475107  0.6553350656474352  1.0000
  H   H3        1.0  0.7187115220159656  0.4971436506778701  0.6480515637898636  1.0000
  H   H4        1.0  0.2723023869395363  0.5022801665765257  0.3528304313285845  1.0000
  H   H5        1.0  0.7196327765318884  0.4948152772752791  0.7379054742502478  1.0000
  H   H6        1.0  0.26922165085325395  0.48943095851658575  0.2632551048232372  1.0000
  H   H7        1.0  0.43030117659510136  0.7665223692143498  0.8674987613234962  1.0000
  H   H8        1.0  0.5246964983939933  0.20052563876295443  0.1330089843793303  1.0000
  H   H9        1.0  0.4283188562987875  0.7837650413183183  0.9556741567367057  1.0000
  H   H10       1.0  0.5269672101037699  0.18166848176486644  0.0449395077656334  1.0000
  H   H11       1.0  0.4551217758675108  0.7951951648489269  0.022918171010317706  1.0000
  H   H12       1.0  0.542683756200411  0.17533519392717517  0.9765731681494787  1.0000
  H   H13       1.0  0.27835264095874385  0.8939840218087343  0.5053727592652422  1.0000
  H   H14       1.0  0.731204296270228  0.11692742738371463  0.49245948694508723  1.0000
  H   H15       1.0  0.278837372681039  0.12319267910485371  0.4984869381652005  1.0000
  H   H16       1.0  0.7307885135779203  0.8878148040742457  0.4992030492177336  1.0000
  H   H17       1.0  0.12936282216302433  0.37987529256312047  0.5575117046681229  1.0000
  H   H18       1.0  0.8722479466901519  0.6335503889310203  0.4429898840027137  1.0000
  H   H19       1.0  0.14354832841794973  0.6368295809322433  0.4458619378914649  1.0000
  H   H20       1.0  0.8581485195277169  0.37490166424036175  0.5540530864909741  1.0000
  H   H21       1.0  0.9481002015999851  0.5729726696687792  0.2425935090331848  1.0000
  H   H22       1.0  0.8624612266237079  0.622573869449475  0.29609808855100533  1.0000
  H   H23       1.0  0.8313821616334209  0.7410667206132261  0.19636656585485926  1.0000
  H   H24       1.0  0.7408778552237365  0.7901572839594309  0.24856942658465908  1.0000
  H   H25       1.0  0.9731803077827976  0.8388598014200853  0.2847611624995921  1.0000
  H   H26       1.0  0.9570351810869868  0.9175215865289628  0.22905014459788484  1.0000
  H   H27       1.0  0.0664650492568342  0.7856120753699898  0.23325831194634367  1.0000
  H   H28       1.0  0.24331074380933865  0.22807510420717847  0.7557389621323339  1.0000
  H   H29       1.0  0.14739704260749423  0.29969423159607084  0.7085368756694025  1.0000
  H   H30       1.0  0.07529936214791629  0.3324332331619217  0.8148907305806292  1.0000
  H   H31       1.0  0.9761512627457166  0.38873623195277673  0.7666504744628213  1.0000
  H   H32       1.0  0.931026503428008  0.16956919988705008  0.7436648433252702  1.0000
  H   H33       1.0  0.8642417658137023  0.20011423451771293  0.801867211851466  1.0000
  H   H34       1.0  0.025413246056821503  0.11681086361560492  0.7939260344555593  1.0000
  H   H35       1.0  0.4904364853919462  0.010659884517195904  0.11220641180500482  1.0000
  H   H36       1.0  0.5357281760484511  0.9411465326522117  0.057005872148039316  1.0000
  H   H37       1.0  0.6875089761025351  0.8999697282944081  0.15109910619370487  1.0000
  H   H38       1.0  0.728465094282342  0.8208837468000142  0.09833527573577783  1.0000
  H   H39       1.0  0.789313074163026  0.020154073096868806  0.05444001383498431  1.0000
  H   H40       1.0  0.8951640454847265  0.9929823037150316  0.10458300941350272  1.0000
  H   H41       1.0  0.7531780202140228  0.09917489282216961  0.10799250036375703  1.0000
  H   H42       1.0  0.5593222277281243  0.9585732866962859  0.8867093961757109  1.0000
  H   H43       1.0  0.5085658135885538  0.0215583079530219  0.9425138544780369  1.0000
  H   H44       1.0  0.8015597339030976  0.036798509242799995  0.8917402053766781  1.0000
  H   H45       1.0  0.7583501800253316  0.1023147019931017  0.9471703694471503  1.0000
  H   H46       1.0  0.7053473938082604  0.8923128649390011  0.9837975190231278  1.0000
  H   H47       1.0  0.8808474992128839  0.9001956769608057  0.9600170040947946  1.0000
  H   H48       1.0  0.7502314788775949  0.8269635295114312  0.9280788804694782  1.0000
  C   C1        1.0  0.5045821294774983  0.7423681872844766  0.5055240185650761  1.0000
  C   C2        1.0  0.5048340367679174  0.26858571241225354  0.4928887820333402  1.0000
  C   C3        1.0  0.5004784438888379  0.5332667659332841  0.4056482071041572  1.0000
  C   C4        1.0  0.49408643084228754  0.4707203433999255  0.5934986817712729  1.0000
  C   C5        1.0  0.48246939897601515  0.6237173052532938  0.17635961978005815  1.0000
  C   C6        1.0  0.5074619630141087  0.34716902009544276  0.8228537365788497  1.0000
  C   C7        1.0  0.5021725833710208  0.3958782753661437  0.1831669507200644  1.0000
  C   C8        1.0  0.4732452842338972  0.5739708952457576  0.8168330597460953  1.0000
  C   C9        1.0  0.3668643602561801  0.5056626852236336  0.28114445255436493  1.0000
  C   C10       1.0  0.6234889781443655  0.4776832075422277  0.7193068340802357  1.0000
  C   C11       1.0  0.36812683273114294  0.5131775251963331  0.33058216082565656  1.0000
  C   C12       1.0  0.6232287320420656  0.47878071198132216  0.6696915342655247  1.0000
  C   C13       1.0  0.6210319991520593  0.5459457547439257  0.32459355911563403  1.0000
  C   C14       1.0  0.37254556056601734  0.43613132058078447  0.6738226993964105  1.0000
  C   C15       1.0  0.6199753369582766  0.5397739629036877  0.2749008258306632  1.0000
  C   C16       1.0  0.3728657817896632  0.4331248405005894  0.7236493957668986  1.0000
  C   C17       1.0  0.491121906358913  0.5186793130334592  0.25359387586357945  1.0000
  C   C18       1.0  0.4992018808344767  0.45577565007301496  0.7460151114564086  1.0000
  C   C19       1.0  0.4887004105985469  0.5009397505140926  0.10179309537321764  1.0000
  C   C20       1.0  0.4890640009286075  0.46744002939543333  0.897799572627932  1.0000
  C   C21       1.0  0.47749591754537596  0.6160661781627681  0.12376107660080751  1.0000
  C   C22       1.0  0.5084986958710545  0.35352672292320625  0.8755031847673183  1.0000
  C   C23       1.0  0.4669352142408061  0.7210323563906655  0.09407242305773171  1.0000
  C   C24       1.0  0.5285417143682737  0.24825860620146772  0.9048736911227666  1.0000
  C   C25       1.0  0.5017259916193525  0.3930227198009675  0.1304746742741045  1.0000
  C   C26       1.0  0.4696785859849584  0.5754406022986769  0.8694872620755593  1.0000
  C   C27       1.0  0.49590400018405484  0.5325637957562749  0.3522665544086153  1.0000
  C   C28       1.0  0.49703996735347294  0.4597318359269736  0.6468804806191246  1.0000
  C   C29       1.0  0.4699222305097166  0.592122922360879  0.9699067846697036  1.0000
  C   C30       1.0  0.5041352261773469  0.3753527303858134  0.0297631103510128  1.0000
  C   C31       1.0  0.5069875756626772  0.36812953374070656  0.9775061164852163  1.0000
  C   C32       1.0  0.4755695446986863  0.6001529311948488  0.021865048533406702  1.0000
  C   C33       1.0  0.4885769223307577  0.476495811459742  0.9487352359045149  1.0000
  C   C34       1.0  0.4894624742141218  0.4915107207544835  0.05086959022654721  1.0000
  C   C35       1.0  0.4469652720002841  0.6950225497911049  0.9403182729325722  1.0000
  C   C36       1.0  0.5162511871040749  0.2717329990188517  0.059845664782578516  1.0000
  C   C37       1.0  0.44719696633606537  0.6866661878459581  0.8908484901594209  1.0000
  C   C38       1.0  0.5149925012180887  0.2807133008579257  0.10933982696475653  1.0000
  C   C39       1.0  0.46666371078939767  0.7112008264110584  0.044118092032661614  1.0000
  C   C40       1.0  0.5270229512561785  0.2579526886676007  0.9549984738886297  1.0000
  C   C41       1.0  0.37666585603153646  0.9440230750582758  0.5024589703872523  1.0000
  C   C42       1.0  0.632864428026764  0.0669168724504985  0.495272956553329  1.0000
  C   C43       1.0  0.3769347876285424  0.07038581849587192  0.49869913692767653  1.0000
  C   C44       1.0  0.6326078409128543  0.9405377886639671  0.4989796559037175  1.0000
  C   C45       1.0  0.504967854672323  0.1325396499207372  0.49519691573849667  1.0000
  C   C46       1.0  0.5045076744874281  0.878396891220021  0.5026351539821974  1.0000
  C   C47       1.0  0.06996842366130102  0.4352991512913036  0.5320859629379983  1.0000
  C   C48       1.0  0.9316810451894569  0.577310630532736  0.46815115777525323  1.0000
  C   C49       1.0  0.07781220723778401  0.5797206673408509  0.46989801027908146  1.0000
  C   C50       1.0  0.9238613612568686  0.43248604124899265  0.5301884004970959  1.0000
  C   C51       1.0  0.853529187285119  0.6201782607982906  0.2571055958406704  1.0000
  C   C52       1.0  0.8403111460091213  0.748308602660984  0.23522242118469452  1.0000
  C   C53       1.0  0.9660783200821971  0.826543204561922  0.24614753176298626  1.0000
  C   C54       1.0  0.1753643741414805  0.3069169694635577  0.7461859128068158  1.0000
  C   C55       1.0  0.043511253789539205  0.31203794486707187  0.7786586448529393  1.0000
  C   C56       1.0  0.9617704423693781  0.19315708601263273  0.7796029106563369  1.0000
  C   C57       1.0  0.5385234363729339  0.929219560646359  0.09633834819102563  1.0000
  C   C58       1.0  0.6893329592336884  0.9086729044019605  0.1118809940766994  1.0000
  C   C59       1.0  0.7866935136214652  0.010964457053894698  0.09371322666024182  1.0000
  C   C60       1.0  0.5813814224637001  0.031832961192222294  0.9109430024049062  1.0000
  C   C61       1.0  0.7351925451499569  0.025496191665538997  0.92463326233257  1.0000
  C   C62       1.0  0.7697219044501439  0.9046914656676962  0.9504896640669431  1.0000
  N   N1        1.0  0.4882824507568486  0.5113668493435455  0.20249340501749205  1.0000
  N   N2        1.0  0.4983365945622112  0.45997975756357334  0.7972103747175086  1.0000
  N   N3        1.0  0.8571484728930159  0.503470512768949  0.4982068049443385  1.0000
  N   N4        1.0  0.1445791030161132  0.508669857078864  0.5018572653480506  1.0000
  O   O1        1.0  0.6241883965741196  0.6879467088291024  0.5034957540776546  1.0000
  O   O2        1.0  0.38532108812587046  0.32322939888376107  0.4938885081651848  1.0000
  O   O3        1.0  0.6243944756407631  0.3203509333641393  0.4908123931308524  1.0000
  O   O4        1.0  0.3853107268885339  0.69027602038026  0.5092134007309073  1.0000
  O   O5        1.0  0.6213595645667312  0.530881056222924  0.4240500283800587  1.0000
  O   O6        1.0  0.3735554374474717  0.4740673361114958  0.5748200143534491  1.0000
  O   O7        1.0  0.6124237573889745  0.4779595953630108  0.5705012535454728  1.0000
  O   O8        1.0  0.38241017330389593  0.5340256324747513  0.4289935158245584  1.0000
  O   O9        1.0  0.48188518161442334  0.7188974172970217  0.1981343912749836  1.0000
  O   O10       1.0  0.5153233895395817  0.25270860844457127  0.8005128101268754  1.0000
  O   O11       1.0  0.4567782328946565  0.6661532309137498  0.7913597699409538  1.0000
  O   O12       1.0  0.5138436721532287  0.30346396410443083  0.20885724360707061  1.0000
  O   O13       1.0  0.7366497185604147  0.5464662895920894  0.24478479025898287  1.0000
  O   O14       1.0  0.2536196565380778  0.4168319125839446  0.7523471573121229  1.0000
  O   O15       1.0  0.4479579547305336  0.8319374766665747  0.11357835605053171  1.0000
  O   O16       1.0  0.5475225778315008  0.14070536838617898  0.8835486787827451  1.0000
