data_image0
_chemical_formula_structural       Co4H28C32N4O20
_chemical_formula_sum              "Co4 H28 C32 N4 O20"
_cell_length_a       7.809170580224514
_cell_length_b       8.81048941882879
_cell_length_c       12.506473473529027
_cell_angle_alpha    89.9927090083242
_cell_angle_beta     89.92212003653295
_cell_angle_gamma    96.71091457623176

_space_group_name_H-M_alt    "P 1"
_space_group_IT_number       1

loop_
  _space_group_symop_operation_xyz
  'x, y, z'

loop_
  _atom_site_type_symbol
  _atom_site_label
  _atom_site_symmetry_multiplicity
  _atom_site_fract_x
  _atom_site_fract_y
  _atom_site_fract_z
  _atom_site_occupancy
  Co  Co1       1.0  0.0778319345198355  0.7227713140338635  0.432985719419392  1.0000
  Co  Co2       1.0  0.4237870916771199  0.27682395922921177  0.9336549252239764  1.0000
  Co  Co3       1.0  0.9222998614538013  0.27724049729232547  0.567017393371586  1.0000
  Co  Co4       1.0  0.5766980738011753  0.7231697458284714  0.0664495849507674  1.0000
  H   H1        1.0  0.8287259920335758  0.8426122301260506  0.312909200122732  1.0000
  H   H2        1.0  0.6707234202407193  0.15790002657264773  0.8130114677919169  1.0000
  H   H3        1.0  0.17144342349922678  0.15738449617446545  0.6870739076109516  1.0000
  H   H4        1.0  0.3292956419781348  0.8421113066511692  0.18697010431522898  1.0000
  H   H5        1.0  0.8380276529001591  0.9073185038427666  0.43260686440478935  1.0000
  H   H6        1.0  0.6639738798756625  0.0927144805816127  0.9326504443882797  1.0000
  H   H7        1.0  0.16202223998098478  0.09277614710646989  0.5673523025239575  1.0000
  H   H8        1.0  0.3361569239959081  0.9074563036127045  0.0674182280034401  1.0000
  H   H9        1.0  0.2254880666131385  0.4961343217110893  0.9693028593575123  1.0000
  H   H10       1.0  0.2763291510851928  0.5041124506684084  0.4685056331760649  1.0000
  H   H11       1.0  0.7746151528849909  0.5038570459828124  0.030810609398699302  1.0000
  H   H12       1.0  0.7237622776784035  0.49587559407531506  0.5314255351253578  1.0000
  H   H13       1.0  0.125473200812408  0.3640015158383036  0.8882188689276659  1.0000
  H   H14       1.0  0.3764501023064568  0.6366694628239813  0.3875478390511731  1.0000
  H   H15       1.0  0.8746810700765549  0.6359884144372998  0.1118681917581554  1.0000
  H   H16       1.0  0.6236540951405728  0.3633185018981493  0.6124073113865194  1.0000
  H   H17       1.0  0.8377034420242212  0.13232151857069144  0.2949614266130567  1.0000
  H   H18       1.0  0.6611989763435628  0.8668520531298822  0.7949677634865893  1.0000
  H   H19       1.0  0.16224334004413524  0.867612454760092  0.705060958587552  1.0000
  H   H20       1.0  0.3388396718027522  0.1330974079501104  0.20498981535616423  1.0000
  H   H21       1.0  0.9498223448077212  0.13490965682043304  0.9570619029700822  1.0000
  H   H22       1.0  0.5513859544897102  0.8658563723047904  0.4569264877304989  1.0000
  H   H23       1.0  0.05023326064875281  0.8651437708909454  0.0429660277100083  1.0000
  H   H24       1.0  0.44863200058734515  0.13415611373638817  0.5430430910077675  1.0000
  H   H25       1.0  0.1709079604297585  0.5054290194026478  0.156257030344662  1.0000
  H   H26       1.0  0.3286196082817625  0.49464887649290296  0.6553693835340441  1.0000
  H   H27       1.0  0.8289964688504908  0.49459669068765055  0.8438189412310706  1.0000
  H   H28       1.0  0.6713050970693859  0.5053836021109318  0.3445906391088656  1.0000
  C   C1        1.0  0.003846564333173309  0.32673844962195625  0.2348570317042658  1.0000
  C   C2        1.0  0.4951573190453971  0.6728889080051559  0.734356851940639  1.0000
  C   C3        1.0  0.9960417780069619  0.6732358915768514  0.7651933622070288  1.0000
  C   C4        1.0  0.5048217964256807  0.32710207642526967  0.2656039488600968  1.0000
  C   C5        1.0  0.9037830413431749  0.18541013868866674  0.2253349475816151  1.0000
  C   C6        1.0  0.5953179558709394  0.814255424045605  0.7252358737077812  1.0000
  C   C7        1.0  0.09616085040812551  0.8145307128820604  0.7746930356576273  1.0000
  C   C8        1.0  0.40469604306444035  0.18571019285001708  0.27472731205966744  1.0000
  C   C9        1.0  0.8812022778596854  0.11897294570024287  0.12400472168435073  1.0000
  C   C10       1.0  0.6184354607338207  0.8812007733139139  0.6240242918801329  1.0000
  C   C11       1.0  0.11878316715952048  0.8810271397586645  0.8760112474616903  1.0000
  C   C12       1.0  0.38156042839931104  0.11880040410280655  0.3759476955248929  1.0000
  C   C13       1.0  0.9678908937918749  0.18791726566543324  0.0353641967038882  1.0000
  C   C14       1.0  0.5324292500639345  0.8126531498292736  0.5351707860523476  1.0000
  C   C15       1.0  0.032096439999030245  0.8121056811258215  0.9646637644376314  1.0000
  C   C16       1.0  0.46755975463078403  0.187353786184616  0.4648036028002664  1.0000
  C   C17       1.0  0.0790815277403283  0.3232483572610859  0.047175803431251495  1.0000
  C   C18       1.0  0.42119521660907827  0.6772733909008151  0.546644616120453  1.0000
  C   C19       1.0  0.9209103983452992  0.6767802732763073  0.9528897360508  1.0000
  C   C20       1.0  0.5787821294167301  0.3227416241833367  0.4533089881201633  1.0000
  C   C21       1.0  0.09158166396537132  0.3958252474558607  0.14655827671680302  1.0000
  C   C22       1.0  0.4078930544623205  0.6043314179088242  0.6459084741068607  1.0000
  C   C23       1.0  0.9083139929919425  0.6041833600658322  0.8535073047245517  1.0000
  C   C24       1.0  0.5920502161754939  0.39568722719170774  0.3540499420382375  1.0000
  C   C25       1.0  0.0158331103287566  0.4096340220438107  0.3386465960382949  1.0000
  C   C26       1.0  0.4832391877732718  0.5885599307444592  0.8376809104205662  1.0000
  C   C27       1.0  0.9840242298057974  0.590292461580013  0.6614126086255113  1.0000
  C   C28       1.0  0.5166611258396827  0.41137089771754626  0.1622767282768507  1.0000
  C   C29       1.0  0.7660101166111347  0.9742026604122813  0.1089558578067056  1.0000
  C   C30       1.0  0.7337885808509766  0.0260028461846957  0.6091637679021177  1.0000
  C   C31       1.0  0.23393347924259436  0.0258548769523799  0.890971372657596  1.0000
  C   C32       1.0  0.2661835973736402  0.9740121895816498  0.39083461536524305  1.0000
  N   N1        1.0  0.1838430592323093  0.3823027670637201  0.9609235133687974  1.0000
  N   N2        1.0  0.31738965231593136  0.6180859910629338  0.4601450878573062  1.0000
  N   N3        1.0  0.8162011350382629  0.6176969527943327  0.0391907798067166  1.0000
  N   N4        1.0  0.6826406789494683  0.3819046997650019  0.5397845072367247  1.0000
  O   O1        1.0  0.8515202553550479  0.8156712449811179  0.388085718189302  1.0000
  O   O2        1.0  0.6490664807926265  0.1844016709365661  0.8884717075986471  1.0000
  O   O3        1.0  0.1485265775248905  0.1843925340940942  0.6119134306874443  1.0000
  O   O4        1.0  0.3510566274999364  0.8157131339085736  0.1115074168581529  1.0000
  O   O5        1.0  0.022230774341245808  0.5547774555350387  0.3319746297996318  1.0000
  O   O6        1.0  0.47602413559602746  0.4435022177028998  0.8296768189255205  1.0000
  O   O7        1.0  0.9773142968836268  0.44512339276473506  0.6681606699454933  1.0000
  O   O8        1.0  0.5233920542222066  0.556390302939235  0.1701482967850083  1.0000
  O   O9        1.0  0.023130723838505705  0.3330136256064833  0.4246182963748311  1.0000
  O   O10       1.0  0.4772124058113931  0.6639108488503922  0.9242785937222493  1.0000
  O   O11       1.0  0.9770529498953309  0.6668835009506465  0.5754111855792061  1.0000
  O   O12       1.0  0.5231347568328956  0.3360104908545409  0.0757076397488206  1.0000
  O   O13       1.0  0.741969999656959  0.8743765660336038  0.1832439946802182  1.0000
  O   O14       1.0  0.7554165280342744  0.1267056813323038  0.6829759607235033  1.0000
  O   O15       1.0  0.2584725266135308  0.1252526163560503  0.8164727502180542  1.0000
  O   O16       1.0  0.244668273575229  0.8731897316184528  0.317080749435668  1.0000
  O   O17       1.0  0.6925777253355463  0.9457398973334891  0.0181914347589682  1.0000
  O   O18       1.0  0.809764480693964  0.0536889341265052  0.5190175847040805  1.0000
  O   O19       1.0  0.30674948141787445  0.05469293867311359  0.9818943606089618  1.0000
  O   O20       1.0  0.1900609956738819  0.9464310512394432  0.4809424765057244  1.0000
