data_image0
_chemical_formula_structural       Cd2H44C40N8O8
_chemical_formula_sum              "Cd2 H44 C40 N8 O8"
_cell_length_a       9.172925812097654
_cell_length_b       10.076317777655529
_cell_length_c       14.4659
_cell_angle_alpha    107.25591750832501
_cell_angle_beta     91.27888737643255
_cell_angle_gamma    116.21090255193654

_space_group_name_H-M_alt    "P 1"
_space_group_IT_number       1

loop_
  _space_group_symop_operation_xyz
  'x, y, z'

loop_
  _atom_site_type_symbol
  _atom_site_label
  _atom_site_symmetry_multiplicity
  _atom_site_fract_x
  _atom_site_fract_y
  _atom_site_fract_z
  _atom_site_occupancy
  Cd  Cd1       1.0  0.8244146733188203  0.4399720917708549  0.10372925550621663  1.0000
  Cd  Cd2       1.0  0.17558871324630596  0.5600280394667722  0.8962722712294919  1.0000
  H   H1        1.0  0.8276440520400854  0.2360276391319758  0.3739912385176751  1.0000
  H   H2        1.0  0.17235657374320112  0.7639713150865575  0.6260093146613812  1.0000
  H   H3        1.0  0.10670851819893562  0.7357805307408256  0.44856141742421585  1.0000
  H   H4        1.0  0.893293267402683  0.2642207775158951  0.5514403298572645  1.0000
  H   H5        1.0  0.9393401774588384  0.1850274017431133  0.1298319222768569  1.0000
  H   H6        1.0  0.060654926760776155  0.8149691984372325  0.8701673750697695  1.0000
  H   H7        1.0  0.11526946921614473  0.0783223816424439  0.8595606169252861  1.0000
  H   H8        1.0  0.8847272359669702  0.9216730415188081  0.14043776859468693  1.0000
  H   H9        1.0  0.5154264270255241  0.2863040097773748  0.23173377916990032  1.0000
  H   H10       1.0  0.4845754279580987  0.7136996525175405  0.7682684555006317  1.0000
  H   H11       1.0  0.5763879923951478  0.6253879098153377  0.10168838558440292  1.0000
  H   H12       1.0  0.4236108936606371  0.3746075133459073  0.898307265677083  1.0000
  H   H13       1.0  0.29655414212199105  0.5611768101035466  0.1904543805200731  1.0000
  H   H14       1.0  0.7034419831519543  0.4388174360386046  0.8095382233421307  1.0000
  H   H15       1.0  0.22436122646376327  0.2282393037799721  0.280843923344122  1.0000
  H   H16       1.0  0.7756361280105182  0.7717596504385611  0.7191538184139361  1.0000
  H   H17       1.0  0.1398507799467907  0.3497747644783757  0.2666023380480809  1.0000
  H   H18       1.0  0.8601493353093232  0.6502253667592512  0.733394994704881  1.0000
  H   H19       1.0  0.22009679473286786  0.4138069572877185  0.4416867514778816  1.0000
  H   H20       1.0  0.7799033205232464  0.5861931739499084  0.5583112725559545  1.0000
  H   H21       1.0  0.35149455601540325  0.5752127628121144  0.4081699729862436  1.0000
  H   H22       1.0  0.6485022185497158  0.4247850143873251  0.5918275173610326  1.0000
  H   H23       1.0  0.5728492204751916  0.48859945866408333  0.4052899049096581  1.0000
  H   H24       1.0  0.4271498737265916  0.5114030266117382  0.594707208518976  1.0000
  H   H25       1.0  0.4379101703673527  0.3266169137831128  0.4377864284814948  1.0000
  H   H26       1.0  0.5620905247979309  0.6733843944736151  0.5622104644013604  1.0000
  H   H27       1.0  0.8248500435198026  0.24554383851551623  0.8594662032801353  1.0000
  H   H28       1.0  0.17515225260898862  0.7544562927221108  0.14053392546132673  1.0000
  H   H29       1.0  0.42527403395574476  0.1483597258747693  0.013722592881201503  1.0000
  H   H30       1.0  0.5747316028640483  0.8516427594010452  0.9862822172320591  1.0000
  H   H31       1.0  0.3196137539535188  0.9231796259604792  0.8249266396288847  1.0000
  H   H32       1.0  0.680389122084442  0.0768216822962415  0.1750758143659752  1.0000
  H   H33       1.0  0.4750503583959258  0.8598712998945999  0.6910684872688648  1.0000
  H   H34       1.0  0.5249514272056928  0.140130008362128  0.3089325687317483  1.0000
  H   H35       1.0  0.6911087609233065  0.98484365635057  0.7065235321719073  1.0000
  H   H36       1.0  0.3088936045874817  0.015158828925251602  0.2934777752394808  1.0000
  H   H37       1.0  0.6351766216722723  0.1813656953383855  0.6630046667759971  1.0000
  H   H38       1.0  0.3648229830566764  0.8186356129183352  0.3369984322022291  1.0000
  H   H39       1.0  0.4203870417842879  0.0648690533859266  0.6542601635063293  1.0000
  H   H40       1.0  0.5796131428538304  0.9351334318898878  0.34574387816354607  1.0000
  H   H41       1.0  0.6423372601747488  0.9676921340973834  0.5243363476499994  1.0000
  H   H42       1.0  0.3576601636815299  0.032309174159344416  0.4756653379014751  1.0000
  H   H43       1.0  0.4314470847316586  0.8427233086987018  0.5183012935948099  1.0000
  H   H44       1.0  0.5685498285974475  0.15727917657712007  0.4817013192158086  1.0000
  C   C1        1.0  0.9267280034212176  0.4688808577645744  0.2956679592776084  1.0000
  C   C2        1.0  0.07327436208957043  0.53112162751124  0.7043340394146542  1.0000
  C   C3        1.0  0.9631250648715481  0.48460230181726877  0.4013837191849348  1.0000
  C   C4        1.0  0.03687723125724321  0.5153978294203654  0.5986171008374015  1.0000
  C   C5        1.0  0.9022542395049981  0.3512483923853864  0.4300461330769494  1.0000
  C   C6        1.0  0.09774638627828841  0.6487505618331468  0.569954420102107  1.0000
  C   C7        1.0  0.06102028851356068  0.6335564223350403  0.4722622723674378  1.0000
  C   C8        1.0  0.9389809171788954  0.3664437089025867  0.5277392235032679  1.0000
  C   C9        1.0  0.06488452230252763  0.3023126464892556  0.9877517958388966  1.0000
  C   C10       1.0  0.9351182843534361  0.6976863077292776  0.012248788205163001  1.0000
  C   C11       1.0  0.03158567886205791  0.1461787094916289  0.9945278684375651  1.0000
  C   C12       1.0  0.968409935884722  0.8538167136696231  0.0054705016499099115  1.0000
  C   C13       1.0  0.966544769100544  0.10331402808780871  0.0739567241863668  1.0000
  C   C14       1.0  0.03345142555539848  0.8966825720925373  0.9260398234692603  1.0000
  C   C15       1.0  0.06465961389250201  0.0420289978463302  0.9205437726310706  1.0000
  C   C16       1.0  0.9353320802541136  0.9579628942576335  0.07945312107820264  1.0000
  C   C17       1.0  0.4954481238483695  0.3701065923264082  0.20792393651479563  1.0000
  C   C18       1.0  0.5045503210622471  0.629892361892125  0.7920752032375091  1.0000
  C   C19       1.0  0.5228694792745401  0.5464581863198461  0.14273588177628235  1.0000
  C   C20       1.0  0.4771328862362481  0.4535442989559684  0.8572605866689786  1.0000
  C   C21       1.0  0.38693786751523623  0.5189324177628194  0.18775036897383765  1.0000
  C   C22       1.0  0.6130594869590453  0.48106653645571384  0.8122452989415976  1.0000
  C   C23       1.0  0.2539452503852075  0.3509564916498107  0.2922191881506748  1.0000
  C   C24       1.0  0.7460510136527321  0.6490424625687228  0.7077771556131296  1.0000
  C   C25       1.0  0.3209989190363913  0.4533277274424776  0.4005076263804312  1.0000
  C   C26       1.0  0.6790006856925644  0.5466735808142432  0.5994899423508002  1.0000
  C   C27       1.0  0.4702562798812835  0.4492234618580113  0.44561022223543745  1.0000
  C   C28       1.0  0.5297433248476652  0.5507778463987094  0.5543859639340454  1.0000
  C   C29       1.0  0.703390901524003  0.19061000331097236  0.8782057344635064  1.0000
  C   C30       1.0  0.2966119051319539  0.8093889509075609  0.12179484958055302  1.0000
  C   C31       1.0  0.49264921416347823  0.1362564385202916  0.9539376156939314  1.0000
  C   C32       1.0  0.5073568638014906  0.8637425156982419  0.046064397209384836  1.0000
  C   C33       1.0  0.43708055220486125  0.0262263394760822  0.8608966677100512  1.0000
  C   C34       1.0  0.5629285640699351  0.9737832079143091  0.13911034214874013  1.0000
  C   C35       1.0  0.5709045725896118  0.9831993606747744  0.7117154475958573  1.0000
  C   C36       1.0  0.4290972130120069  0.0168019475819534  0.2882856084047489  1.0000
  C   C37       1.0  0.5362189666460893  0.059164041832183  0.6430159102305097  1.0000
  C   C38       1.0  0.46377794668302397  0.9408384434436385  0.3569853200183602  1.0000
  C   C39       1.0  0.523481005452915  0.9671259879126596  0.5356688139889556  1.0000
  C   C40       1.0  0.47651699831253314  0.0328764973631621  0.46433450553504235  1.0000
  N   N1        1.0  0.5893988305911435  0.4530287645923394  0.15622665538492705  1.0000
  N   N2        1.0  0.41060506650114803  0.5469701896262009  0.8437732528107631  1.0000
  N   N3        1.0  0.3707540718150781  0.4061810505708365  0.2284784420396946  1.0000
  N   N4        1.0  0.6292443730955384  0.5938179036476967  0.7715186238699872  1.0000
  N   N5        1.0  0.6585187537202017  0.2374247607978077  0.9638875485720888  1.0000
  N   N6        1.0  0.3414890639722615  0.7625777244780139  0.03611590984442614  1.0000
  N   N7        1.0  0.5724476721323484  0.0618664776744353  0.8142803869935592  1.0000
  N   N8        1.0  0.42755186321460315  0.9381324765440979  0.18572084203387362  1.0000
  O   O1        1.0  0.8194539052233978  0.3336484258569854  0.23607211597538943  1.0000
  O   O2        1.0  0.18054788037822084  0.6663528823997353  0.7639289400252169  1.0000
  O   O3        1.0  0.0023168677658773956  0.5885754605983067  0.27022864223172866  1.0000
  O   O4        1.0  0.9976822264358987  0.4114270246775149  0.7297740014439001  1.0000
  O   O5        1.0  0.05019156824741345  0.40243106773398557  0.05919221623943121  1.0000
  O   O6        1.0  0.9498150202447134  0.597566709465454  0.9408109432473637  1.0000
  O   O7        1.0  0.10718274044398163  0.3235554871168632  0.9076596782238513  1.0000
  O   O8        1.0  0.892820066211975  0.6764434671016701  0.09233952325846673  1.0000
