data_image0
_chemical_formula_structural       Co4H56C80N16Cl8
_chemical_formula_sum              "Co4 H56 C80 N16 Cl8"
_cell_length_a       12.854903355839033
_cell_length_b       13.471055487170407
_cell_length_c       15.92563376612563
_cell_angle_alpha    90.00040227166922
_cell_angle_beta     97.20317501659596
_cell_angle_gamma    89.99954070837477

_space_group_name_H-M_alt    "P 1"
_space_group_IT_number       1

loop_
  _space_group_symop_operation_xyz
  'x, y, z'

loop_
  _atom_site_type_symbol
  _atom_site_label
  _atom_site_symmetry_multiplicity
  _atom_site_fract_x
  _atom_site_fract_y
  _atom_site_fract_z
  _atom_site_occupancy
  Co  Co1       1.0  0.3203313231674087  0.6641502503055107  0.20296000641332057  1.0000
  Co  Co2       1.0  0.17967014256031888  0.1641510104362709  0.2970396359047456  1.0000
  Co  Co3       1.0  0.6796685980537874  0.33584819080275  0.7970414032846164  1.0000
  Co  Co4       1.0  0.8203305657037988  0.8358466883343925  0.702961227892125  1.0000
  H   H1        1.0  0.9598853544449993  0.6735108324737169  0.3785206812644901  1.0000
  H   H2        1.0  0.5401154580754195  0.1735149123464979  0.12147810949470987  1.0000
  H   H3        1.0  0.0401184872565636  0.3264876086212709  0.6214811370182218  1.0000
  H   H4        1.0  0.45988446902252617  0.8264864980858492  0.8785220449786948  1.0000
  H   H5        1.0  0.8330051758947408  0.7909672828010985  0.3040156902286384  1.0000
  H   H6        1.0  0.6669892568131672  0.2909717546967983  0.19598250775689507  1.0000
  H   H7        1.0  0.16698846962798095  0.20902744666936715  0.6959856933401625  1.0000
  H   H8        1.0  0.3330091109246993  0.709029655733005  0.8040156004342831  1.0000
  H   H9        1.0  0.8757834531190622  0.8858040049026176  0.17787757589527325  1.0000
  H   H10       1.0  0.6242141693541255  0.385803912101956  0.3221234035027294  1.0000
  H   H11       1.0  0.12421333172349587  0.11419295155160111  0.8221235069310069  1.0000
  H   H12       1.0  0.37578420131928425  0.6141997253222229  0.6778740770781013  1.0000
  H   H13       1.0  0.7261401634762451  0.5404172643943284  0.3273167420520976  1.0000
  H   H14       1.0  0.7738585287331929  0.04041701506942268  0.1726804065598557  1.0000
  H   H15       1.0  0.2738574172158721  0.4595856307054121  0.6726819120420655  1.0000
  H   H16       1.0  0.22614375655231098  0.9595814260204066  0.8273187378245337  1.0000
  H   H17       1.0  0.2339094516287616  0.8375247679169391  0.08318066652624617  1.0000
  H   H18       1.0  0.26609068554414966  0.33752289326328383  0.4168217544042959  1.0000
  H   H19       1.0  0.7660896854907122  0.16247515785863698  0.9168206614585656  1.0000
  H   H20       1.0  0.7339108185808316  0.6624777748235717  0.5831766806527909  1.0000
  H   H21       1.0  0.13471753790541638  0.6437425395570884  0.3290067978522941  1.0000
  H   H22       1.0  0.3652825149950445  0.14373786639175992  0.17099257557767086  1.0000
  H   H23       1.0  0.8652823921309007  0.35626035553729457  0.6709927290088372  1.0000
  H   H24       1.0  0.6347197614640476  0.8562590900412629  0.8290084516511911  1.0000
  H   H25       1.0  0.17358112975034604  0.0257719876593399  0.0859054095244858  1.0000
  H   H26       1.0  0.32641981818907334  0.5257707070157239  0.4140939820140304  1.0000
  H   H27       1.0  0.8264211467059183  0.974225711106016  0.9140956177062947  1.0000
  H   H28       1.0  0.6735793307093161  0.47422847641706056  0.5859048355044578  1.0000
  H   H29       1.0  0.8956744295482509  0.8491083168135564  0.02360707640480092  1.0000
  H   H30       1.0  0.6043242416355881  0.34910668745016693  0.4763969331917507  1.0000
  H   H31       1.0  0.1043286280544109  0.15089086661641463  0.9763946601628675  1.0000
  H   H32       1.0  0.3956733420062051  0.6508947229822867  0.5236010932824797  1.0000
  H   H33       1.0  0.3289808741676978  0.8525851155144866  0.32759233519062997  1.0000
  H   H34       1.0  0.17101759195706015  0.352581195264669  0.17240748964833588  1.0000
  H   H35       1.0  0.6710190382016563  0.14741852192793206  0.6724109573690313  1.0000
  H   H36       1.0  0.8289815569554548  0.64741427650646  0.827591327860567  1.0000
  H   H37       1.0  0.5421099286276316  0.5599848056486182  0.2552212095566588  1.0000
  H   H38       1.0  0.9578878187667428  0.05998300724158411  0.24477846889801205  1.0000
  H   H39       1.0  0.4578860544264671  0.44001957414725723  0.7447835572684484  1.0000
  H   H40       1.0  0.04211210834250069  0.9400154338614473  0.7552216855677185  1.0000
  H   H41       1.0  0.802634076413696  0.6634849785990083  0.4335565800392017  1.0000
  H   H42       1.0  0.6973644631001009  0.1634836890162603  0.06644128613875472  1.0000
  H   H43       1.0  0.1973674188622638  0.3365201434896721  0.5664437378776981  1.0000
  H   H44       1.0  0.3026354728553358  0.8365110404172712  0.9335569854690817  1.0000
  H   H45       1.0  0.7026750207341694  0.8089121322993904  0.4713821667394527  1.0000
  H   H46       1.0  0.7973231929392952  0.30890976533037684  0.02861716014461985  1.0000
  H   H47       1.0  0.2973233587741361  0.19109076278461157  0.5286134309911573  1.0000
  H   H48       1.0  0.2026751718743185  0.6910864487757352  0.9713815756492393  1.0000
  H   H49       1.0  0.5612688167463489  0.8349956106597746  0.5556215176437007  1.0000
  H   H50       1.0  0.9387335134403116  0.3349933887526647  0.9443764150651788  1.0000
  H   H51       1.0  0.43873506024957715  0.1650117383917689  0.44437276926879576  1.0000
  H   H52       1.0  0.0612648366447175  0.665005052363526  0.0556254588149443  1.0000
  H   H53       1.0  0.4238678208113953  0.019060696713424405  0.3487851630002865  1.0000
  H   H54       1.0  0.0761300330077503  0.5190569178014073  0.1512157498371494  1.0000
  H   H55       1.0  0.5761360532376826  0.9809473946730592  0.6512097515302315  1.0000
  H   H56       1.0  0.9238683229709751  0.4809400386448815  0.8487848688069377  1.0000
  C   C1        1.0  0.1780596004529755  0.8188035386680853  0.1262633138073781  1.0000
  C   C2        1.0  0.3219414662724844  0.3188001374754422  0.3737384644934423  1.0000
  C   C3        1.0  0.8219387525619553  0.1811986141071387  0.873737932466234  1.0000
  C   C4        1.0  0.6780584667191505  0.6811997882870103  0.6262604347439193  1.0000
  C   C5        1.0  0.10288584948444418  0.7498029686983687  0.22687784298333463  1.0000
  C   C6        1.0  0.3971180770769109  0.2498055813960747  0.27312758967649836  1.0000
  C   C7        1.0  0.8971164063721346  0.25019250308830726  0.7731275775544049  1.0000
  C   C8        1.0  0.6028834211684995  0.7501928596990269  0.7268721006070392  1.0000
  C   C9        1.0  0.0785631445258446  0.696106001191218  0.2969771744022438  1.0000
  C   C10       1.0  0.4214412025718062  0.19610413446021374  0.2030254703464607  1.0000
  C   C11       1.0  0.9214422506420943  0.303893924576201  0.7030279453987234  1.0000
  C   C12       1.0  0.5785587333723257  0.8038935643026336  0.7969728012690495  1.0000
  C   C13       1.0  0.9807255764652749  0.7126796885601294  0.32318817180976106  1.0000
  C   C14       1.0  0.5192772872451314  0.2126836446526923  0.17681169408910336  1.0000
  C   C15       1.0  0.0192814045843761  0.28731355619531485  0.6768133457112455  1.0000
  C   C16       1.0  0.4807242080647356  0.7873125694480338  0.8231886238047819  1.0000
  C   C17       1.0  0.9083831315970201  0.7800471902355073  0.28084572889987663  1.0000
  C   C18       1.0  0.5916184381668401  0.28004871844609625  0.21915377572611308  1.0000
  C   C19       1.0  0.09161914192934259  0.21994679687081498  0.7191559259374144  1.0000
  C   C20       1.0  0.40838307186031386  0.7199482379738813  0.7808434040891825  1.0000
  C   C21       1.0  0.9312122848290656  0.833183701064165  0.2103916892113418  1.0000
  C   C22       1.0  0.568795159128534  0.3331815345503629  0.2896074884479916  1.0000
  C   C23       1.0  0.06879391504593  0.1668154823499607  0.7896091189919473  1.0000
  C   C24       1.0  0.4312047856391884  0.6668183912016233  0.7103889003249648  1.0000
  C   C25       1.0  0.0294108528875157  0.8166604914859192  0.1843181544109669  1.0000
  C   C26       1.0  0.47059492881435727  0.3166636387674445  0.3156853583682633  1.0000
  C   C27       1.0  0.9705953411135654  0.1833349802717876  0.815683909014936  1.0000
  C   C28       1.0  0.5294042141903361  0.6833370293352278  0.684314714386268  1.0000
  C   C29       1.0  0.038988526135796106  0.9305686069933046  0.059808682404217  1.0000
  C   C30       1.0  0.46101326390660097  0.43056618019344484  0.4401925815553794  1.0000
  C   C31       1.0  0.9610113950797513  0.06943131877961413  0.9401927272975498  1.0000
  C   C32       1.0  0.5389866749702534  0.5694344878961105  0.5598050624516943  1.0000
  C   C33       1.0  0.0990529519569847  0.014226613255651404  0.0463395498349115  1.0000
  C   C34       1.0  0.400946506834444  0.5142273189886667  0.4536615014718492  1.0000
  C   C35       1.0  0.9009493097650392  0.9857747971844263  0.9536646154859623  1.0000
  C   C36       1.0  0.599051872685159  0.48577260676601247  0.5463340962510941  1.0000
  C   C37       1.0  0.9402332845701977  0.916032334638139  0.013762418862427185  1.0000
  C   C38       1.0  0.55976724714494  0.4160289002692609  0.48623841595883016  1.0000
  C   C39       1.0  0.0597650596211352  0.08396759114793895  0.9862407102537316  1.0000
  C   C40       1.0  0.4402342658177574  0.583970283145085  0.5137581362461177  1.0000
  C   C41       1.0  0.4002315797451033  0.8081310515595775  0.3365813396598583  1.0000
  C   C42       1.0  0.09976486364344342  0.3081276007979313  0.163419893197748  1.0000
  C   C43       1.0  0.5997659862184221  0.19187407055022737  0.6634204525205688  1.0000
  C   C44       1.0  0.9002350634658  0.691870840305093  0.8365802612679828  1.0000
  C   C45       1.0  0.518753238358464  0.6943851961978139  0.3252673086235802  1.0000
  C   C46       1.0  0.981244270074491  0.19438263785999513  0.17473314595014233  1.0000
  C   C47       1.0  0.4812443187842986  0.3056169565905265  0.674736366397475  1.0000
  C   C48       1.0  0.0187556570460572  0.8056128339137132  0.8252670085079145  1.0000
  C   C49       1.0  0.5763172404183906  0.6126785907207194  0.3028226200771655  1.0000
  C   C50       1.0  0.9236816740532632  0.1126788853131231  0.19717749406884622  1.0000
  C   C51       1.0  0.4236787544202727  0.3873235620676923  0.6971796362777738  1.0000
  C   C52       1.0  0.07631825011478097  0.8873188134601905  0.8028232880110693  1.0000
  C   C53       1.0  0.6783444120982907  0.6028684473448891  0.3432732105469398  1.0000
  C   C54       1.0  0.8216545858873661  0.10286695821589122  0.15672497006026728  1.0000
  C   C55       1.0  0.3216523815565538  0.3971337054277839  0.656725989444446  1.0000
  C   C56       1.0  0.1783469123552237  0.8971322252115357  0.8432747202251889  1.0000
  C   C57       1.0  0.7222524632127545  0.6727019586616764  0.4034319108682354  1.0000
  C   C58       1.0  0.7777460061424649  0.17270030535929953  0.0965660029299897  1.0000
  C   C59       1.0  0.2777427651883144  0.32730167877834754  0.5965664980769815  1.0000
  C   C60       1.0  0.2222547139062243  0.8272951664038998  0.9034323503967201  1.0000
  C   C61       1.0  0.6660926798856366  0.754970504348066  0.42587601204922265  1.0000
  C   C62       1.0  0.8339035891579129  0.2549689781809263  0.07412341860302259  1.0000
  C   C63       1.0  0.33390099209373136  0.24503461775146468  0.5741197230015088  1.0000
  C   C64       1.0  0.16609476976766044  0.7450272359304222  0.9258765724230358  1.0000
  C   C65       1.0  0.5632147118307812  0.7632752055512597  0.3865197555476669  1.0000
  C   C66       1.0  0.9367838462927124  0.26327173584494556  0.11347996315817709  1.0000
  C   C67       1.0  0.4367797354238903  0.2367269472241489  0.613477944060655  1.0000
  C   C68       1.0  0.06321686492673  0.7367229935937801  0.8865202730149162  1.0000
  C   C69       1.0  0.4928036053957925  0.9185872362552204  0.44663359115786244  1.0000
  C   C70       1.0  0.007195941235465901  0.4185820939987793  0.05336360004331199  1.0000
  C   C71       1.0  0.5071987063435373  0.0814223397959992  0.5533599047103833  1.0000
  C   C72       1.0  0.9928031900100934  0.5814141201203855  0.9466389831641137  1.0000
  C   C73       1.0  0.5354735652064518  0.9075593357787499  0.5313133892087974  1.0000
  C   C74       1.0  0.9645297867197655  0.40755266470765156  0.9686838266039784  1.0000
  C   C75       1.0  0.4645326581755214  0.09245172493171343  0.4686823980963623  1.0000
  C   C76       1.0  0.035470140397954694  0.5924435493983823  0.0313163278559969  1.0000
  C   C77       1.0  0.4572271436479198  0.010873660230849704  0.4148248821603318  1.0000
  C   C78       1.0  0.042769997233989394  0.5108681030904094  0.0851740238074399  1.0000
  C   C79       1.0  0.5427751533515206  0.9891411121597644  0.5851717518018444  1.0000
  C   C80       1.0  0.9572283557950598  0.48913033802315914  0.91482722245658  1.0000
  N   N1        1.0  0.1943677348702835  0.7522454734799455  0.187947566072026  1.0000
  N   N2        1.0  0.30562835277044087  0.2522416846920876  0.3120526687086452  1.0000
  N   N3        1.0  0.8056274788191544  0.24775593697617643  0.8120539809479439  1.0000
  N   N4        1.0  0.6943715802296708  0.7477560140733817  0.6879462305229607  1.0000
  N   N5        1.0  0.0796949567883729  0.8586359568653565  0.12011616638118028  1.0000
  N   N6        1.0  0.42030658493639095  0.35863334021614435  0.3798871546722538  1.0000
  N   N7        1.0  0.9203057455735788  0.14136545357218472  0.8798859526574743  1.0000
  N   N8        1.0  0.5796917769162491  0.6413673278865631  0.6201122087492122  1.0000
  N   N9        1.0  0.417007573967318  0.7248723076739126  0.29552897057923383  1.0000
  N   N10       1.0  0.0829887220329866  0.22487006819577005  0.2044711227770009  1.0000
  N   N11       1.0  0.582990749607383  0.27512984512746647  0.704478551855395  1.0000
  N   N12       1.0  0.91700886456978  0.7751268882400952  0.7955262760696156  1.0000
  N   N13       1.0  0.4854124732676652  0.8344288234209642  0.3924669974772357  1.0000
  N   N14       1.0  0.0145845687624586  0.3344240744646427  0.10753131488569068  1.0000
  N   N15       1.0  0.5145843350959893  0.1655762986679505  0.6075290644413227  1.0000
  N   N16       1.0  0.9854177077051034  0.66557065497139  0.8924697123374157  1.0000
  Cl  Cl1       1.0  0.27322343995609083  0.513265600788337  0.24035386070359976  1.0000
  Cl  Cl2       1.0  0.2267799554597261  0.013267175366159702  0.2596457113766348  1.0000
  Cl  Cl3       1.0  0.726778049457252  0.48673284031461617  0.7596477124282399  1.0000
  Cl  Cl4       1.0  0.7732223180440414  0.9867327503987937  0.7403559434760041  1.0000
  Cl  Cl5       1.0  0.3879399992526444  0.6791691044422522  0.08306205735537019  1.0000
  Cl  Cl6       1.0  0.11205978099500409  0.179175088013949  0.41693812675601544  1.0000
  Cl  Cl7       1.0  0.6120607001794127  0.32082859433626243  0.9169406892898023  1.0000
  Cl  Cl8       1.0  0.8879401490271802  0.8208315187420895  0.5830614001147083  1.0000
