data_image0
_chemical_formula_structural       Zn4H60C72N12O20
_chemical_formula_sum              "Zn4 H60 C72 N12 O20"
_cell_length_a       11.063872124742469
_cell_length_b       14.926653160209451
_cell_length_c       14.927042581169617
_cell_angle_alpha    124.25646017549398
_cell_angle_beta     93.37340016289035
_cell_angle_gamma    93.37309626800379

_space_group_name_H-M_alt    "P 1"
_space_group_IT_number       1

loop_
  _space_group_symop_operation_xyz
  'x, y, z'

loop_
  _atom_site_type_symbol
  _atom_site_label
  _atom_site_symmetry_multiplicity
  _atom_site_fract_x
  _atom_site_fract_y
  _atom_site_fract_z
  _atom_site_occupancy
  Zn  Zn1       1.0  0.5880364630320757  0.7267182442256441  0.17257419727609147  1.0000
  Zn  Zn2       1.0  0.912024830388795  0.8274158636261078  0.27326116496713126  1.0000
  Zn  Zn3       1.0  0.4119758790334061  0.2732671279438463  0.8274339304766584  1.0000
  Zn  Zn4       1.0  0.08800115574016591  0.17258256139601968  0.7267244940568318  1.0000
  H   H1        1.0  0.5905095311845515  0.6930166433305655  0.4591886847539967  1.0000
  H   H2        1.0  0.9095360125333372  0.5408407947697852  0.30699688465518443  1.0000
  H   H3        1.0  0.409491414515756  0.30699635807744835  0.5408421659415197  1.0000
  H   H4        1.0  0.09053598796735682  0.4591927530013533  0.6930140586078295  1.0000
  H   H5        1.0  0.6133798071512262  0.593785835163139  0.5491536610018101  1.0000
  H   H6        1.0  0.8866294318968642  0.4508659377999605  0.4062284699370834  1.0000
  H   H7        1.0  0.38661054307263504  0.40620535884663417  0.45086568606453165  1.0000
  H   H8        1.0  0.1133946118760463  0.5491689884246608  0.5937871701892448  1.0000
  H   H9        1.0  0.621641545380605  0.2930556575954526  0.235479845239233  1.0000
  H   H10       1.0  0.8783686021057947  0.764535321610303  0.7069384649918931  1.0000
  H   H11       1.0  0.3783799509234314  0.7069529179932484  0.7645344098674298  1.0000
  H   H12       1.0  0.12166501262664303  0.23549124380377856  0.2930739569326732  1.0000
  H   H13       1.0  0.5912335692753246  0.3912189594233269  0.14639605736963554  1.0000
  H   H14       1.0  0.908806513300839  0.8536403323116416  0.6088007459474696  1.0000
  H   H15       1.0  0.40879948326583104  0.6088010747971068  0.8536309712437883  1.0000
  H   H16       1.0  0.09125211559860706  0.14640211419693114  0.39122354134926235  1.0000
  H   H17       1.0  0.5137347957627868  0.0296958495213886  0.24429951802923  1.0000
  H   H18       1.0  0.9862510874087961  0.755667242406325  0.970249971893324  1.0000
  H   H19       1.0  0.4862484727018171  0.9702624701374772  0.7556765054036845  1.0000
  H   H20       1.0  0.0137463916706864  0.24431056480450045  0.029723120905181564  1.0000
  H   H21       1.0  0.4831209668253963  0.22294810390380349  0.3109107319635598  1.0000
  H   H22       1.0  0.0168204936509895  0.6890914804041796  0.7770018179596221  1.0000
  H   H23       1.0  0.5168426461201392  0.7770124129716861  0.6890680163251304  1.0000
  H   H24       1.0  0.9831315125464073  0.31091420818950877  0.22298078640160673  1.0000
  H   H25       1.0  0.8317341121163581  0.33351899798133644  0.5048532163367625  1.0000
  H   H26       1.0  0.6682371116429165  0.49512809629882787  0.6664735668806472  1.0000
  H   H27       1.0  0.16822029377230766  0.6664670744488249  0.49512045968447893  1.0000
  H   H28       1.0  0.33176057296218897  0.504866085724906  0.33352699866377117  1.0000
  H   H29       1.0  0.8601178984043972  0.1407192901956194  0.43964943585155686  1.0000
  H   H30       1.0  0.6398885990775157  0.5602980573803152  0.8592672454401794  1.0000
  H   H31       1.0  0.13987957587843172  0.8592800192966192  0.5603223241072968  1.0000
  H   H32       1.0  0.36012414736013204  0.43964679024217895  0.14070934946459343  1.0000
  H   H33       1.0  0.3683772711325234  0.5361582814698949  0.040318719223108715  1.0000
  H   H34       1.0  0.13158274319815894  0.9596313929470239  0.4638032823653972  1.0000
  H   H35       1.0  0.631599532779994  0.46382313674728687  0.9596705297882976  1.0000
  H   H36       1.0  0.8684197968722032  0.040358441148640616  0.5361919014304277  1.0000
  H   H37       1.0  0.3820105123908561  0.8624514248560048  0.14179716147992857  1.0000
  H   H38       1.0  0.11796531822904656  0.8581606638119439  0.13754206536080466  1.0000
  H   H39       1.0  0.6180151848214238  0.1375320239995546  0.8581382943659932  1.0000
  H   H40       1.0  0.8820471913702264  0.14180392951301712  0.8624657767997093  1.0000
  H   H41       1.0  0.16830377966579854  0.45602934972568215  0.8956991756523108  1.0000
  H   H42       1.0  0.3317079159559313  0.10430315332764908  0.5439610247516526  1.0000
  H   H43       1.0  0.8317103217534765  0.5439538649555545  0.10429717997701718  1.0000
  H   H44       1.0  0.6683167430810287  0.895705384363154  0.4560359578017738  1.0000
  H   H45       1.0  0.0859854202429133  0.5504589076987328  0.8902583796832316  1.0000
  H   H46       1.0  0.4140078337786195  0.10975139735347031  0.44954540086900613  1.0000
  H   H47       1.0  0.9139980845021399  0.44952590206708  0.1097390858681919  1.0000
  H   H48       1.0  0.5859648290583195  0.8902743552793878  0.5504691426296799  1.0000
  H   H49       1.0  0.025456357525719422  0.6251713526246903  0.0784369128488151  1.0000
  H   H50       1.0  0.4745278818680987  0.9215731403584396  0.3747981532530743  1.0000
  H   H51       1.0  0.9745187530848511  0.3747951121409939  0.9215563756684446  1.0000
  H   H52       1.0  0.5254776003893298  0.0784579394001454  0.6251741557504716  1.0000
  H   H53       1.0  0.10928907022504572  0.5311553648874323  0.0848997127359965  1.0000
  H   H54       1.0  0.39068451087121764  0.9150799321241506  0.46881732855376856  1.0000
  H   H55       1.0  0.8906843198359341  0.4688200144609239  0.9150774210710182  1.0000
  H   H56       1.0  0.609310235369165  0.08491041180013068  0.531166952426517  1.0000
  H   H57       1.0  0.2161949276608013  0.7286666077889377  0.9671893682636606  1.0000
  H   H58       1.0  0.28373526202482685  0.0329377608361838  0.2714028115985485  1.0000
  H   H59       1.0  0.7837257966027594  0.2713715978217692  0.032879772997226595  1.0000
  H   H60       1.0  0.7161598056931098  0.9671754895167692  0.7286698092800705  1.0000
  C   C1        1.0  0.5903161118311786  0.5481854841698136  0.2971493567576858  1.0000
  C   C2        1.0  0.9097130021822722  0.7028736540649232  0.4518260912407257  1.0000
  C   C3        1.0  0.4096971861376346  0.45182345652573713  0.7028686467483283  1.0000
  C   C4        1.0  0.0903417297052869  0.29715492022916823  0.5481892731893651  1.0000
  C   C5        1.0  0.5955287946485655  0.6053482600104727  0.4108704223035814  1.0000
  C   C6        1.0  0.9045103089608446  0.5891524761326535  0.394657296267141  1.0000
  C   C7        1.0  0.4044773903089265  0.39465151183837577  0.5891530388553291  1.0000
  C   C8        1.0  0.0955558981407592  0.41088441180438906  0.6053537470150729  1.0000
  C   C9        1.0  0.6078875105020886  0.5509703000945336  0.4609444209285058  1.0000
  C   C10       1.0  0.8921202123003128  0.5390796009491722  0.4490323872529699  1.0000
  C   C11       1.0  0.3921083789432842  0.44902158715839846  0.539075610324673  1.0000
  C   C12       1.0  0.1079011650004986  0.4609541752844064  0.5509737739246531  1.0000
  C   C13       1.0  0.6190195259768102  0.4389634189717241  0.3980649279015863  1.0000
  C   C14       1.0  0.8809645904744628  0.6019462183192487  0.5610244783303457  1.0000
  C   C15       1.0  0.3809685492404071  0.5610233759922065  0.6019439094500213  1.0000
  C   C16       1.0  0.11903868712759193  0.39807566997060206  0.43897367183944885  1.0000
  C   C17       1.0  0.6130234014796301  0.3801400978626148  0.2843904171215996  1.0000
  C   C18       1.0  0.8869979895158268  0.715617499189392  0.6198636964023265  1.0000
  C   C19       1.0  0.38699448505222045  0.619868558772616  0.7156236747778094  1.0000
  C   C20       1.0  0.1130391154766599  0.28440250733019906  0.38014678639561333  1.0000
  C   C21       1.0  0.5974250839061171  0.43540831689860227  0.23494694436138985  1.0000
  C   C22       1.0  0.9026106796975812  0.7650721892156508  0.5646071873625758  1.0000
  C   C23       1.0  0.4026017761576526  0.5646002589550604  0.7650702992999495  1.0000
  C   C24       1.0  0.09745068939934501  0.23495992892052436  0.43541982328726897  1.0000
  C   C25       1.0  0.578911838717069  0.6041236336303512  0.24087971944351944  1.0000
  C   C26       1.0  0.9211281349421727  0.7591420300782515  0.3958818957437415  1.0000
  C   C27       1.0  0.4211077254545117  0.39588528706852333  0.7591413134189864  1.0000
  C   C28       1.0  0.07893649574718613  0.24087508664395327  0.6041326493982879  1.0000
  C   C29       1.0  0.687724259864254  0.07407530747660467  0.33847252537133704  1.0000
  C   C30       1.0  0.8122930205156962  0.6614932705606196  0.925886916480792  1.0000
  C   C31       1.0  0.3122835807184999  0.9259056884015562  0.6615062034306547  1.0000
  C   C32       1.0  0.18771805851749696  0.33848065619699946  0.07409629317810126  1.0000
  C   C33       1.0  0.5821882595829494  0.0973484063729728  0.301743332497054  1.0000
  C   C34       1.0  0.917813932310807  0.6982368856676542  0.902604558996579  1.0000
  C   C35       1.0  0.41780811851040073  0.9026242454035511  0.6982390315168702  1.0000
  C   C36       1.0  0.08218600996173822  0.30174598310852463  0.09737605321287643  1.0000
  C   C37       1.0  0.5653979564686082  0.20402024974097804  0.33809422814655943  1.0000
  C   C38       1.0  0.9345613586879085  0.6618987537163649  0.7959380928238957  1.0000
  C   C39       1.0  0.4345731150455592  0.7959530607373536  0.6618890512243991  1.0000
  C   C40       1.0  0.06540020574438192  0.3380986045254772  0.2040419792715085  1.0000
  C   C41       1.0  0.6565446840454001  0.288002467809754  0.4113769425317741  1.0000
  C   C42       1.0  0.8434060128395588  0.588614628155568  0.711966592937557  1.0000
  C   C43       1.0  0.3434052398132651  0.7119745577409444  0.5886064291634908  1.0000
  C   C44       1.0  0.15656603771993363  0.41137431855540996  0.2880096158219486  1.0000
  C   C45       1.0  0.7625673774554119  0.2661717084568522  0.4482715098784524  1.0000
  C   C46       1.0  0.7373882462865851  0.5517139553595242  0.7338156846524627  1.0000
  C   C47       1.0  0.23738845694650482  0.7338129984110252  0.5517082283539948  1.0000
  C   C48       1.0  0.2625932248440749  0.44827486742124006  0.2661811116294714  1.0000
  C   C49       1.0  0.7778605355195795  0.15928558727824788  0.41193597858551806  1.0000
  C   C50       1.0  0.7221402043683584  0.5880339342340192  0.840702999542394  1.0000
  C   C51       1.0  0.22213369737523447  0.8407060714879864  0.5880415950494325  1.0000
  C   C52       1.0  0.27786589700431114  0.41193898200359047  0.1592907882666381  1.0000
  C   C53       1.0  0.7038875779546885  0.9592909489039698  0.2995706096641585  1.0000
  C   C54       1.0  0.7961705280645718  0.7004054236069734  0.04068480188929161  1.0000
  C   C55       1.0  0.29613263996999717  0.04069491612025899  0.7004167733046884  1.0000
  C   C56       1.0  0.20384224663854414  0.2995789129670213  0.9593000040412534  1.0000
  C   C57       1.0  0.3471235176298677  0.6098052868651677  0.0476391244548822  1.0000
  C   C58       1.0  0.15290175492226873  0.952310662321686  0.3901625279223069  1.0000
  C   C59       1.0  0.6528816916564182  0.39017216281050787  0.9523483008388993  1.0000
  C   C60       1.0  0.8471139685022352  0.04768202552819641  0.6098322408589212  1.0000
  C   C61       1.0  0.36329028900954097  0.7742520546952036  0.08402237568976288  1.0000
  C   C62       1.0  0.136697836667679  0.915999355124043  0.22573944399156418  1.0000
  C   C63       1.0  0.6366860286836628  0.2257316403521017  0.9160002376230595  1.0000
  C   C64       1.0  0.8632863294550078  0.08404594584568058  0.7742720464672671  1.0000
  C   C65       1.0  0.13668604929998202  0.5369039411302764  0.9465477246810677  1.0000
  C   C66       1.0  0.3633180141454062  0.0534756590989218  0.4630796414742875  1.0000
  C   C67       1.0  0.863309014110861  0.4630753686209842  0.05345821143927754  1.0000
  C   C68       1.0  0.6366920459425601  0.94655961419884  0.5369179508643357  1.0000
  C   C69       1.0  0.05518481589364651  0.5431824025476644  0.028818312979346693  1.0000
  C   C70       1.0  0.44479146856113533  0.9711714317392218  0.45678860684068906  1.0000
  C   C71       1.0  0.9447847889333616  0.456792364869031  0.9711609619882466  1.0000
  C   C72       1.0  0.5551875681391537  0.02881799762944579  0.5431661303971538  1.0000
  N   N1        1.0  0.4181262155864474  0.7037979955714065  0.10028916354348642  1.0000
  N   N2        1.0  0.08193141378116313  0.8996553640318014  0.29617514876063206  1.0000
  N   N3        1.0  0.5818785998664069  0.2961872467941831  0.8996936567388332  1.0000
  N   N4        1.0  0.9180864142999994  0.10032295183956558  0.703820832429912  1.0000
  N   N5        1.0  0.2429791551183484  0.7256074901460321  0.03226853597372772  1.0000
  N   N6        1.0  0.25698529060196773  0.9678068029986946  0.2743878117092038  1.0000
  N   N7        1.0  0.7569956878383125  0.27438102003925013  0.9677719691420066  1.0000
  N   N8        1.0  0.7430006374362534  0.032260051105240016  0.7256244853214397  1.0000
  N   N9        1.0  0.24567456265946672  0.6143805888588786  0.9954889990411006  1.0000
  N   N10       1.0  0.2543217905084063  0.0045237703277934  0.3856064705571001  1.0000
  N   N11       1.0  0.7543063003717665  0.3856085765391768  0.0045334234308853595  1.0000
  N   N12       1.0  0.7456668469724692  0.9955226401097119  0.61441458045406  1.0000
  O   O1        1.0  0.5472922798809422  0.548423785507765  0.13940121971405975  1.0000
  O   O2        1.0  0.9527721622360802  0.8606173703260251  0.4515982195216494  1.0000
  O   O3        1.0  0.45277046190097553  0.4515879219135499  0.8606163824180443  1.0000
  O   O4        1.0  0.0472698966446359  0.13940473053650487  0.5484445005167089  1.0000
  O   O5        1.0  0.6033682209037254  0.7094624267098341  0.29748876079688114  1.0000
  O   O6        1.0  0.8966127888160572  0.7025485329812111  0.2905575081940056  1.0000
  O   O7        1.0  0.39661764742320577  0.290560389689233  0.7025571635765643  1.0000
  O   O8        1.0  0.10340459198307879  0.29747948608345337  0.7094607920973814  1.0000
  O   O9        1.0  0.6430630651232789  0.39653320587739666  0.45774090885266355  1.0000
  O   O10       1.0  0.8568364563977655  0.5422532339645939  0.603421381037208  1.0000
  O   O11       1.0  0.35685607362029265  0.6034289129919584  0.5422495588660681  1.0000
  O   O12       1.0  0.1431115335300746  0.4577479438130678  0.39654720232591245  1.0000
  O   O13       1.0  0.6188647433442186  0.8858992097675865  0.2319133629787231  1.0000
  O   O14       1.0  0.8811720114727777  0.768027464849659  0.1140669489189532  1.0000
  O   O15       1.0  0.38114409879554506  0.11408264157929437  0.7680672178729253  1.0000
  O   O16       1.0  0.11883138263144842  0.2319330971616793  0.8859167777693032  1.0000
  O   O17       1.0  0.8000563309506674  0.9438225039681923  0.3382965628262015  1.0000
  O   O18       1.0  0.6999598827568009  0.6616804126778317  0.056148747207764305  1.0000
  O   O19       1.0  0.19995096035920315  0.056180184515220284  0.6617030296464462  1.0000
  O   O20       1.0  0.30002314975417493  0.33832034040041487  0.943829658657485  1.0000
