data_image0
_chemical_formula_structural       Co6H54C48O18
_chemical_formula_sum              "Co6 H54 C48 O18"
_cell_length_a       6.775907722318472
_cell_length_b       15.163928371044282
_cell_length_c       15.16171755601947
_cell_angle_alpha    117.83034710065557
_cell_angle_beta     98.58074869762865
_cell_angle_gamma    98.53138119434983

_space_group_name_H-M_alt    "P 1"
_space_group_IT_number       1

loop_
  _space_group_symop_operation_xyz
  'x, y, z'

loop_
  _atom_site_type_symbol
  _atom_site_label
  _atom_site_symmetry_multiplicity
  _atom_site_fract_x
  _atom_site_fract_y
  _atom_site_fract_z
  _atom_site_occupancy
  Co  Co1       1.0  0.12438022278006139  0.593575979633883  0.3245481029619057  1.0000
  Co  Co2       1.0  0.7998596594009155  0.6755281995469249  0.26921137962665387  1.0000
  Co  Co3       1.0  0.5309344929130261  0.7309162405350663  0.40642664885723423  1.0000
  Co  Co4       1.0  0.8756079393274733  0.40644303767862083  0.6754749735356214  1.0000
  Co  Co5       1.0  0.20009873776050574  0.3244700286876992  0.7307947157077237  1.0000
  Co  Co6       1.0  0.46906409423596057  0.2690996939951305  0.5935897574793927  1.0000
  H   H1        1.0  0.8155165815370397  0.4410385652482916  0.4649140505317463  1.0000
  H   H2        1.0  0.3505311206589354  0.5349684618672016  0.9761757269315722  1.0000
  H   H3        1.0  0.3743599681436436  0.023689923370042703  0.5589076488980425  1.0000
  H   H4        1.0  0.18446806934142776  0.5589642770045774  0.5350794797544226  1.0000
  H   H5        1.0  0.6494394144753031  0.46504825003504663  0.023858935341550643  1.0000
  H   H6        1.0  0.6256137943120806  0.9763090704198165  0.4410859898429251  1.0000
  H   H7        1.0  0.12523537628553782  0.40146935562188457  0.1353697655461517  1.0000
  H   H8        1.0  0.9894493282969706  0.8646436934234887  0.2661443084928122  1.0000
  H   H9        1.0  0.723052027646169  0.7337831605063772  0.5982225073306395  1.0000
  H   H10       1.0  0.8747563188373846  0.5984818910860882  0.864604793565654  1.0000
  H   H11       1.0  0.01057962035045529  0.1354114981893773  0.7338192452321906  1.0000
  H   H12       1.0  0.27695867567921784  0.26622738682282693  0.40182056519822146  1.0000
  H   H13       1.0  0.37512603016435253  0.452123073720955  0.2330706675091037  1.0000
  H   H14       1.0  0.1415246421721078  0.7667948810506787  0.2191082591941083  1.0000
  H   H15       1.0  0.9223072496941215  0.7807590347636764  0.5475433359564974  1.0000
  H   H16       1.0  0.6248678451969596  0.547823551742056  0.7668992452360824  1.0000
  H   H17       1.0  0.8585453064421388  0.2332826374649103  0.7808691343087162  1.0000
  H   H18       1.0  0.07769968071075792  0.21924997372995145  0.4525033811299863  1.0000
  H   H19       1.0  0.22786826606417782  0.37401878999462923  0.324562826900241  1.0000
  H   H20       1.0  0.9024339749956737  0.6753233993012275  0.04953719928671779  1.0000
  H   H21       1.0  0.8533685686571886  0.9504532518160931  0.6258986760326408  1.0000
  H   H22       1.0  0.7721432717155635  0.6259124321608097  0.6754050513771332  1.0000
  H   H23       1.0  0.09762627424323969  0.32471100031659733  0.9504438330673323  1.0000
  H   H24       1.0  0.1466545128221952  0.0495611438907275  0.3741450481058664  1.0000
  H   H25       1.0  0.9233891784652287  0.22600353189944403  0.21461000302536348  1.0000
  H   H26       1.0  0.7082417602506864  0.7853383944945306  0.01133964322418979  1.0000
  H   H27       1.0  0.6971460653037056  0.9885712915515584  0.7740111772337385  1.0000
  H   H28       1.0  0.07657768198642852  0.7739369391378901  0.7853697262947251  1.0000
  H   H29       1.0  0.2917245984809327  0.21465443313474003  0.9886136848007965  1.0000
  H   H30       1.0  0.3028742537585956  0.0114585064921897  0.2260415225870531  1.0000
  H   H31       1.0  0.8461184792509259  0.33682903203487075  0.2896688706266843  1.0000
  H   H32       1.0  0.5557042763619364  0.7104668325252919  0.04712934238673945  1.0000
  H   H33       1.0  0.5090038778912246  0.9529815826730045  0.6633261825736766  1.0000
  H   H34       1.0  0.15387567998680393  0.6631299103740388  0.7102824021380413  1.0000
  H   H35       1.0  0.4443248650505323  0.2895383114992072  0.9528544135441025  1.0000
  H   H36       1.0  0.490996137249418  0.047013564955875616  0.33671162457265774  1.0000
  H   H37       1.0  0.6199876004681284  0.24341331261513946  0.11223241618338876  1.0000
  H   H38       1.0  0.507253190049731  0.8879577448036076  0.13103138951791504  1.0000
  H   H39       1.0  0.37631399908524804  0.8689301710071506  0.7566442656184904  1.0000
  H   H40       1.0  0.3800311064871025  0.7565410063339261  0.8877203357415056  1.0000
  H   H41       1.0  0.49272028418412367  0.1120373924530966  0.8689254746098953  1.0000
  H   H42       1.0  0.6237262010539552  0.13108576545214856  0.24341782143206814  1.0000
  H   H43       1.0  0.8345097432362537  0.24998367883917186  0.05899987184874078  1.0000
  H   H44       1.0  0.7750241551813347  0.9410423183975428  0.19079235225886054  1.0000
  H   H45       1.0  0.5843008869760526  0.8091157558529292  0.7500391561690947  1.0000
  H   H46       1.0  0.16552463269312065  0.7499483073937514  0.9409534152875807  1.0000
  H   H47       1.0  0.22494934314916287  0.05897360730967451  0.8091531031434798  1.0000
  H   H48       1.0  0.4157682761963528  0.19091634872682312  0.2500344049790826  1.0000
  H   H49       1.0  0.7620366553440691  0.36427638785892213  0.13705028432326574  1.0000
  H   H50       1.0  0.6245584806917606  0.8632075325305454  0.22719388952346276  1.0000
  H   H51       1.0  0.3975332483832972  0.7728491291397289  0.6357265954473376  1.0000
  H   H52       1.0  0.23802002842021625  0.6356733059277463  0.8629055119019214  1.0000
  H   H53       1.0  0.37545940100998365  0.13681378191991206  0.7727808187649714  1.0000
  H   H54       1.0  0.6025123339821973  0.2271567983351446  0.36434701617228166  1.0000
  C   C1        1.0  0.7461727168957779  0.5618895417469717  0.3886516798143731  1.0000
  C   C2        1.0  0.35758439058000846  0.6113469920572144  0.17331263515001896  1.0000
  C   C3        1.0  0.18427018031431433  0.8266983742108992  0.43806424520246173  1.0000
  C   C4        1.0  0.2538111539686058  0.43811176091576004  0.6113437180083778  1.0000
  C   C5        1.0  0.6423809518108144  0.3886681780591702  0.8267077664366695  1.0000
  C   C6        1.0  0.8156992758288483  0.1733129420350679  0.561938147714045  1.0000
  C   C7        1.0  0.43636155818836647  0.567677189585446  0.46708163967679184  1.0000
  C   C8        1.0  0.9693508222298275  0.5329887070160028  0.10063352960871433  1.0000
  C   C9        1.0  0.8687145954697257  0.8994362944053763  0.4323062667759459  1.0000
  C   C10       1.0  0.5636278573949625  0.4323233439914702  0.5329236670419064  1.0000
  C   C11       1.0  0.030633168883809975  0.4670280020161215  0.8993961035046849  1.0000
  C   C12       1.0  0.1312694351985257  0.10057424827272851  0.5676881748036706  1.0000
  C   C13       1.0  0.675609190757811  0.4662659329861684  0.4793450781667161  1.0000
  C   C14       1.0  0.19619938897910316  0.5205645162956358  0.9869341756892637  1.0000
  C   C15       1.0  0.20929462583087138  0.013027342788120701  0.5336755323063969  1.0000
  C   C16       1.0  0.3243668468208157  0.5337346000749223  0.5206461342421278  1.0000
  C   C17       1.0  0.8037771780658572  0.4794552744139581  0.013098372274043825  1.0000
  C   C18       1.0  0.7906721213846951  0.9869755016569787  0.4663154715062845  1.0000
  C   C19       1.0  0.617467409294605  0.5326526079321567  0.4461705161160411  1.0000
  C   C20       1.0  0.17130007419956428  0.5537795426025482  0.08652680023632794  1.0000
  C   C21       1.0  0.08475709298240726  0.913496828104016  0.4672547749109413  1.0000
  C   C22       1.0  0.38252982535344415  0.4673425312275085  0.5538169730824903  1.0000
  C   C23       1.0  0.8286803472065144  0.4462479480425969  0.9135076203537906  1.0000
  C   C24       1.0  0.9152152200738043  0.08650216401988331  0.5327282123157957  1.0000
  C   C25       1.0  0.21298704536787486  0.41111199289603223  0.2070051073813204  1.0000
  C   C26       1.0  0.005543505348214304  0.7929805521274177  0.20418465860313967  1.0000
  C   C27       1.0  0.8012789480826826  0.7957563370872054  0.5886455438856685  1.0000
  C   C28       1.0  0.7870150664439917  0.588812299577235  0.792957583673143  1.0000
  C   C29       1.0  0.9945128078841705  0.2070815654575426  0.7957780362284552  1.0000
  C   C30       1.0  0.1987407858259758  0.2042603703626114  0.4114049684943594  1.0000
  C   C31       1.0  0.13058070673950792  0.365244990841923  0.25515781097765716  1.0000
  C   C32       1.0  0.8748226932330994  0.7448283763243425  0.11015840891128198  1.0000
  C   C33       1.0  0.764912913071818  0.8898412893277126  0.6346616283596801  1.0000
  C   C34       1.0  0.8694263399476441  0.6346831502024062  0.7448004125042615  1.0000
  C   C35       1.0  0.12521526688996693  0.25520910442377  0.8898100244883906  1.0000
  C   C36       1.0  0.2350914359439358  0.11016848878148981  0.36538065653966356  1.0000
  C   C37       1.0  0.9148486947955448  0.3018962134866144  0.22366469413456966  1.0000
  C   C38       1.0  0.6905864983095142  0.7763666932743408  0.0782076551531858  1.0000
  C   C39       1.0  0.612643583684715  0.9217852108609607  0.6981224137821584  1.0000
  C   C40       1.0  0.08514818422731464  0.6980504107548102  0.7763008038696455  1.0000
  C   C41       1.0  0.3094113914005164  0.2236415334435834  0.921764876306483  1.0000
  C   C42       1.0  0.3873599580405624  0.07821994652433521  0.301915682911627  1.0000
  C   C43       1.0  0.775557028735541  0.2891737038351608  0.1275624127993353  1.0000
  C   C44       1.0  0.6474831079063108  0.8725744524157408  0.16149440865642356  1.0000
  C   C45       1.0  0.4861015509574997  0.838457117188689  0.7108384051172648  1.0000
  C   C46       1.0  0.224482737384065  0.7107690625643955  0.8723949467604937  1.0000
  C   C47       1.0  0.3525130207604263  0.1274360817565494  0.8384619316297302  1.0000
  C   C48       1.0  0.5139215282216654  0.16156036093622825  0.2892186284932308  1.0000
  O   O1        1.0  0.6773569103500635  0.612360819865579  0.3470786999596243  1.0000
  O   O2        1.0  0.3302324928275056  0.6529967113964689  0.2653673227009179  1.0000
  O   O3        1.0  0.06492274873471618  0.734677716691806  0.38788259164054034  1.0000
  O   O4        1.0  0.32263533593319943  0.3876543448608346  0.6529336215975547  1.0000
  O   O5        1.0  0.6697407966574787  0.3470045985191135  0.734660342179886  1.0000
  O   O6        1.0  0.9350525929592166  0.26532743776236606  0.6121153460593475  1.0000
  O   O7        1.0  0.36693622526127717  0.631557692019847  0.4389013522078002  1.0000
  O   O8        1.0  0.9281126700570966  0.5612167604664509  0.19268639532961623  1.0000
  O   O9        1.0  0.7354671841846  0.8074429811289293  0.3683846740522512  1.0000
  O   O10       1.0  0.6330476486804526  0.3684466928274617  0.5611060362269669  1.0000
  O   O11       1.0  0.0718731708296687  0.43879763725833953  0.8073376677677758  1.0000
  O   O12       1.0  0.2645116948490979  0.1925721826146258  0.6316109154751501  1.0000
  O   O13       1.0  0.9142440986097073  0.5353953495031832  0.3794557328293847  1.0000
  O   O14       1.0  0.5348171729774122  0.6205434097224938  0.1560563253297146  1.0000
  O   O15       1.0  0.37878354124480035  0.8439504660524904  0.4643853263854039  1.0000
  O   O16       1.0  0.08573187404957854  0.4646021040587344  0.6205386558571176  1.0000
  O   O17       1.0  0.46514823971032365  0.37947483965955103  0.8439595811193499  1.0000
  O   O18       1.0  0.6211906392714752  0.15605854326887686  0.5356387344134106  1.0000
