data_image0
_chemical_formula_structural       Mn2H56C60N4O12
_chemical_formula_sum              "Mn2 H56 C60 N4 O12"
_cell_length_a       4.609220149047121
_cell_length_b       12.062684384484731
_cell_length_c       23.05985001279549
_cell_angle_alpha    95.27846629877958
_cell_angle_beta     90.00049970957153
_cell_angle_gamma    90.00009329487948

_space_group_name_H-M_alt    "P 1"
_space_group_IT_number       1

loop_
  _space_group_symop_operation_xyz
  'x, y, z'

loop_
  _atom_site_type_symbol
  _atom_site_label
  _atom_site_symmetry_multiplicity
  _atom_site_fract_x
  _atom_site_fract_y
  _atom_site_fract_z
  _atom_site_occupancy
  Mn  Mn1       1.0  4.505073377500003e-06  5.511668916948694e-07  0.9999987062958057  1.0000
  Mn  Mn2       1.0  0.499993498268516  0.9999994389445632  0.5000009300117725  1.0000
  H   H1        1.0  0.5671055972339616  0.06303205682443999  0.23750764397289  1.0000
  H   H2        1.0  0.06711668173619499  0.9369648570497088  0.262499342123661  1.0000
  H   H3        1.0  0.43287278087591113  0.9369654087028823  0.7624920884530582  1.0000
  H   H4        1.0  0.9328877311331137  0.0630342864753288  0.7374996105496835  1.0000
  H   H5        1.0  0.3328772452478717  0.07731167583217768  0.33497902421859044  1.0000
  H   H6        1.0  0.8328904840981437  0.9226838299348048  0.1650279160848385  1.0000
  H   H7        1.0  0.6671033024453337  0.9226857767269294  0.6650215748671897  1.0000
  H   H8        1.0  0.16710525055677292  0.07731695266387818  0.8349728567785988  1.0000
  H   H9        1.0  0.9829556261734705  0.22714168404652918  0.36390617714193496  1.0000
  H   H10       1.0  0.48296266116442865  0.7728565254994278  0.1360968280871404  1.0000
  H   H11       1.0  0.017033599786863404  0.7728616025580167  0.636094292709835  1.0000
  H   H12       1.0  0.5170178865842203  0.22714923268686957  0.8639055053957493  1.0000
  H   H13       1.0  0.8597340593038183  0.37046506351231295  0.2971917078305779  1.0000
  H   H14       1.0  0.3597325587340308  0.6295330104702045  0.20281237742093342  1.0000
  H   H15       1.0  0.1402595057542584  0.6295374100400295  0.7028074185971962  1.0000
  H   H16       1.0  0.6402631759357575  0.3704694306600658  0.797188915653507  1.0000
  H   H17       1.0  0.8282301895070887  0.5015830269493761  0.2024521688563752  1.0000
  H   H18       1.0  0.3282235997607685  0.4984175213551509  0.2975515571487151  1.0000
  H   H19       1.0  0.1717807320379023  0.49841946606500187  0.797545657600054  1.0000
  H   H20       1.0  0.6718003392139238  0.5015807702171173  0.7024486520878668  1.0000
  H   H21       1.0  0.8905056451549103  0.5813326971815514  0.1082674254139633  1.0000
  H   H22       1.0  0.39048981960762325  0.4186695683292853  0.39173693195875353  1.0000
  H   H23       1.0  0.1095009372382663  0.4186656397748718  0.8917297505045099  1.0000
  H   H24       1.0  0.609503745536955  0.581336183378525  0.608265834864703  1.0000
  H   H25       1.0  0.2267364250755364  0.4934761220489321  0.0327535214117489  1.0000
  H   H26       1.0  0.7267242396237847  0.5065226396657466  0.46725166985053335  1.0000
  H   H27       1.0  0.7732614790410535  0.5065163873466716  0.9672433504117848  1.0000
  H   H28       1.0  0.2732671559550397  0.4934856160499735  0.5327507939651213  1.0000
  H   H29       1.0  0.5081289636997397  0.3233593783450601  0.050746079678653196  1.0000
  H   H30       1.0  0.008131928619711497  0.6766366669002579  0.44925945770648923  1.0000
  H   H31       1.0  0.49186894043306495  0.6766322855731984  0.9492516153617458  1.0000
  H   H32       1.0  0.9918833321108593  0.32336578720845205  0.5507409687274888  1.0000
  H   H33       1.0  0.791560544533759  0.1102676721897851  0.1561928800733412  1.0000
  H   H34       1.0  0.2915489502620403  0.8897344936073778  0.3438117340100391  1.0000
  H   H35       1.0  0.20843735965853227  0.8897306258548382  0.8438068958110635  1.0000
  H   H36       1.0  0.7084402757618306  0.11027375562270691  0.6561911631326254  1.0000
  H   H37       1.0  0.8012574508844069  0.19785482174445693  0.0998681338669059  1.0000
  H   H38       1.0  0.30126530628339054  0.8021498442384783  0.4001370611953377  1.0000
  H   H39       1.0  0.19873177506239872  0.8021443023195685  0.9001321187797301  1.0000
  H   H40       1.0  0.6987412761976515  0.19785510739045256  0.5998634955539757  1.0000
  H   H41       1.0  0.03576672817867179  0.7900859006430141  0.0897274811227717  1.0000
  H   H42       1.0  0.5357833435205919  0.20991356552903534  0.41027394608401124  1.0000
  H   H43       1.0  0.9642376846825441  0.2099165858836756  0.9102707786567876  1.0000
  H   H44       1.0  0.46422540857348327  0.7900830091429255  0.5897296428885427  1.0000
  H   H45       1.0  0.2652469723288746  0.6905735813564885  0.04936418400336609  1.0000
  H   H46       1.0  0.7652701115101196  0.30942859857077554  0.4506377831662718  1.0000
  H   H47       1.0  0.7347531014291846  0.3094280532061973  0.9506353323181359  1.0000
  H   H48       1.0  0.23473864055694088  0.690571332072075  0.5493642462546049  1.0000
  H   H49       1.0  0.9236159128167927  0.7265632774199915  0.019949296549484095  1.0000
  H   H50       1.0  0.4236315402970234  0.2734365736564541  0.4800515230001637  1.0000
  H   H51       1.0  0.0763798218110878  0.2734350206236087  0.9800504793329807  1.0000
  H   H52       1.0  0.5763685335177939  0.7265650219985176  0.5199505932950217  1.0000
  H   H53       1.0  0.4091694986679001  0.8802749225091516  0.03709445700384609  1.0000
  H   H54       1.0  0.909179356535603  0.1197232110285142  0.4629088498446947  1.0000
  H   H55       1.0  0.5908262359059292  0.11972424695026257  0.9629027623459693  1.0000
  H   H56       1.0  0.09082071736435178  0.8802783262648928  0.5370971664110087  1.0000
  C   C1        1.0  0.34773203487446114  0.21176305949683177  0.21279623041923662  1.0000
  C   C2        1.0  0.8477392007096257  0.7882333770723658  0.2872051465600549  1.0000
  C   C3        1.0  0.6522528519191867  0.7882344125181716  0.7872030686835814  1.0000
  C   C4        1.0  0.1522782294893972  0.211765805366511  0.7127912061512305  1.0000
  C   C5        1.0  0.4150542576516045  0.1301923586251021  0.24990131011475822  1.0000
  C   C6        1.0  0.9150666541016007  0.8698074130518023  0.2501042607674293  1.0000
  C   C7        1.0  0.584932798702411  0.8698067848917574  0.7500976425430964  1.0000
  C   C8        1.0  0.0849486065992267  0.13019172399372536  0.7498951252445495  1.0000
  C   C9        1.0  0.282158799634793  0.1384215042557173  0.3044557499353573  1.0000
  C   C10       1.0  0.7821731152007628  0.8615756317077512  0.19555032005818163  1.0000
  C   C11       1.0  0.717828256753016  0.8615792848234919  0.6955445895913925  1.0000
  C   C12       1.0  0.2178291281108926  0.1384226728235376  0.8044490225011529  1.0000
  C   C13       1.0  0.0850088606138968  0.2243284855810401  0.3212605061598524  1.0000
  C   C14       1.0  0.5850134006677693  0.7756668060816381  0.1787446916912643  1.0000
  C   C15       1.0  0.9149803653261583  0.7756714774757044  0.6787393565988609  1.0000
  C   C16       1.0  0.4149801643970648  0.22433482847797848  0.8212548246244253  1.0000
  C   C17       1.0  0.015111356808276398  0.30481003425332187  0.28389129830171816  1.0000
  C   C18       1.0  0.5151150216214759  0.6951868565642128  0.21611386166005528  1.0000
  C   C19       1.0  0.9848865473691574  0.6951924457856793  0.7161073948009786  1.0000
  C   C20       1.0  0.4848937304239555  0.30481225453976885  0.7838872576618954  1.0000
  C   C21       1.0  0.14757073272706833  0.2993423912475919  0.22908631854977562  1.0000
  C   C22       1.0  0.6475724777133678  0.700652972331952  0.2709181243170847  1.0000
  C   C23       1.0  0.8524206627544046  0.7006534157542675  0.770912893676794  1.0000
  C   C24       1.0  0.35244495252754154  0.2993445126676235  0.729080308156881  1.0000
  C   C25       1.0  0.132697451931854  0.3671120247062234  0.18061199746404102  1.0000
  C   C26       1.0  0.6326945217183423  0.6328875068511479  0.3193913360673761  1.0000
  C   C27       1.0  0.867296113112694  0.6328862863055988  0.8193869117585919  1.0000
  C   C28       1.0  0.3673207389946498  0.36711245621786753  0.6806085267145789  1.0000
  C   C29       1.0  0.9770571763451341  0.4627336892474361  0.1699430621307911  1.0000
  C   C30       1.0  0.4770369849633979  0.5372628367424354  0.3300607123207868  1.0000
  C   C31       1.0  0.022942897369674097  0.5372663062375125  0.8300546339928658  1.0000
  C   C32       1.0  0.5229674279126684  0.46273546778987656  0.6699386302404804  1.0000
  C   C33       1.0  0.013472278591685  0.507362518948149  0.1167503062271322  1.0000
  C   C34       1.0  0.513458531463172  0.49263856528038014  0.38325290135366435  1.0000
  C   C35       1.0  0.9865364733483233  0.49263332696960305  0.8832463060412437  1.0000
  C   C36       1.0  0.4865415423273375  0.5073672188535951  0.6167476988308707  1.0000
  C   C37       1.0  0.20320832984785397  0.4574678425322318  0.0742317476809049  1.0000
  C   C38       1.0  0.7032009915071527  0.5425342011093193  0.4257753086667506  1.0000
  C   C39       1.0  0.796791743857483  0.5425263189113636  0.9257660776845142  1.0000
  C   C40       1.0  0.2968077605815509  0.45747238959837233  0.5742270682823403  1.0000
  C   C41       1.0  0.3610354664825763  0.3620032214235209  0.08362522492029  1.0000
  C   C42       1.0  0.8610237810216432  0.6379931887642414  0.4163787757631567  1.0000
  C   C43       1.0  0.6389602681128466  0.63799092704879  0.916373467099149  1.0000
  C   C44       1.0  0.13898497099677343  0.3620092783106372  0.5836207840071168  1.0000
  C   C45       1.0  0.3248872598478201  0.3178756606645408  0.1370835214766402  1.0000
  C   C46       1.0  0.8248907797784496  0.6821265170879867  0.3629224520969672  1.0000
  C   C47       1.0  0.6751106443174351  0.6821201528249999  0.8629152574267919  1.0000
  C   C48       1.0  0.1751288200566137  0.3178742849757866  0.6370770208009376  1.0000
  C   C49       1.0  0.6528488647021645  0.1507791482005914  0.1257903095307995  1.0000
  C   C50       1.0  0.15285578530445323  0.8492195503871331  0.374214316526519  1.0000
  C   C51       1.0  0.34714470035859796  0.8492183173338859  0.874209422908706  1.0000
  C   C52       1.0  0.8471486276148851  0.15078623374888878  0.6257862836618813  1.0000
  C   C53       1.0  0.5035274889858173  0.06352884114423321  0.08366054024720881  1.0000
  C   C54       1.0  0.0035236023566796  0.9364722402030733  0.4163422162614907  1.0000
  C   C55       1.0  0.49646824563260594  0.9364694633839862  0.9163388023063135  1.0000
  C   C56       1.0  0.9964699627662483  0.06352685143989589  0.5836602030337517  1.0000
  C   C57       1.0  0.1095395728586297  0.7587372102253054  0.04593233989477599  1.0000
  C   C58       1.0  0.6095538961912581  0.24125900191034327  0.45406861190519987  1.0000
  C   C59       1.0  0.8904648400444657  0.24126357886208177  0.9540679996474637  1.0000
  C   C60       1.0  0.39045485585146616  0.7587392766855388  0.5459324639757241  1.0000
  N   N1        1.0  0.45495507089241727  0.22549627966572672  0.1576630895263094  1.0000
  N   N2        1.0  0.9549624199765248  0.7744984826797746  0.3423457585617697  1.0000
  N   N3        1.0  0.5450363246106847  0.7745003468750086  0.8423370327991719  1.0000
  N   N4        1.0  0.0450528407715964  0.22550062194265755  0.6576557940949357  1.0000
  O   O1        1.0  0.6530835713180635  0.9778512281734772  0.06398327557144508  1.0000
  O   O2        1.0  0.1530766872109268  0.022149142129727295  0.436021004445628  1.0000
  O   O3        1.0  0.3469143328688133  0.022145404854939  0.936016413430906  1.0000
  O   O4        1.0  0.8469168779593018  0.977849917090154  0.5639835814943481  1.0000
  O   O5        1.0  0.2449389964710704  0.0813940502203891  0.06913446697368641  1.0000
  O   O6        1.0  0.7449334676470727  0.918608969004751  0.43086577404482546  1.0000
  O   O7        1.0  0.755056738127081  0.9186067712860005  0.9308637059160745  1.0000
  O   O8        1.0  0.2550600974758551  0.08139012263822558  0.5691366452504099  1.0000
  O   O9        1.0  0.23723314607377693  0.8455092262858555  0.015632036977770287  1.0000
  O   O10       1.0  0.7372440890003701  0.15449126870803548  0.48436935996387126  1.0000
  O   O11       1.0  0.7627669276383316  0.15448993669098604  0.9843656157048599  1.0000
  O   O12       1.0  0.2627559848590407  0.8455094620157408  0.5156348795350212  1.0000
