data_image0
_chemical_formula_structural       K8H32C16S36O4
_chemical_formula_sum              "K8 H32 C16 S36 O4"
_cell_length_a       8.891311720002873
_cell_length_b       9.776909061004117
_cell_length_c       18.531586319012167
_cell_angle_alpha    90.0000995468434
_cell_angle_beta     90.00008119260515
_cell_angle_gamma    89.99995660780644

_space_group_name_H-M_alt    "P 1"
_space_group_IT_number       1

loop_
  _space_group_symop_operation_xyz
  'x, y, z'

loop_
  _atom_site_type_symbol
  _atom_site_label
  _atom_site_symmetry_multiplicity
  _atom_site_fract_x
  _atom_site_fract_y
  _atom_site_fract_z
  _atom_site_occupancy
  K   K1        1.0  0.27464021836547664  0.4305525553685925  0.250000468391022  1.0000
  K   K2        1.0  0.7253606826261318  0.5694478541673009  0.7499994319417951  1.0000
  K   K3        1.0  0.22536139710755526  0.4305513749717065  0.7500002813337756  1.0000
  K   K4        1.0  0.7746383791905913  0.5694510802017946  0.2500001586187821  1.0000
  K   K5        1.0  0.24999965870524934  0.4915610219474402  0.5000006718089409  1.0000
  K   K6        1.0  0.7500008642766931  0.5084412579656218  0.9999995976511042  1.0000
  K   K7        1.0  0.7500012422867571  0.5084404104075163  0.4999997681435388  1.0000
  K   K8        1.0  0.2499992806952065  0.4915577782311261  0.9999994220762572  1.0000
  H   H1        1.0  0.1331090555870489  0.18278839007736994  0.35806067660045926  1.0000
  H   H2        1.0  0.8668910434591554  0.8172113629904916  0.8580599557110986  1.0000
  H   H3        1.0  0.3668916328733545  0.18277753640011704  0.6419376942278487  1.0000
  H   H4        1.0  0.6331111947620017  0.8172112557856581  0.14194147412113978  1.0000
  H   H5        1.0  0.8668907207115242  0.8172109966407818  0.6419392237315192  1.0000
  H   H6        1.0  0.1331087328406326  0.18278700091043024  0.1419404842396403  1.0000
  H   H7        1.0  0.6331081434256164  0.817222873137098  0.3580627457237994  1.0000
  H   H8        1.0  0.3668885815365713  0.18278813093249374  0.8580584262108458  1.0000
  H   H9        1.0  0.1457967386285475  0.012594455908683203  0.32351094551669485  1.0000
  H   H10       1.0  0.8542010078392935  0.9874051800277077  0.8235098278851751  1.0000
  H   H11       1.0  0.3542018362392271  0.012583728472940002  0.6764899719997286  1.0000
  H   H12       1.0  0.6457988452010924  0.9874082493021845  0.1764901344972216  1.0000
  H   H13       1.0  0.8542019129769758  0.9874059536289368  0.676489494434577  1.0000
  H   H14       1.0  0.1458010178469777  0.012592161053341001  0.17649007244665424  1.0000
  H   H15       1.0  0.6457968153650812  0.9874177038819026  0.3235099283327827  1.0000
  H   H16       1.0  0.354202055791319  0.0125921602346253  0.8235103054548033  1.0000
  H   H17       1.0  0.8812719277949058  0.20736534243332022  0.3129714369249043  1.0000
  H   H18       1.0  0.1187280365853525  0.7926332349570943  0.8129728893087886  1.0000
  H   H19       1.0  0.6187251735249079  0.20736402506735627  0.6870267522800899  1.0000
  H   H20       1.0  0.38127216530509145  0.7926341253421328  0.18702818252930337  1.0000
  H   H21       1.0  0.11872784850204711  0.7926340442829984  0.6870273841686512  1.0000
  H   H22       1.0  0.8812717397124105  0.20736615176014084  0.18702647140398193  1.0000
  H   H23       1.0  0.38127460277326014  0.792636384468942  0.31297314805234316  1.0000
  H   H24       1.0  0.6187276109930552  0.20736832983136821  0.8129722574232614  1.0000
  H   H25       1.0  0.8826520006387784  0.025802848962193498  0.3140144405644278  1.0000
  H   H26       1.0  0.11734684215819871  0.9741988004147827  0.8140133554464197  1.0000
  H   H27       1.0  0.61734974432121  0.02580152905502331  0.68598736445567  1.0000
  H   H28       1.0  0.38265321486540677  0.974200709096053  0.1859857194389036  1.0000
  H   H29       1.0  0.11734777566018553  0.9741975605750142  0.6859859993872205  1.0000
  H   H30       1.0  0.8826540588346179  0.0258005863038804  0.18598708450515025  1.0000
  H   H31       1.0  0.38264890728350315  0.97419888048168  0.3140125358763939  1.0000
  H   H32       1.0  0.6173476861261876  0.02580174607704321  0.8140147205140378  1.0000
  C   C1        1.0  0.10554840003370461  0.11713055650670873  0.31192265591649  1.0000
  C   C2        1.0  0.8944549352880814  0.8828721085940854  0.8119209327292224  1.0000
  C   C3        1.0  0.3944557148940717  0.11712393074522964  0.6880778149814261  1.0000
  C   C4        1.0  0.6055450011550435  0.8828742232258688  0.1880789366584636  1.0000
  C   C5        1.0  0.8944525009595098  0.882869853031018  0.68807832365475  1.0000
  C   C6        1.0  0.105545965703115  0.11712932375995422  0.18807896760404927  1.0000
  C   C7        1.0  0.6055440614028741  0.8828775016082987  0.3119215457322538  1.0000
  C   C8        1.0  0.39445477514351523  0.11712720912948528  0.8119215032936395  1.0000
  C   C9        1.0  0.9385075818450022  0.11633447099458752  0.29179136161509683  1.0000
  C   C10       1.0  0.06148782049661611  0.8836701714973573  0.7917906980287412  1.0000
  C   C11       1.0  0.5614907168042507  0.11632303832756459  0.7082083654608977  1.0000
  C   C12       1.0  0.43851455814551343  0.8836731382545083  0.20821045479894446  1.0000
  C   C13       1.0  0.061491069759704024  0.8836679841793185  0.7082090783370842  1.0000
  C   C14       1.0  0.9385142051908775  0.11632614676646114  0.20820974192184843  1.0000
  C   C15       1.0  0.4385090594947131  0.8836773712096502  0.29179207449075756  1.0000
  C   C16       1.0  0.5614852181530595  0.1163262484636434  0.7917894455330412  1.0000
  S   S1        1.0  0.5075126397126013  0.5287145839592142  0.3733149121938695  1.0000
  S   S2        1.0  0.4924875048939228  0.4712852208240081  0.8733141714865411  1.0000
  S   S3        1.0  0.9924887039931041  0.5287148394406104  0.6266857213676076  1.0000
  S   S4        1.0  0.0075118286917544  0.4712861748501853  0.1266860748556695  1.0000
  S   S5        1.0  0.49248826127941214  0.4712848027585324  0.6266849881384926  1.0000
  S   S6        1.0  0.5075122714038401  0.5287141658932344  0.12668518922623656  1.0000
  S   S7        1.0  0.0075121969985048  0.471285570095283  0.3733141789652094  1.0000
  S   S8        1.0  0.9924890723014741  0.5287121890503316  0.873314365095453  1.0000
  S   S9        1.0  0.5597951907311655  0.32746994829264514  0.3540957624103242  1.0000
  S   S10       1.0  0.440203771779629  0.672529791333851  0.8540951655857185  1.0000
  S   S11       1.0  0.9402029394588568  0.32746928363258127  0.6459046921191669  1.0000
  S   S12       1.0  0.059796525934444816  0.6725307729966944  0.1459047201680477  1.0000
  S   S13       1.0  0.44020346087435774  0.6725304612449747  0.6459046775409476  1.0000
  S   S14       1.0  0.5597960045193489  0.32746857256615414  0.1459047347458053  1.0000
  S   S15       1.0  0.059794587452422804  0.6725311259045269  0.35409520821252016  1.0000
  S   S16       1.0  0.9402066244432489  0.3274675909002697  0.8540941009261899  1.0000
  S   S17       1.0  0.44830785900661857  0.20109478849289533  0.424328727976821  1.0000
  S   S18       1.0  0.5516913132724853  0.7989051892408768  0.9243288581452092  1.0000
  S   S19       1.0  0.051690565460162916  0.20109416452702797  0.5756718176177884  1.0000
  S   S20       1.0  0.9483098148586676  0.7989066768136297  0.07567147616347107  1.0000
  S   S21       1.0  0.5516896679050518  0.7989066438632692  0.5756717119745216  1.0000
  S   S22       1.0  0.4483095877195283  0.2010941974768699  0.07567104218715309  1.0000
  S   S23       1.0  0.9483069614523244  0.7989052221928434  0.424328622332645  1.0000
  S   S24       1.0  0.05169108613254281  0.20109270990320746  0.9243278845496761  1.0000
  S   S25       1.0  0.5709513290455775  0.18905633829740515  0.520716626668573  1.0000
  S   S26       1.0  0.42904888713819395  0.8109432939155142  0.02071702608413519  1.0000
  S   S27       1.0  0.929049160965299  0.18905613957662132  0.4792837047269173  1.0000
  S   S28       1.0  0.0709501754492692  0.8109440244667353  0.9792835224232164  1.0000
  S   S29       1.0  0.4290473225599456  0.8109440712402077  0.4792838132826985  1.0000
  S   S30       1.0  0.5709508891599668  0.1890571156207841  0.9792828742483052  1.0000
  S   S31       1.0  0.07094949064063631  0.8109432471428449  0.5207167352238996  1.0000
  S   S32       1.0  0.9290507255411244  0.1890574078863949  0.020715838290840297  1.0000
  S   S33       1.0  0.7499991713366684  0.061151806953958505  0.5000001088044569  1.0000
  S   S34       1.0  0.2500002269522525  0.9388474045041448  0.9999996210346321  1.0000
  S   S35       1.0  0.24999835557501632  0.938847579764996  0.4999997915267684  1.0000
  S   S36       1.0  0.7500010427130875  0.061153677329400614  0.9999999383132303  1.0000
  O   O1        1.0  0.18382020164801116  0.17091224721406212  0.2500008619928948  1.0000
  O   O2        1.0  0.8161784499575264  0.8290861166863482  0.7499990383382593  1.0000
  O   O3        1.0  0.3161782468983462  0.1709079331852053  0.7499974982723642  1.0000
  O   O4        1.0  0.6838215294014277  0.8290924763529193  0.25000348129849925  1.0000
