data_image0
_chemical_formula_structural       Na4Si2H100C80N8O4
_chemical_formula_sum              "Na4 Si2 H100 C80 N8 O4"
_cell_length_a       10.704738615265176
_cell_length_b       15.42637137101372
_cell_length_c       15.426572198582218
_cell_angle_alpha    84.39806584925793
_cell_angle_beta     74.0219457574545
_cell_angle_gamma    74.02202088651808

_space_group_name_H-M_alt    "P 1"
_space_group_IT_number       1

loop_
  _space_group_symop_operation_xyz
  'x, y, z'

loop_
  _atom_site_type_symbol
  _atom_site_label
  _atom_site_symmetry_multiplicity
  _atom_site_fract_x
  _atom_site_fract_y
  _atom_site_fract_z
  _atom_site_occupancy
  Na  Na1       1.0  0.788441040529591  0.6476663289972107  0.09178189340360633  1.0000
  Na  Na2       1.0  0.2884427589656299  0.09178768462731307  0.6476629850263719  1.0000
  Na  Na3       1.0  0.8509153825889372  0.27679121696642267  0.9527457572698026  1.0000
  Na  Na4       1.0  0.3509096062172503  0.9527482460546464  0.27679278935230656  1.0000
  Si  Si1       1.0  0.5570189020736577  0.6540764499736085  0.006779858077465029  1.0000
  Si  Si2       1.0  0.0570241651298531  0.006780635522652297  0.6540754132267068  1.0000
  H   H1        1.0  0.9457532156649223  0.4737341529314563  0.25886342290399966  1.0000
  H   H2        1.0  0.4457640186296247  0.2588740248671044  0.47372234667169266  1.0000
  H   H3        1.0  0.167801954920563  0.4951678969491622  0.1677916817745242  1.0000
  H   H4        1.0  0.6678092727500059  0.16779759914513903  0.4951640159125148  1.0000
  H   H5        1.0  0.22963957191995382  0.4829099666763382  0.0012146819412422235  1.0000
  H   H6        1.0  0.7296428278191771  0.0012204685868440002  0.4829067599373572  1.0000
  H   H7        1.0  0.727771831946214  0.37757061864594027  0.18217472443753013  1.0000
  H   H8        1.0  0.22778848739272925  0.1821779990608831  0.3775582568823593  1.0000
  H   H9        1.0  0.666736133541839  0.4955776564935234  0.18347700524937244  1.0000
  H   H10       1.0  0.16674345256701173  0.18348330759881284  0.4955644599822334  1.0000
  H   H11       1.0  0.7394506025261619  0.43870369119254343  0.2712969459675918  1.0000
  H   H12       1.0  0.23945908020014176  0.2713058355607742  0.4386893171482099  1.0000
  H   H13       1.0  0.18137471469820815  0.4598416690133432  0.8658577340795259  1.0000
  H   H14       1.0  0.6813786616591389  0.865855880389688  0.4598421307944846  1.0000
  H   H15       1.0  0.007047616052439352  0.4925796623692519  0.8676310058009304  1.0000
  H   H16       1.0  0.5070502139603054  0.8676312564051469  0.49257906851865113  1.0000
  H   H17       1.0  0.08944223534071939  0.377889239232303  0.8761989866739128  1.0000
  H   H18       1.0  0.5894462118553391  0.8762006622598547  0.3778906611426436  1.0000
  H   H19       1.0  0.7337623347866757  0.4963926485147637  0.8125113648099925  1.0000
  H   H20       1.0  0.23376658047682508  0.8125115720663556  0.4963972933672878  1.0000
  H   H21       1.0  0.5917411822258601  0.4435798455550711  0.7365878131912282  1.0000
  H   H22       1.0  0.09174791163506772  0.7365858313226923  0.443583777907186  1.0000
  H   H23       1.0  0.4221719950494672  0.3640298912194879  0.8261275509279924  1.0000
  H   H24       1.0  0.9221810922437684  0.8261236437883142  0.36403248454136883  1.0000
  H   H25       1.0  0.3999647513978247  0.3346040700564287  0.9902049985490677  1.0000
  H   H26       1.0  0.899968735595039  0.9902024952582521  0.3346076961845625  1.0000
  H   H27       1.0  0.5441126983925386  0.3861851139121625  0.06571283375831175  1.0000
  H   H28       1.0  0.044120256769915  0.0657131445344703  0.38618731673745527  1.0000
  H   H29       1.0  0.47893933712020953  0.7503001706265734  0.880385156572771  1.0000
  H   H30       1.0  0.9789382121686787  0.8803878523002879  0.7502915269649221  1.0000
  H   H31       1.0  0.5817400298187752  0.6424547369325848  0.8421416673567562  1.0000
  H   H32       1.0  0.08173368276078473  0.8421411366543335  0.6424463720523406  1.0000
  H   H33       1.0  0.6567536893459192  0.7259228691754415  0.8613799486858724  1.0000
  H   H34       1.0  0.1567540324951865  0.8613743498746017  0.7259111638100177  1.0000
  H   H35       1.0  0.37832285382685193  0.5787321220409324  0.0022265930369087944  1.0000
  H   H36       1.0  0.8783241263051451  0.0022372932629438  0.5787302165643664  1.0000
  H   H37       1.0  0.30774884344060655  0.6816045650707138  0.06183587551146989  1.0000
  H   H38       1.0  0.8077545904350104  0.06184276735572779  0.681604062741833  1.0000
  H   H39       1.0  0.38978039625140326  0.5830343330325719  0.11441831756077649  1.0000
  H   H40       1.0  0.8897871026202039  0.1144270280508906  0.5830371915411233  1.0000
  H   H41       1.0  0.46364526712928017  0.8695695539575325  0.9614390513452944  1.0000
  H   H42       1.0  0.9636559527448514  0.9614274210937809  0.8695730435409174  1.0000
  H   H43       1.0  0.25885612266604613  0.9498335539195536  0.9118204314473033  1.0000
  H   H44       1.0  0.7588655238508795  0.9118053423329326  0.9498337864499574  1.0000
  H   H45       1.0  0.032875867320207405  0.9756414780205701  0.021321330948779953  1.0000
  H   H46       1.0  0.5328878586914882  0.021309213252649804  0.9756417407300687  1.0000
  H   H47       1.0  0.014964022956796554  0.9202612262400646  0.18117039729100523  1.0000
  H   H48       1.0  0.5149752329290395  0.1811617788022274  0.9202648536265199  1.0000
  H   H49       1.0  0.2194108602013429  0.8372073007901972  0.22891147978912582  1.0000
  H   H50       1.0  0.7194213198228354  0.22890264150601783  0.8372124677591086  1.0000
  H   H51       1.0  0.9284961524030849  0.7875071944669542  0.220200915781092  1.0000
  H   H52       1.0  0.4285000918693243  0.22020279844272744  0.787513290432258  1.0000
  H   H53       1.0  0.9179131488621695  0.6519575373704001  0.3209131209254963  1.0000
  H   H54       1.0  0.41792773894072627  0.320907299983034  0.6519588674613174  1.0000
  H   H55       1.0  0.7080896958980036  0.5994285525008107  0.36454273604752524  1.0000
  H   H56       1.0  0.2081024326079586  0.3645390686369439  0.5994289801993133  1.0000
  H   H57       1.0  0.6596953982075816  0.9552463637901809  0.1815536781669209  1.0000
  H   H58       1.0  0.15969514268189758  0.1815505648052778  0.9552481202431549  1.0000
  H   H59       1.0  0.7002225977905927  0.8876832887340453  0.08709178465179687  1.0000
  H   H60       1.0  0.2002266227584002  0.08708936095156619  0.8876827805456455  1.0000
  H   H61       1.0  0.8317224290241185  0.9050010462984232  0.12761734180201503  1.0000
  H   H62       1.0  0.331722980000194  0.1276153848493493  0.9050063188635276  1.0000
  H   H63       1.0  0.48410336449855873  0.6131364377078014  0.3592616667230998  1.0000
  H   H64       1.0  0.9841129634716951  0.35926414248452687  0.6131406304160335  1.0000
  H   H65       1.0  0.459258474247335  0.6497434630377013  0.2503168165298035  1.0000
  H   H66       1.0  0.9592655301692832  0.2503184595705718  0.6497471159101166  1.0000
  H   H67       1.0  0.3873205720728381  0.7245883090915014  0.34076097373195313  1.0000
  H   H68       1.0  0.8873350777630479  0.3407631462277577  0.7245908661105034  1.0000
  H   H69       1.0  0.11008956521383348  0.6576712010850512  0.029304704479528695  1.0000
  H   H70       1.0  0.6100913710412926  0.02930774603759549  0.657676589957056  1.0000
  H   H71       1.0  0.049484728708939975  0.7768369413193452  0.0452612846251128  1.0000
  H   H72       1.0  0.5494804567446536  0.04526953660543849  0.7768396485608591  1.0000
  H   H73       1.0  0.12768649820302627  0.8094024907577972  0.8862237018651339  1.0000
  H   H74       1.0  0.627675359391347  0.8862317424425612  0.8094124359207199  1.0000
  H   H75       1.0  0.2546824651623468  0.7095216115312863  0.8961214456104115  1.0000
  H   H76       1.0  0.7546725449858019  0.8961245801234269  0.7095307919435639  1.0000
  H   H77       1.0  0.13352128663786555  0.615955725534057  0.8494221273002153  1.0000
  H   H78       1.0  0.6335124663860799  0.8494262686416004  0.6159653667227045  1.0000
  H   H79       1.0  0.10579554357282464  0.7128004430193897  0.77702541371886  1.0000
  H   H80       1.0  0.6057847115828779  0.777029028634203  0.7128117076570247  1.0000
  H   H81       1.0  0.8841702267833826  0.7763335518820823  0.8727090568040835  1.0000
  H   H82       1.0  0.3841580518694699  0.8727203908693183  0.77634221072406  1.0000
  H   H83       1.0  0.8897076496178119  0.6592422453787207  0.8930470199119753  1.0000
  H   H84       1.0  0.3897000918729534  0.8930509315151979  0.6592502881896182  1.0000
  H   H85       1.0  0.6609300954578503  0.13756211454094816  0.09902772973747177  1.0000
  H   H86       1.0  0.16091949288082225  0.09903186900515237  0.13757078194610267  1.0000
  H   H87       1.0  0.8240417765473044  0.0661064051542439  0.09640437898441687  1.0000
  H   H88       1.0  0.32403120900350046  0.09640761391101187  0.066115155922418  1.0000
  H   H89       1.0  0.6268056518337561  0.17807794803287177  0.25544367993480677  1.0000
  H   H90       1.0  0.12679731733369692  0.2554490377493365  0.17808588483346446  1.0000
  H   H91       1.0  0.7268704152798194  0.06643344980644629  0.25941255678399244  1.0000
  H   H92       1.0  0.2268545962301972  0.2594177414444729  0.06644093586955077  1.0000
  H   H93       1.0  0.7987976228878395  0.22880083436648846  0.2816961133812513  1.0000
  H   H94       1.0  0.29879632346675333  0.2817042290097758  0.22879741034123666  1.0000
  H   H95       1.0  0.9151036987702669  0.12150142912978616  0.2625407446566613  1.0000
  H   H96       1.0  0.41509665112614863  0.2625450071728395  0.12149865978663142  1.0000
  H   H97       1.0  0.9948712428880528  0.151079113204716  0.10799723711100738  1.0000
  H   H98       1.0  0.4948639471454116  0.1080002114659777  0.1510788898723519  1.0000
  H   H99       1.0  0.9214211459980816  0.2681076900870991  0.1330953336897878  1.0000
  H   H100      1.0  0.4214219219863652  0.1331020711194952  0.2681062565159634  1.0000
  C   C1        1.0  0.9203049835083662  0.44073742464384214  0.048907995719815675  1.0000
  C   C2        1.0  0.42030652666903723  0.04891639555777519  0.4407371490765756  1.0000
  C   C3        1.0  0.883557618144387  0.4489066060040655  0.14411027947880237  1.0000
  C   C4        1.0  0.3835641218850797  0.14411688846185194  0.448901462645395  1.0000
  C   C5        1.0  0.9744082419073904  0.4675325655868859  0.18564172381577768  1.0000
  C   C6        1.0  0.4744146998994552  0.18564939671578168  0.4675295512402542  1.0000
  C   C7        1.0  0.09872831962607624  0.47951382741445053  0.1349677288970597  1.0000
  C   C8        1.0  0.5987304681465558  0.1349749399195304  0.47951465088786444  1.0000
  C   C9        1.0  0.13352852146316968  0.47236548474864987  0.041325811638436995  1.0000
  C   C10       1.0  0.6335279283536367  0.041329386541249784  0.472369057329061  1.0000
  C   C11       1.0  0.0466853841758948  0.4525353787187  0.9974726204303292  1.0000
  C   C12       1.0  0.5466884225255628  0.9974752761887656  0.45253848468540525  1.0000
  C   C13       1.0  0.7476186064400281  0.43947142630587877  0.1987203410421046  1.0000
  C   C14       1.0  0.24763154200041274  0.19872473641872548  0.4394585139620303  1.0000
  C   C15       1.0  0.08356911485277162  0.445510363633069  0.8967083710613933  1.0000
  C   C16       1.0  0.5835713327129783  0.8967116791439764  0.44551297358544417  1.0000
  C   C17       1.0  0.7303806939786385  0.48105168059582576  0.9901788492861313  1.0000
  C   C18       1.0  0.23038869850600477  0.9901815385822984  0.481047217813007  1.0000
  C   C19       1.0  0.6468837030318753  0.44613007191502146  0.9443206619726964  1.0000
  C   C20       1.0  0.14688795128815718  0.9443205339956717  0.4461318518274096  1.0000
  C   C21       1.0  0.6601783739166436  0.46101699214669617  0.8513219060800026  1.0000
  C   C22       1.0  0.16018568633287344  0.8513205976505345  0.4610200365099004  1.0000
  C   C23       1.0  0.5802778194816085  0.4313899464975107  0.8088883770257523  1.0000
  C   C24       1.0  0.0802849803944739  0.8088864688706181  0.4313932535458773  1.0000
  C   C25       1.0  0.48588637009018504  0.38621308120538334  0.858784939409105  1.0000
  C   C26       1.0  0.9858928441232495  0.8587836397064094  0.386217613837715  1.0000
  C   C27       1.0  0.47376690923186277  0.36956531139340837  0.9510103090819014  1.0000
  C   C28       1.0  0.9737760366789205  0.9510097216515658  0.36956989312312055  1.0000
  C   C29       1.0  0.5539806550620413  0.3988033170213753  0.9935350160217453  1.0000
  C   C30       1.0  0.053985879893844076  0.993533283870981  0.39880537612022937  1.0000
  C   C31       1.0  0.5693059680145893  0.6975554407851944  0.8864801367716809  1.0000
  C   C32       1.0  0.06930972344732576  0.886477597666733  0.6975446263694847  1.0000
  C   C33       1.0  0.39286210401406413  0.6210682397211469  0.05004043250363572  1.0000
  C   C34       1.0  0.8928623215775959  0.0500492440465052  0.6210655299574128  1.0000
  C   C35       1.0  0.48197565498271194  0.7972368696933572  0.1253638394937795  1.0000
  C   C36       1.0  0.9819841411169749  0.1253565666850847  0.797239437021936  1.0000
  C   C37       1.0  0.356151913313596  0.8484669126655502  0.09829158173911169  1.0000
  C   C38       1.0  0.8561694310061297  0.09828305787704748  0.8484676290955162  1.0000
  C   C39       1.0  0.3647381659344264  0.8808635078644114  0.00917500510855971  1.0000
  C   C40       1.0  0.8647470864130257  0.009162215316017396  0.8808643557651479  1.0000
  C   C41       1.0  0.24957947351546053  0.9259438379429668  0.9816102003601014  1.0000
  C   C42       1.0  0.7495877487142123  0.9815956118461031  0.9259449006164928  1.0000
  C   C43       1.0  0.12293063409217829  0.9406659872863086  0.04318583426400121  1.0000
  C   C44       1.0  0.6229389488649205  0.0431754572650505  0.9406652025600193  1.0000
  C   C45       1.0  0.11299890354697348  0.9094753509549774  0.13235389509706855  1.0000
  C   C46       1.0  0.6130131982811236  0.13233890171899526  0.9094769087862882  1.0000
  C   C47       1.0  0.2285167282084118  0.8634653732670756  0.15967610702898577  1.0000
  C   C48       1.0  0.7285316235491733  0.15966752345792656  0.8634662264923916  1.0000
  C   C49       1.0  0.6078355281055539  0.7809498148457265  0.2308626076508132  1.0000
  C   C50       1.0  0.10784568943110877  0.23085768380325794  0.7809483038757391  1.0000
  C   C51       1.0  0.7257138314690083  0.8122058198864293  0.20814962905033238  1.0000
  C   C52       1.0  0.22571629720750508  0.2081483542443294  0.8122107386212389  1.0000
  C   C53       1.0  0.8364072752281119  0.7647212504909645  0.24039022291786688  1.0000
  C   C54       1.0  0.3364122718752043  0.2403889756797923  0.7647240066270413  1.0000
  C   C55       1.0  0.8308307257870525  0.6884660215823074  0.2965928707685562  1.0000
  C   C56       1.0  0.33084255719722944  0.29658725228947697  0.6884647616053098  1.0000
  C   C57       1.0  0.7132949429431789  0.6589714767697147  0.3205495146438296  1.0000
  C   C58       1.0  0.2133105042432319  0.32054299690641835  0.6589700602396249  1.0000
  C   C59       1.0  0.6017567851297304  0.703562511931949  0.287970859339751  1.0000
  C   C60       1.0  0.1017690470098032  0.2879679054896158  0.70356345124641  1.0000
  C   C61       1.0  0.7303882656008088  0.8942569316212923  0.14795281810333444  1.0000
  C   C62       1.0  0.23039167401264388  0.14794972790159017  0.8942578949616972  1.0000
  C   C63       1.0  0.47666898104390765  0.6706020699552864  0.31130313358180217  1.0000
  C   C64       1.0  0.9766782400660362  0.3113059785774581  0.670605204191929  1.0000
  C   C65       1.0  0.06437453384244661  0.7224658190808029  0.9995858470185509  1.0000
  C   C66       1.0  0.5643686118237454  0.999595062807799  0.7224668936845333  1.0000
  C   C67       1.0  0.1461836502910004  0.7370260152110221  0.90412091267423  1.0000
  C   C68       1.0  0.6461782919762341  0.9041254679302354  0.7370334495259386  1.0000
  C   C69       1.0  0.08893618406099084  0.6890803957072436  0.8476307626138959  1.0000
  C   C70       1.0  0.5889255110672451  0.8476353892705077  0.6890915693426152  1.0000
  C   C71       1.0  0.9399416724870803  0.7115051810381273  0.897100686588125  1.0000
  C   C72       1.0  0.4399313181641135  0.8971097971540372  0.7115134989081822  1.0000
  C   C73       1.0  0.7502630796672278  0.12920193541519606  0.1235878456683467  1.0000
  C   C74       1.0  0.25025593934506674  0.12359262418605967  0.12920980393998593  1.0000
  C   C75       1.0  0.7253732880722411  0.13262621993653306  0.22582644131350088  1.0000
  C   C76       1.0  0.22536412556166144  0.22583283917504093  0.13263023763132506  1.0000
  C   C77       1.0  0.8392968337944352  0.1718107834606855  0.23589841063626693  1.0000
  C   C78       1.0  0.3392950839604938  0.23590351939805024  0.17181033867912987  1.0000
  C   C79       1.0  0.9015020980135162  0.20147740722072172  0.1391958588332471  1.0000
  C   C80       1.0  0.4014967002406634  0.13920213683707766  0.20147881172519533  1.0000
  N   N1        1.0  0.8361353926945796  0.4172700398156479  0.0049425375430872266  1.0000
  N   N2        1.0  0.3361408136255549  0.004948295203647  0.4172706995408929  1.0000
  N   N3        1.0  0.6976903344274634  0.5667841841542866  0.010616867341937595  1.0000
  N   N4        1.0  0.19769816283714908  0.0106215236623868  0.5667802559157947  1.0000
  N   N5        1.0  0.5688955226472532  0.7294794777326387  0.07759214679639827  1.0000
  N   N6        1.0  0.0689004925927392  0.07758794052087126  0.7294798366458933  1.0000
  N   N7        1.0  0.4961531330132234  0.828421273319165  0.19928258486543624  1.0000
  N   N8        1.0  0.9961561517384896  0.1992780040919584  0.8284229865308317  1.0000
  O   O1        1.0  0.9331950558179332  0.7200943271583852  0.9914186165570058  1.0000
  O   O2        1.0  0.4331960953637975  0.9914245234602957  0.7200956186467307  1.0000
  O   O3        1.0  0.8046987137348653  0.20479949210375983  0.0890709579338704  1.0000
  O   O4        1.0  0.3046875521670244  0.089076626819093  0.20480540665683833  1.0000
