data_image0
_chemical_formula_structural       Zr6H60C74O36
_chemical_formula_sum              "Zr6 H60 C74 O36"
_cell_length_a       14.864403294939125
_cell_length_b       14.874969364470713
_cell_length_c       14.8812263002787
_cell_angle_alpha    60.063006875561996
_cell_angle_beta     59.649083140102036
_cell_angle_gamma    59.861271215771836

_space_group_name_H-M_alt    "P 1"
_space_group_IT_number       1

loop_
  _space_group_symop_operation_xyz
  'x, y, z'

loop_
  _atom_site_type_symbol
  _atom_site_label
  _atom_site_symmetry_multiplicity
  _atom_site_fract_x
  _atom_site_fract_y
  _atom_site_fract_z
  _atom_site_occupancy
  Zr  Zr1       1.0  0.8884311931449742  0.3812587863589343  0.6114667533030553  1.0000
  Zr  Zr2       1.0  0.11918667993310084  0.6261197569815735  0.37780420881178145  1.0000
  Zr  Zr3       1.0  0.1228641625960876  0.3876407169703739  0.6138010715675577  1.0000
  Zr  Zr4       1.0  0.8839042474249507  0.6208686722521434  0.3769239499604849  1.0000
  Zr  Zr5       1.0  0.8799410105851563  0.6184652013447973  0.6180477658284573  1.0000
  Zr  Zr6       1.0  0.12655265890966652  0.3853171277646581  0.3752014608835239  1.0000
  H   H1        1.0  0.9097218239011724  0.40957593866523456  0.7766204330491603  1.0000
  H   H2        1.0  0.9019555530387322  0.784100745420467  0.4070076185713843  1.0000
  H   H3        1.0  0.2849162814476003  0.4145593331689881  0.40376280892714084  1.0000
  H   H4        1.0  0.9178569569250496  0.40701576765909636  0.39662215319970046  1.0000
  H   H5        1.0  0.5835007828535481  0.7230433829907739  0.879958135394368  1.0000
  H   H6        1.0  0.6668682881780087  0.6277656150897425  0.9648217263934596  1.0000
  H   H7        1.0  0.4974758008715058  0.6415457585152922  0.13246204275209536  1.0000
  H   H8        1.0  0.41199532936597905  0.7334833971215033  0.048199950443482305  1.0000
  H   H9        1.0  0.24601030126050458  0.03671602232130054  0.3193922309305179  1.0000
  H   H10       1.0  0.1592515464278748  0.12458848103486987  0.23775172500791802  1.0000
  H   H11       1.0  0.1412396969245791  0.9612407418058736  0.2468337666659578  1.0000
  H   H12       1.0  0.22982869930407882  0.8727018961872446  0.3264955396845364  1.0000
  H   H13       1.0  0.5245179193691951  0.8526796782384379  0.3611184336441724  1.0000
  H   H14       1.0  0.6050322161711535  0.9411713660616811  0.26392925721752636  1.0000
  H   H15       1.0  0.427924420176808  0.1047880237421026  0.26891246280501957  1.0000
  H   H16       1.0  0.35067737973941604  0.01591025465232575  0.37545955318034163  1.0000
  H   H17       1.0  0.906505336129122  0.7726586077732236  0.9945552996560211  1.0000
  H   H18       1.0  0.7920599294528685  0.7243864749157181  0.07789104222333487  1.0000
  H   H19       1.0  0.7902530592015465  0.7261688738835375  0.9080421274466345  1.0000
  H   H20       1.0  0.9094108706332948  0.7677877087612753  0.826896377607305  1.0000
  H   H21       1.0  0.839065640027137  0.2795421635043879  0.9381635660385043  1.0000
  H   H22       1.0  0.6863489683241328  0.2902605597606039  0.11300170730746109  1.0000
  H   H23       1.0  0.818258685754536  0.9403405735273862  0.26529179869664393  1.0000
  H   H24       1.0  0.6744388796762237  0.11903529007588522  0.27699295006698316  1.0000
  H   H25       1.0  0.5099363139999936  0.38821943032343137  0.7545893104108999  1.0000
  H   H26       1.0  0.5937845974115347  0.27482467388666265  0.7039558107701397  1.0000
  H   H27       1.0  0.4259014466234134  0.27864917477396745  0.696613419108516  1.0000
  H   H28       1.0  0.3420797907810922  0.3867846342220176  0.7548791963596315  1.0000
  H   H29       1.0  0.37114698730996304  0.30208680534458676  0.11502413685919775  1.0000
  H   H30       1.0  0.40792286400769484  0.2803250990923089  0.22120991016301872  1.0000
  H   H31       1.0  0.5090471406327097  0.22404563052145215  0.11408568755974346  1.0000
  H   H32       1.0  0.6625524954863238  0.2377946174967675  0.9456612716674471  1.0000
  H   H33       1.0  0.6274632181000044  0.3400940654804073  0.8289859976343764  1.0000
  H   H34       1.0  0.5265884678214617  0.2836478463234826  0.946503870754043  1.0000
  H   H35       1.0  0.7875560860058709  0.93716511162998  0.749181742141637  1.0000
  H   H36       1.0  0.8165313322204713  0.8485077132923706  0.6838281401004237  1.0000
  H   H37       1.0  0.7266627197696424  0.9862201809503262  0.6506066827151927  1.0000
  H   H38       1.0  0.7332166303088811  0.10963161851778848  0.6782175909614879  1.0000
  H   H39       1.0  0.7885549740796022  0.21726913641648324  0.6106534891991656  1.0000
  H   H40       1.0  0.8244100694401125  0.10657731221023399  0.7237493584173222  1.0000
  H   H41       1.0  0.34576445479353174  0.09425305570178463  0.7342729662689395  1.0000
  H   H42       1.0  0.40772940011781594  0.19071591885543876  0.6205468221303576  1.0000
  H   H43       1.0  0.48887222809813835  0.06783909230638584  0.6959212901491298  1.0000
  H   H44       1.0  0.6270659874916121  0.8919425103853412  0.7012143480491559  1.0000
  H   H45       1.0  0.5848276913552013  0.7897626154967623  0.7222385631248682  1.0000
  H   H46       1.0  0.4851689668246735  0.9016904942379966  0.7714039744538822  1.0000
  H   H47       1.0  0.20278305071749259  0.27847934974025174  0.8944334834877596  1.0000
  H   H48       1.0  0.0711342704639647  0.28994137063110503  0.9141759042152345  1.0000
  H   H49       1.0  0.11354659460801736  0.22861477249200848  0.02953815182510767  1.0000
  H   H50       1.0  0.21213934902940676  0.2542126008519148  0.06141201925760945  1.0000
  H   H51       1.0  0.1304770777242724  0.2801464232942691  0.18972354515000941  1.0000
  H   H52       1.0  0.2244415028615805  0.3492802920157416  0.08980078562967007  1.0000
  H   H53       1.0  0.330738551301806  0.7317471295762559  0.364714467514439  1.0000
  H   H54       1.0  0.3929141208556786  0.6595764851336767  0.273684370290411  1.0000
  H   H55       1.0  0.4622228497008932  0.735276276610037  0.2634066390705455  1.0000
  H   H56       1.0  0.6201523061907677  0.6396428440520764  0.21941933811137182  1.0000
  H   H57       1.0  0.7274646707596516  0.5774938044198947  0.2739886200859231  1.0000
  H   H58       1.0  0.6307973070023609  0.7073335922155407  0.2823472743237757  1.0000
  H   H59       1.0  0.07661491540673622  0.7352918083890359  0.002184574414776665  1.0000
  H   H60       1.0  0.05131908958805552  0.08016707796290479  0.7132155765149479  1.0000
  C   C1        1.0  0.7016560721745222  0.4917449388407602  0.8002460954425885  1.0000
  C   C2        1.0  0.9893358361252852  0.8082531276590429  0.5035257419726236  1.0000
  C   C3        1.0  0.3125822525591957  0.502817560191879  0.19845945750012817  1.0000
  C   C4        1.0  0.010604981421465714  0.1981661727569914  0.49041178645042294  1.0000
  C   C5        1.0  0.008469278918468524  0.19612432457286383  0.7975427900000728  1.0000
  C   C6        1.0  0.7039649583735682  0.4966999625309754  0.49391216239492747  1.0000
  C   C7        1.0  0.004362527912803706  0.8035064608869221  0.18864992641937303  1.0000
  C   C8        1.0  0.2974126145190396  0.515323187708404  0.5005720636646203  1.0000
  C   C9        1.0  0.00048682217622088124  0.5048769741910987  0.8000711085748479  1.0000
  C   C10       1.0  0.3035642888331723  0.19797739274724074  0.500623964315416  1.0000
  C   C11       1.0  0.013559554428219671  0.5097043621460385  0.18511870659903443  1.0000
  C   C12       1.0  0.6892352869506055  0.794157488310219  0.5069728488487967  1.0000
  C   C13       1.0  0.6101221256181761  0.48104428566811896  0.9081311596224212  1.0000
  C   C14       1.0  0.42209039839908513  0.4857603606096034  0.1088785363441359  1.0000
  C   C15       1.0  0.5711849391292033  0.5555346945287453  0.9610249277444256  1.0000
  C   C16       1.0  0.47163434725843684  0.3972863045734342  0.06694988475896213  1.0000
  C   C17       1.0  0.47850516726643383  0.5601193627057627  0.05618860630070078  1.0000
  C   C18       1.0  0.5592919394022432  0.39869187869205547  0.9644561934834641  1.0000
  C   C19       1.0  0.589396962252259  0.6506779934637025  0.9537723061670391  1.0000
  C   C20       1.0  0.48275231149114717  0.6579377701644447  0.05976562978577949  1.0000
  C   C21       1.0  0.9938179899307329  0.10659657777299694  0.4916083310388044  1.0000
  C   C22       1.0  0.9809724403212597  0.9130220132671099  0.5029265424105487  1.0000
  C   C23       1.0  0.0686615232820671  0.05277698183110146  0.4138647514572895  1.0000
  C   C24       1.0  0.8990070519081358  0.9699371079683983  0.5801409054519978  1.0000
  C   C25       1.0  0.061019962093687985  0.9607893482873068  0.4188573463147946  1.0000
  C   C26       1.0  0.9035572418790635  0.0669580740282924  0.5723920418205137  1.0000
  C   C27       1.0  0.1702520010678583  0.052058850393706294  0.3103848711102231  1.0000
  C   C28       1.0  0.16000365699252936  0.9491854610069835  0.31548747989184994  1.0000
  C   C29       1.0  0.5856238549489203  0.8910159206703696  0.5146854824459408  1.0000
  C   C30       1.0  0.401203028817207  0.09515113854141075  0.5064172551415923  1.0000
  C   C31       1.0  0.535941629697369  0.9425920118912642  0.4350183493109368  1.0000
  C   C32       1.0  0.45211110598435045  0.04570918202470145  0.5871471855454402  1.0000
  C   C33       1.0  0.4438479607203193  0.037980392863133254  0.43440956603528497  1.0000
  C   C34       1.0  0.535047750426841  0.9401239309249478  0.5976046915979224  1.0000
  C   C35       1.0  0.5347177461624073  0.9296130319193875  0.34090131426263764  1.0000
  C   C36       1.0  0.42626866924384643  0.033920970622723666  0.3448558491288339  1.0000
  C   C37       1.0  0.016053895011964456  0.5060421699231269  0.08544593123009032  1.0000
  C   C38       1.0  0.002923550755468783  0.5003876627780173  0.9013560598640993  1.0000
  C   C39       1.0  0.9495032257549453  0.5951668392873087  0.024624327582550308  1.0000
  C   C40       1.0  0.06657021800727148  0.40547889317390684  0.9658698968044707  1.0000
  C   C41       1.0  0.946121666300151  0.5936244089189912  0.9336268422825144  1.0000
  C   C42       1.0  0.0798453201165827  0.4114601934014814  0.050646809720497246  1.0000
  C   C43       1.0  0.8720672295716198  0.7133892288419048  0.01081927104645058  1.0000
  C   C44       1.0  0.871192676398273  0.7124795452639601  0.9054896366354653  1.0000
  C   C45       1.0  0.006877081516634721  0.0936688510592987  0.897875529841265  1.0000
  C   C46       1.0  0.9210844074589204  0.10324726614949506  0.00016098868595534812  1.0000
  C   C47       1.0  0.08652264306238777  0.9925321765489841  0.8891444810791427  1.0000
  C   C48       1.0  0.8372232647524811  0.20532584430755926  0.010178595950698243  1.0000
  C   C49       1.0  0.7509256474543377  0.21128909698689566  0.10803562528310083  1.0000
  C   C50       1.0  0.003954946430127387  0.9043312712832119  0.08647536688224736  1.0000
  C   C51       1.0  0.08820786473104661  0.89777529470053  0.9865141002551354  1.0000
  C   C52       1.0  0.9165094476973082  0.005938569046946792  0.09516296822501852  1.0000
  C   C53       1.0  0.8256419682619196  0.014580685469098837  0.19437879113279152  1.0000
  C   C54       1.0  0.7444586242529851  0.11476748565030455  0.20055837034468035  1.0000
  C   C55       1.0  0.6054495836653828  0.49874021934372337  0.4883843286700225  1.0000
  C   C56       1.0  0.40034488976736793  0.5155643576258767  0.49475289524446  1.0000
  C   C57       1.0  0.5405910331273489  0.4357530729369756  0.5782655851930372  1.0000
  C   C58       1.0  0.4614907876920356  0.585671205519638  0.4045402832046178  1.0000
  C   C59       1.0  0.4442408401929896  0.4405820970246949  0.5789581711389644  1.0000
  C   C60       1.0  0.5673190969432937  0.5700797400075289  0.3966579587796629  1.0000
  C   C61       1.0  0.5270524327431119  0.35450754675444063  0.694615187110905  1.0000
  C   C62       1.0  0.42054372642576243  0.35655604980365024  0.6932517604129129  1.0000
  C   C63       1.0  0.4379004307720748  0.2959162701775284  0.13270808492325148  1.0000
  C   C64       1.0  0.5954170500705233  0.3107106382055988  0.9187518233164483  1.0000
  C   C65       1.0  0.8029568963744822  0.9323308010133927  0.6711811751044505  1.0000
  C   C66       1.0  0.8075213622070977  0.1282978632782628  0.6500152381883667  1.0000
  C   C67       1.0  0.42205956863959654  0.10244980609056133  0.6637329267834674  1.0000
  C   C68       1.0  0.5597732876681505  0.8780867606205333  0.7036447128046531  1.0000
  C   C69       1.0  0.11614857242370373  0.29515024348876295  0.9500421207173918  1.0000
  C   C70       1.0  0.16577093845834404  0.31767062078986197  0.10049010692838316  1.0000
  C   C71       1.0  0.4110726295882185  0.6825681755951152  0.3205845384731915  1.0000
  C   C72       1.0  0.6399004134646233  0.6268917967054293  0.28757008320349076  1.0000
  C   C73       1.0  0.18111638763731713  0.7888404135870032  0.9853680314693848  1.0000
  C   C74       1.0  0.16937504322538635  0.9810073845575218  0.7785366580735057  1.0000
  O   O1        1.0  0.7439932952347665  0.42013271957610937  0.7533191058426567  1.0000
  O   O2        1.0  0.06726810360775201  0.7732541596828781  0.4238370322047657  1.0000
  O   O3        1.0  0.2737725868054426  0.5821773749910831  0.23420234413120505  1.0000
  O   O4        1.0  0.9472443956740477  0.23252130035285032  0.5734588127593271  1.0000
  O   O5        1.0  0.08100356049993002  0.2374811668142057  0.7639304814208004  1.0000
  O   O6        1.0  0.7421836868893547  0.5754961906806599  0.42360764631053627  1.0000
  O   O7        1.0  0.9265969816297712  0.7659967180884094  0.2284855058185824  1.0000
  O   O8        1.0  0.2641273467244004  0.4338273842046333  0.574545188599089  1.0000
  O   O9        1.0  0.9203509295922032  0.5792379995135873  0.7653724072328885  1.0000
  O   O10       1.0  0.26878832483357223  0.23779294184822666  0.4205154409258327  1.0000
  O   O11       1.0  0.08845365949550649  0.43647797771333785  0.22716473661363068  1.0000
  O   O12       1.0  0.7348329203536466  0.753572891301772  0.5786430955794798  1.0000
  O   O13       1.0  0.25926205907394007  0.24120538091209903  0.5755653898169301  1.0000
  O   O14       1.0  0.9325587838455931  0.5852539723701966  0.2251112259649941  1.0000
  O   O15       1.0  0.7306994792992612  0.7607574281158377  0.42515817858114224  1.0000
  O   O16       1.0  0.08056996865308716  0.43482109185286794  0.7527320299432745  1.0000
  O   O17       1.0  0.9350482427132859  0.2311474323180107  0.7560476020444115  1.0000
  O   O18       1.0  0.25040098287508544  0.5926202276722207  0.4303934595959333  1.0000
  O   O19       1.0  0.08088618622261365  0.7661787716327452  0.2263485779785696  1.0000
  O   O20       1.0  0.7430813770070656  0.4180119751199101  0.5699469904454162  1.0000
  O   O21       1.0  0.08612638114514228  0.23703662543359633  0.4094710191487536  1.0000
  O   O22       1.0  0.7352776389330841  0.5724847577969499  0.7607812360154113  1.0000
  O   O23       1.0  0.920129511476098  0.7591801759295791  0.5810984476207747  1.0000
  O   O24       1.0  0.26179084104915523  0.4368808154020982  0.23337919867807944  1.0000
  O   O25       1.0  0.9413474266016878  0.43414453836872713  0.42563799268409486  1.0000
  O   O26       1.0  0.20480853821204204  0.43995421126954426  0.4295809270380174  1.0000
  O   O27       1.0  0.9319272339424811  0.704466841797  0.4291310287154316  1.0000
  O   O28       1.0  0.9371543920879828  0.4334024266487829  0.6968156036177714  1.0000
  O   O29       1.0  0.04907283580374152  0.5546604816877831  0.5456541516681028  1.0000
  O   O30       1.0  0.8552282429992887  0.5488469813046564  0.5449981246108847  1.0000
  O   O31       1.0  0.05267048646641112  0.5542556749769929  0.34875785371488627  1.0000
  O   O32       1.0  0.05591417390184723  0.35607428447768535  0.543423845795374  1.0000
  O   O33       1.0  0.15407619346355964  0.7077732902807411  0.9958049576496536  1.0000
  O   O34       1.0  0.2720882359752398  0.7698301933153144  0.9811593459911948  1.0000
  O   O35       1.0  0.13063786198910077  0.0374567578991786  0.6924232557670892  1.0000
  O   O36       1.0  0.2658827884894066  0.9232009949746426  0.7634938361852477  1.0000
