data_image0
_chemical_formula_structural       Al2H14C18N2O12
_chemical_formula_sum              "Al2 H14 C18 N2 O12"
_cell_length_a       6.7210899378401825
_cell_length_b       8.71378514770272
_cell_length_c       15.367383234527825
_cell_angle_alpha    79.82712136443313
_cell_angle_beta     77.02332548934736
_cell_angle_gamma    75.98266124026442

_space_group_name_H-M_alt    "P 1"
_space_group_IT_number       1

loop_
  _space_group_symop_operation_xyz
  'x, y, z'

loop_
  _atom_site_type_symbol
  _atom_site_label
  _atom_site_symmetry_multiplicity
  _atom_site_fract_x
  _atom_site_fract_y
  _atom_site_fract_z
  _atom_site_occupancy
  Al  Al1       1.0  0.49993312995117384  0.5000784938271534  0.4999898092595599  1.0000
  Al  Al2       1.0  0.9999186827927531  0.500111233954051  0.49997386871046945  1.0000
  H   H1        1.0  0.24730119776427972  0.3551554746221156  0.5983176350629476  1.0000
  H   H2        1.0  0.7521954708838196  0.6455213221057716  0.40187569840177406  1.0000
  H   H3        1.0  0.16526899523128696  0.44790053817564496  0.0674605731533049  1.0000
  H   H4        1.0  0.8348567304667966  0.5519648907608851  0.9325286633196297  1.0000
  H   H5        1.0  0.3024643636921382  0.4846116838683158  0.773766565771865  1.0000
  H   H6        1.0  0.2215781753554324  0.46868612846147045  0.9375407101168063  1.0000
  H   H7        1.0  0.6977343460129717  0.514912169109685  0.22626905460553803  1.0000
  H   H8        1.0  0.7788576756951143  0.5305540930984661  0.06251918283758333  1.0000
  H   H9        1.0  0.2377093714201024  0.15260850467236503  0.484245932279073  1.0000
  H   H10       1.0  0.41028105873650117  0.9761979971610725  0.4590845054573263  1.0000
  H   H11       1.0  0.7621691092678589  0.8476014316416067  0.5158740608542656  1.0000
  H   H12       1.0  0.5896950330457001  0.024069456425756586  0.5409156480523406  1.0000
  H   H13       1.0  0.04230057255051629  0.4315845459020337  0.3015286478457782  1.0000
  H   H14       1.0  0.9576291828817246  0.5685295429470255  0.6984321608083802  1.0000
  C   C1        1.0  0.6608011008540872  0.5211881844944272  0.6613016711085107  1.0000
  C   C2        1.0  0.8314103439650181  0.21223989207378208  0.5110382581720143  1.0000
  C   C3        1.0  0.33910881110796953  0.47889544633886033  0.3386775719440393  1.0000
  C   C4        1.0  0.1685129997595141  0.7879709887357362  0.48890459122185337  1.0000
  C   C5        1.0  0.1050611562899917  0.9607539358402445  0.4944863939317371  1.0000
  C   C6        1.0  0.8948824652798918  0.039460760147136405  0.505443124156123  1.0000
  C   C7        1.0  0.3863092297408243  0.47779319463388237  0.24082379253244562  1.0000
  C   C8        1.0  0.6137360103163798  0.5220857014843574  0.7591801800366794  1.0000
  C   C9        1.0  0.23761720272822365  0.45682603555963636  0.19368900130516656  1.0000
  C   C10       1.0  0.28532254614456315  0.4650289299847967  0.09973264722230368  1.0000
  C   C11       1.0  0.76245240925995  0.543063431221327  0.8062935928322758  1.0000
  C   C12       1.0  0.7148353940052701  0.5348007400984326  0.9002598821908875  1.0000
  C   C13       1.0  0.4192878060994545  0.49703635372478044  0.8094148798187033  1.0000
  C   C14       1.0  0.3741896033500112  0.4889389163377443  0.9021547989129031  1.0000
  C   C15       1.0  0.5809039688419164  0.5025808008363482  0.19061415791375677  1.0000
  C   C16       1.0  0.626102795479433  0.51054792291621  0.0978768887939978  1.0000
  C   C17       1.0  0.4774404783810338  0.4937735875253748  0.04990717752323802  1.0000
  C   C18       1.0  0.5228119110214349  0.5058704008513287  0.9501068640865211  1.0000
  N   N1        1.0  0.2696350596951119  0.0315885523744015  0.4918034976748017  1.0000
  N   N2        1.0  0.7302514448781565  0.9686227081807172  0.5081572635909523  1.0000
  O   O1        1.0  0.5217384187459614  0.5042587263241599  0.6218898346794715  1.0000
  O   O2        1.0  0.9690168387306244  0.2858510663690906  0.5194611549609858  1.0000
  O   O3        1.0  0.15200903401740354  0.464766507881066  0.3803457402476765  1.0000
  O   O4        1.0  0.3594339159690064  0.7213314801008436  0.49148493755417616  1.0000
  O   O5        1.0  0.4781546700098716  0.495864980236618  0.37810385445160216  1.0000
  O   O6        1.0  0.030870552441150723  0.7143673256462789  0.4804996661085567  1.0000
  O   O7        1.0  0.8478676045506434  0.5354420048045369  0.619618135374381  1.0000
  O   O8        1.0  0.6404972529622411  0.27885854342123645  0.5084651407121469  1.0000
  O   O9        1.0  0.2468187851217464  0.4339260032588327  0.5452724821936312  1.0000
  O   O10       1.0  0.7530106164585889  0.566276926164633  0.4547087894453056  1.0000
  O   O11       1.0  0.04809714312471408  0.42890140189432197  0.23614161629485853  1.0000
  O   O12       1.0  0.9519193641462494  0.5710976828187666  0.7638344957531868  1.0000
