data_image0
_chemical_formula_structural       K4P4H44C20O26
_chemical_formula_sum              "K4 P4 H44 C20 O26"
_cell_length_a       7.008197361190659
_cell_length_b       8.103583899003329
_cell_length_c       17.53583135200092
_cell_angle_alpha    101.32065174942136
_cell_angle_beta     101.49085675910189
_cell_angle_gamma    90.02408647336875

_space_group_name_H-M_alt    "P 1"
_space_group_IT_number       1

loop_
  _space_group_symop_operation_xyz
  'x, y, z'

loop_
  _atom_site_type_symbol
  _atom_site_label
  _atom_site_symmetry_multiplicity
  _atom_site_fract_x
  _atom_site_fract_y
  _atom_site_fract_z
  _atom_site_occupancy
  K   K1        1.0  0.7775261473750489  0.42349277833993415  0.9250742473211204  1.0000
  K   K2        1.0  0.8519836900784836  0.07645305464830442  0.07494959815182509  1.0000
  K   K3        1.0  0.22246084548269346  0.5765093645549869  0.0749282819621229  1.0000
  K   K4        1.0  0.1480218638251856  0.9235415064946859  0.9250542612469201  1.0000
  P   P1        1.0  0.20648293192438416  0.45817899224667946  0.8552973331393972  1.0000
  P   P2        1.0  0.3505126177342958  0.04192018425790418  0.1446540584623008  1.0000
  P   P3        1.0  0.7934999387532214  0.541828192782816  0.144705341068871  1.0000
  P   P4        1.0  0.6495020331353344  0.9580819633993225  0.8553483776659973  1.0000
  H   H1        1.0  0.9485885488436522  0.08977394459181905  0.7392774191658873  1.0000
  H   H2        1.0  0.2089830906983465  0.41036280971582056  0.2608026157551819  1.0000
  H   H3        1.0  0.051412925187292985  0.9102270072022588  0.26071987120323564  1.0000
  H   H4        1.0  0.7910242720813798  0.5896393815611061  0.7391963966719999  1.0000
  H   H5        1.0  0.20809367316292793  0.12667294898326273  0.7699123487792079  1.0000
  H   H6        1.0  0.43776529513220896  0.3734121057987067  0.23006247244001796  1.0000
  H   H7        1.0  0.7919046509276908  0.8733229301580461  0.23008707001559964  1.0000
  H   H8        1.0  0.5622361238157791  0.6265875567891824  0.7699369742422988  1.0000
  H   H9        1.0  0.37768174621781725  0.354626455431223  0.722034548005773  1.0000
  H   H10       1.0  0.6549275468424155  0.1453418003819351  0.27784102873943073  1.0000
  H   H11       1.0  0.6223168237557883  0.6453744619142083  0.2779653608191807  1.0000
  H   H12       1.0  0.3450826649116862  0.8546591361374494  0.7221575215451209  1.0000
  H   H13       1.0  0.2356009865515745  0.480847415467174  0.6603547203666693  1.0000
  H   H14       1.0  0.5744026777132588  0.019144576237103198  0.33957154619084656  1.0000
  H   H15       1.0  0.7643961936625769  0.5191547404980664  0.33964690504632233  1.0000
  H   H16       1.0  0.42559455758384956  0.9808588689343336  0.6604279229089514  1.0000
  H   H17       1.0  0.0234750534580996  0.2639067219492475  0.5295557931072921  1.0000
  H   H18       1.0  0.4929398859592239  0.23606334450472838  0.47041941325091574  1.0000
  H   H19       1.0  0.9765291593813004  0.7360903966749105  0.4704453477455742  1.0000
  H   H20       1.0  0.5070600154969823  0.7639350598422822  0.5295797958888215  1.0000
  H   H21       1.0  0.15339968500105527  0.07587136319489218  0.5083368088321407  1.0000
  H   H22       1.0  0.6443226993128305  0.42403527726790446  0.49163093896861193  1.0000
  H   H23       1.0  0.8465988801817088  0.9241295763919052  0.4916613908772617  1.0000
  H   H24       1.0  0.3556772085311479  0.5759630974239442  0.5083705489918557  1.0000
  H   H25       1.0  0.28287008961746096  0.2667575777377493  0.5621999655183174  1.0000
  H   H26       1.0  0.7198567322754101  0.23317138039765686  0.4377840694333486  1.0000
  H   H27       1.0  0.7171315736165552  0.7332471304680508  0.43779940148895946  1.0000
  H   H28       1.0  0.2801432338454291  0.7668282686728032  0.5622164016242904  1.0000
  H   H29       1.0  0.7213307802374017  0.13118163570256056  0.606732576324589  1.0000
  H   H30       1.0  0.11384914254235669  0.36877576761123254  0.3932895017883452  1.0000
  H   H31       1.0  0.27866475315568806  0.8688167725749021  0.393266287710027  1.0000
  H   H32       1.0  0.8861509401321824  0.6312264302164434  0.6067089354636365  1.0000
  H   H33       1.0  0.6090373261416387  0.3320459447747054  0.6214849502010793  1.0000
  H   H34       1.0  0.9868038570728073  0.1678386412170453  0.3785522905121965  1.0000
  H   H35       1.0  0.39095991873714536  0.6679574559139849  0.3785179371298071  1.0000
  H   H36       1.0  0.0131934979719048  0.8321673378840299  0.6214462841923094  1.0000
  H   H37       1.0  0.6961025244594764  0.23365219847165258  0.7039253162372817  1.0000
  H   H38       1.0  0.9916125725495563  0.26628341405829997  0.2961012482435876  1.0000
  H   H39       1.0  0.30389616845561557  0.7663512379758327  0.2960748376027381  1.0000
  H   H40       1.0  0.008389087490570499  0.7337213089750774  0.7038969793533241  1.0000
  H   H41       1.0  0.63830492186743  0.7148582081102857  0.04039824451408686  1.0000
  H   H42       1.0  0.5980262770500032  0.784836764975068  0.9595190357022787  1.0000
  H   H43       1.0  0.36169359142626684  0.2851414274427454  0.9596032509188744  1.0000
  H   H44       1.0  0.40197514668881945  0.21516287537144752  0.04048212009558229  1.0000
  C   C1        1.0  0.0679996760392427  0.18534302886710205  0.7540370558229695  1.0000
  C   C2        1.0  0.31353615835255505  0.3147577593642692  0.2459981048669633  1.0000
  C   C3        1.0  0.9320002238200116  0.814655382893697  0.24596158361158868  1.0000
  C   C4        1.0  0.6864682955789901  0.6852444197053769  0.754001816900505  1.0000
  C   C5        1.0  0.0756084332115066  0.2706927041369978  0.6836846228621241  1.0000
  C   C6        1.0  0.39132038390619067  0.22930897099222125  0.3162808806208943  1.0000
  C   C7        1.0  0.9243887406148585  0.7293094814834048  0.31631472373013736  1.0000
  C   C8        1.0  0.6086840716222995  0.7706932006636363  0.6837196108517531  1.0000
  C   C9        1.0  0.23571986415504398  0.4118288440166963  0.7081549515426033  1.0000
  C   C10       1.0  0.5268081607374596  0.08813825152382997  0.2917625117734346  1.0000
  C   C11       1.0  0.7642801618395934  0.5881720720185867  0.2918450723173862  1.0000
  C   C12       1.0  0.47319501998833857  0.9118677149228487  0.7082370927764146  1.0000
  C   C13       1.0  0.14648912582534726  0.19091898985598718  0.5524306851805036  1.0000
  C   C14       1.0  0.5932594128680507  0.3089965514759071  0.4475411175726549  1.0000
  C   C15       1.0  0.8535108402954916  0.8090806592144727  0.4475697858771354  1.0000
  C   C16       1.0  0.40673909403786007  0.6910031137322787  0.5524580990395762  1.0000
  C   C17       1.0  0.7227663322344923  0.2542197100669696  0.6467508636016034  1.0000
  C   C18       1.0  0.0753008952841228  0.24571030060094753  0.3532657300881539  1.0000
  C   C19       1.0  0.27722768366682254  0.7457774399696147  0.353247762890433  1.0000
  C   C20       1.0  0.9247019748940628  0.7542893829181593  0.6467321225136544  1.0000
  O   O1        1.0  0.035102691836897286  0.3091106548356847  0.8206099933082951  1.0000
  O   O2        1.0  0.21394590817523348  0.1909765537097171  0.1794526687027584  1.0000
  O   O3        1.0  0.9648941746357449  0.6908852330295683  0.17938874074628325  1.0000
  O   O4        1.0  0.7860612151092922  0.8090205697079251  0.8205481325150145  1.0000
  O   O5        1.0  0.12019706019364658  0.13852498614620853  0.6232088442118879  1.0000
  O   O6        1.0  0.49654458575276544  0.36139750137020593  0.3767603398574336  1.0000
  O   O7        1.0  0.8798044832927657  0.861477188129953  0.37679141719068093  1.0000
  O   O8        1.0  0.5034555033095599  0.6386046668023152  0.6232403762152713  1.0000
  O   O9        1.0  0.9020209705824696  0.3491645390723121  0.6566515729887286  1.0000
  O   O10       1.0  0.24461382522652997  0.15082468317331174  0.34331897775392406  1.0000
  O   O11       1.0  0.09797462268442556  0.6508351361699662  0.3433468438482378  1.0000
  O   O12       1.0  0.7553876519983048  0.8491762537931891  0.6566794520255569  1.0000
  O   O13       1.0  0.20657368726998726  0.5347230207607649  0.775887899093803  1.0000
  O   O14       1.0  0.4298840442916402  0.9652758141139797  0.22402982983545877  1.0000
  O   O15       1.0  0.7934219738554302  0.46527788437738576  0.22411291907143036  1.0000
  O   O16       1.0  0.5701203529599964  0.03472508316326639  0.7759716785400244  1.0000
  O   O17       1.0  0.3983232213934754  0.37968803785773986  0.8786279283058462  1.0000
  O   O18       1.0  0.519126784834718  0.12034447904839843  0.12127911245125489  1.0000
  O   O19       1.0  0.60167188330135  0.6203015461487239  0.12137064788119999  1.0000
  O   O20       1.0  0.48087730506318843  0.8796501204736981  0.8787217833865454  1.0000
  O   O21       1.0  0.12810314278347326  0.5854202394585568  0.9140221728801379  1.0000
  O   O22       1.0  0.21334633870885966  0.9148242057245779  0.08591709201125036  1.0000
  O   O23       1.0  0.8718948723564778  0.4145693493413914  0.08597606367180788  1.0000
  O   O24       1.0  0.7866535675381738  0.08517417638105937  0.9140838262440312  1.0000
  O   O25       1.0  0.701052451691396  0.7498892231433414  0.9999892951446442  1.0000
  O   O26       1.0  0.29895044084403105  0.25011035658270225  1.6533329713297405e-05  1.0000
