data_image0
_chemical_formula_structural       Cd2H20C24N12O12
_chemical_formula_sum              "Cd2 H20 C24 N12 O12"
_cell_length_a       6.9745012133934505
_cell_length_b       10.41590283484715
_cell_length_c       10.758747541206604
_cell_angle_alpha    96.9193640304282
_cell_angle_beta     108.92643580349774
_cell_angle_gamma    89.98678693068223

_space_group_name_H-M_alt    "P 1"
_space_group_IT_number       1

loop_
  _space_group_symop_operation_xyz
  'x, y, z'

loop_
  _atom_site_type_symbol
  _atom_site_label
  _atom_site_symmetry_multiplicity
  _atom_site_fract_x
  _atom_site_fract_y
  _atom_site_fract_z
  _atom_site_occupancy
  Cd  Cd1       1.0  0.13361231836262988  0.2499369832513025  0.9999694782140054  1.0000
  Cd  Cd2       1.0  0.8663903493945142  0.7500626627341872  3.132326425966655e-05  1.0000
  H   H1        1.0  0.9570449582479695  0.4476427880732956  0.14813846582628534  1.0000
  H   H2        1.0  0.8091630948785566  0.05243257230080189  0.8518397282807372  1.0000
  H   H3        1.0  0.042953147345961916  0.552356858053585  0.8518622779096532  1.0000
  H   H4        1.0  0.19083352499909984  0.9475670675743617  0.14815883417275444  1.0000
  H   H5        1.0  0.06855606870932011  0.32991039211086104  0.22190104520866777  1.0000
  H   H6        1.0  0.8469104608837981  0.1700122663543269  0.7779186085755824  1.0000
  H   H7        1.0  0.9314404747047931  0.670088282525228  0.7780983206143618  1.0000
  H   H8        1.0  0.15308928335350205  0.8299893165024201  0.22208270970371297  1.0000
  H   H9        1.0  0.23419583096371355  0.14778960486344062  0.5276959732957849  1.0000
  H   H10       1.0  0.7067386062540778  0.35218744947997754  0.47245732639973426  1.0000
  H   H11       1.0  0.765800526612651  0.8522051872203067  0.47229919331397957  1.0000
  H   H12       1.0  0.29326228493465584  0.6478083265979963  0.5275435806878193  1.0000
  H   H13       1.0  0.6017150048423332  0.7787366820960527  0.21867895922044053  1.0000
  H   H14       1.0  0.3832031215233514  0.7211746383422266  0.7812247569214605  1.0000
  H   H15       1.0  0.39828936011313243  0.2212639110846624  0.7813148808928715  1.0000
  H   H16       1.0  0.6167950605341233  0.27882597302372863  0.21877518344493294  1.0000
  H   H17       1.0  0.7984900744228511  0.09403093540390729  0.07148657148757555  1.0000
  H   H18       1.0  0.7278743624268529  0.406092656018778  0.9285007661233136  1.0000
  H   H19       1.0  0.20151152284639554  0.9059754825994231  0.9285138378128934  1.0000
  H   H20       1.0  0.2721238825453796  0.5939099020223607  0.07150312702257369  1.0000
  C   C1        1.0  0.5560805241695024  0.9952245627538762  0.3876168545172903  1.0000
  C   C2        1.0  0.1688398070316026  0.5046560093488708  0.6122831475840584  1.0000
  C   C3        1.0  0.4439189113070726  0.004771201673356999  0.612380018114969  1.0000
  C   C4        1.0  0.8311614064666415  0.49534460372249367  0.38771744900151356  1.0000
  C   C5        1.0  0.40622516726583063  0.0806153326588159  0.4012157460560529  1.0000
  C   C6        1.0  0.005471822396273816  0.41922281709889125  0.5987143876773614  1.0000
  C   C7        1.0  0.593774329672236  0.9193813997069997  0.5987812497930918  1.0000
  C   C8        1.0  0.9945293460958027  0.5807778040709906  0.40128898866748836  1.0000
  C   C9        1.0  0.3529680669202834  0.08418868508952221  0.515949538298635  1.0000
  C   C10       1.0  0.8371768378843782  0.4158176473926644  0.48411580074401417  1.0000
  C   C11       1.0  0.6470329757422845  0.9158080427299851  0.4840459324872341  1.0000
  C   C12       1.0  0.1628256919477238  0.5841800654151683  0.5158856808869031  1.0000
  C   C13       1.0  0.2886693920659837  0.16319104207095583  0.2978638427741913  1.0000
  C   C14       1.0  0.9913959771482724  0.3366326433560615  0.702048559954754  1.0000
  C   C15       1.0  0.7113301513315167  0.8368066609329432  0.7021342028782697  1.0000
  C   C16       1.0  0.008602144900976303  0.6633679788079192  0.29795508675735494  1.0000
  C   C17       1.0  0.6413030438540944  0.8748652036164302  0.20166988089892612  1.0000
  C   C18       1.0  0.4399040296900979  0.6250579156952228  0.7982160794747557  1.0000
  C   C19       1.0  0.3587029297406304  0.1251373316931605  0.7983263869306114  1.0000
  C   C20       1.0  0.560092560183449  0.374941729578957  0.2017843361515901  1.0000
  C   C21       1.0  0.7403510956185572  0.03637419471237279  0.12981499208818553  1.0000
  C   C22       1.0  0.6112393262030906  0.46365951077063255  0.87012131988822  1.0000
  C   C23       1.0  0.2596504087318294  0.9636302820147832  0.870183317605651  1.0000
  C   C24       1.0  0.38876049595101864  0.5363440160617968  0.12988302458413867  1.0000
  N   N1        1.0  0.622335123846277  0.9851316358056935  0.2751813460531523  1.0000
  N   N2        1.0  0.3477005849196929  0.5147524174868536  0.7246478474043485  1.0000
  N   N3        1.0  0.3776660417392678  0.0148670278909719  0.7248143711664952  1.0000
  N   N4        1.0  0.6522975821357306  0.4852481965786095  0.2753530195484686  1.0000
  N   N5        1.0  0.6853759694465893  0.0894424473904394  0.2305823121223085  1.0000
  N   N6        1.0  0.45562352516466836  0.41050275764202837  0.7692764596323726  1.0000
  N   N7        1.0  0.314623851254254  0.9105601007053749  0.769418202787449  1.0000
  N   N8        1.0  0.5443761890685154  0.5894988306137279  0.2307267118197842  1.0000
  N   N9        1.0  0.7153030203702216  0.9041683077114655  0.10831300493450867  1.0000
  N   N10       1.0  0.6073578193617665  0.5958527706327957  0.8916304828386143  1.0000
  N   N11       1.0  0.2847014225020673  0.0958342294449324  0.8916838613718666  1.0000
  N   N12       1.0  0.39263886343064774  0.4041488159175587  0.10837203239436378  1.0000
  O   O1        1.0  0.23092020103864289  0.1117416994826996  0.17591347846463629  1.0000
  O   O2        1.0  0.05562048885497722  0.388099004700969  0.8239712192017876  1.0000
  O   O3        1.0  0.7690779645635146  0.8882579358461554  0.8240835589255794  1.0000
  O   O4        1.0  0.9443806331776655  0.6119006458308291  0.17603110733975297  1.0000
  O   O5        1.0  0.25005113258237094  0.2752015100798602  0.339176679667382  1.0000
  O   O6        1.0  0.9114205561152887  0.22461950404073863  0.6607100246234124  1.0000
  O   O7        1.0  0.7499514887153396  0.7247971652675389  0.6608230720075737  1.0000
  O   O8        1.0  0.08857751947452643  0.7753801474851514  0.33929257228538034  1.0000
  O   O9        1.0  0.9640983135771323  0.3511994979005379  0.13722488202135713  1.0000
  O   O10       1.0  0.8269152651386876  0.1488813698223623  0.8625643925156012  1.0000
  O   O11       1.0  0.03589821483491563  0.6487991794350594  0.8627754103881031  1.0000
  O   O12       1.0  0.17308585689395536  0.8511182807094358  0.1374379340259395  1.0000
