data_image0
_chemical_formula_structural       Zn4H16C20S4N4O12
_chemical_formula_sum              "Zn4 H16 C20 S4 N4 O12"
_cell_length_a       4.777440290188343
_cell_length_b       8.449684815522197
_cell_length_c       19.366940642736836
_cell_angle_alpha    101.80104459644849
_cell_angle_beta     90.10466346398573
_cell_angle_gamma    106.30934583756104

_space_group_name_H-M_alt    "P 1"
_space_group_IT_number       1

loop_
  _space_group_symop_operation_xyz
  'x, y, z'

loop_
  _atom_site_type_symbol
  _atom_site_label
  _atom_site_symmetry_multiplicity
  _atom_site_fract_x
  _atom_site_fract_y
  _atom_site_fract_z
  _atom_site_occupancy
  Zn  Zn1       1.0  0.939428898039239  0.42963819603559733  0.8169357525509326  1.0000
  Zn  Zn2       1.0  0.5098575068608966  0.5693134825313066  0.683061845251757  1.0000
  Zn  Zn3       1.0  0.0605703136235647  0.5703631624373103  0.18306417306976636  1.0000
  Zn  Zn4       1.0  0.4901360560999279  0.43068914105872835  0.3169381861475741  1.0000
  H   H1        1.0  0.1243573352685061  0.39373949348706117  0.9575976905479564  1.0000
  H   H2        1.0  0.7343964281599612  0.6067400685198409  0.5429830942707453  1.0000
  H   H3        1.0  0.875657502608  0.6062428479749686  0.0423980475660173  1.0000
  H   H4        1.0  0.26560046782832103  0.3932650492191955  0.45701611616319565  1.0000
  H   H5        1.0  0.9363985524902674  0.21833551905402973  0.04442946295442599  1.0000
  H   H6        1.0  0.7218814323403465  0.7824579129379503  0.4560988621825571  1.0000
  H   H7        1.0  0.06362691677664853  0.7816429717040378  0.9555638862070592  1.0000
  H   H8        1.0  0.27808802043105635  0.2175383514782681  0.5438985602030043  1.0000
  H   H9        1.0  0.21807348110156247  0.9316638559715926  0.8899931185408574  1.0000
  H   H10       1.0  0.2858946566803268  0.0679924285752378  0.60967920296018  1.0000
  H   H11       1.0  0.7819240900683441  0.0683425968172529  0.11000878690254719  1.0000
  H   H12       1.0  0.7141140072362547  0.9320152814164121  0.39032281135422403  1.0000
  H   H13       1.0  0.4284977827334586  0.129601196610075  0.8128252983188132  1.0000
  H   H14       1.0  0.2983934575385732  0.8698997016236236  0.6869015259510219  1.0000
  H   H15       1.0  0.5714981571116197  0.8704103650748182  0.18717910456154385  1.0000
  H   H16       1.0  0.7016315751843507  0.1301156336482592  0.3131032027692412  1.0000
  C   C1        1.0  0.9209646136444363  0.29149819280598893  0.9458480900805666  1.0000
  C   C2        1.0  0.6315420092227413  0.708584709148525  0.5544341787825714  1.0000
  C   C3        1.0  0.07904545240222655  0.708495556686124  0.054150161387838076  1.0000
  C   C4        1.0  0.36844486017894695  0.2914128824031792  0.44556594170481373  1.0000
  C   C5        1.0  0.8156849789346127  0.18992857915792882  0.9935055553829315  1.0000
  C   C6        1.0  0.6279206144555117  0.8103863197999676  0.5067713559674729  1.0000
  C   C7        1.0  0.1843238100933888  0.810062616875456  0.006491446980462  1.0000
  C   C8        1.0  0.3720668842874347  0.1896125339009913  0.4932288714581857  1.0000
  C   C9        1.0  0.557649111413582  0.05626735825919841  0.9754615599526629  1.0000
  C   C10       1.0  0.501369714486472  0.9435040442751513  0.5245254459715979  1.0000
  C   C11       1.0  0.44235391593586837  0.9437290361294759  0.0245410447600136  1.0000
  C   C12       1.0  0.49862239430260763  0.056499857033543315  0.47547520959369627  1.0000
  C   C13       1.0  0.4162921476527117  0.0338389945661817  0.9088659402842081  1.0000
  C   C14       1.0  0.3816209642878192  0.9655701752425472  0.590910908638598  1.0000
  C   C15       1.0  0.58371420355612  0.9661598793913841  0.091135325848839  1.0000
  C   C16       1.0  0.6183740895170403  0.0344312289492734  0.40909056905172037  1.0000
  C   C17       1.0  0.533078677253485  0.14261007172392226  0.864577357803469  1.0000
  C   C18       1.0  0.3897765991597382  0.856728860701246  0.6352283371420312  1.0000
  C   C19       1.0  0.4669243317598132  0.8573862935045329  0.13542421168072843  1.0000
  C   C20       1.0  0.6102176298146347  0.14327508335848896  0.3647738716525239  1.0000
  S   S1        1.0  0.5580400815067819  0.670072934522274  0.8467407408028648  1.0000
  S   S2        1.0  0.8891837751629625  0.32868871861709453  0.6531824801114468  1.0000
  S   S3        1.0  0.441957657648132  0.32992967250906713  0.15325877375531144  1.0000
  S   S4        1.0  0.1108162704984039  0.6713101145680086  0.3468172320192479  1.0000
  N   N1        1.0  0.7819096429769913  0.2695904235708468  0.8825703610310849  1.0000
  N   N2        1.0  0.5126199077180047  0.7298941347275589  0.617444263329041  1.0000
  N   N3        1.0  0.21809395870527476  0.7304071454864243  0.11742924493442788  1.0000
  N   N4        1.0  0.4873784974504645  0.2701097927734822  0.38255742862436637  1.0000
  O   O1        1.0  0.3682642601733406  0.4835561899397547  0.8377848343639653  1.0000
  O   O2        1.0  0.8842499821025526  0.5150867022873556  0.6621300249326438  1.0000
  O   O3        1.0  0.6317278577838081  0.5164477259490498  0.16221633881556127  1.0000
  O   O4        1.0  0.11574110933359084  0.4849109456062095  0.3378721667847912  1.0000
  O   O5        1.0  0.8710025642937538  0.6521032082706242  0.8517783373899163  1.0000
  O   O6        1.0  0.2200413438381901  0.34697390038381576  0.6482479999023523  1.0000
  O   O7        1.0  0.12899531534194614  0.34789550926288376  0.14821723344032725  1.0000
  O   O8        1.0  0.779962673359968  0.6530287036796524  0.3517515158154652  1.0000
  O   O9        1.0  0.520698086270393  0.7181986469762976  0.7755325353380725  1.0000
  O   O10       1.0  0.8046530910166467  0.2804165703855118  0.7243674325261507  1.0000
  O   O11       1.0  0.47928941247255336  0.28180020672466094  0.22446769208759315  1.0000
  O   O12       1.0  0.19535324185604003  0.7195822744118275  0.2756327983784174  1.0000
