data_image0
_chemical_formula_structural       Cu7H30C24N6Cl8O6
_chemical_formula_sum              "Cu7 H30 C24 N6 Cl8 O6"
_cell_length_a       8.01003532894444
_cell_length_b       11.163707784688285
_cell_length_c       11.639645049010245
_cell_angle_alpha    66.52434421121592
_cell_angle_beta     83.85073717334372
_cell_angle_gamma    86.54371126599426

_space_group_name_H-M_alt    "P 1"
_space_group_IT_number       1

loop_
  _space_group_symop_operation_xyz
  'x, y, z'

loop_
  _atom_site_type_symbol
  _atom_site_label
  _atom_site_symmetry_multiplicity
  _atom_site_fract_x
  _atom_site_fract_y
  _atom_site_fract_z
  _atom_site_occupancy
  Cu  Cu1       1.0  0.6966661584120784  0.6069088228331694  0.5479769607767079  1.0000
  Cu  Cu2       1.0  0.3033324017407323  0.39309254834273577  0.4520221016114404  1.0000
  Cu  Cu3       1.0  0.9016515866864622  0.3955971919075052  0.35529515219693764  1.0000
  Cu  Cu4       1.0  0.09834574924661868  0.6044031968585909  0.6447035168197317  1.0000
  Cu  Cu5       1.0  0.0465635845982533  0.32846387326967624  0.6809944848962387  1.0000
  Cu  Cu6       1.0  0.9534414109571187  0.6715316562431467  0.3190080824744115  1.0000
  Cu  Cu7       1.0  1.9076112067955807e-06  0.9999992634355622  9.566355671141852e-07  1.0000
  H   H1        1.0  0.6508448082746412  0.8814437263051643  0.31786263747924437  1.0000
  H   H2        1.0  0.3491538107697636  0.11855568824491054  0.6821363144651682  1.0000
  H   H3        1.0  0.6839308440201748  0.9257157933210749  0.4467380061827412  1.0000
  H   H4        1.0  0.3160713964716989  0.07428851890025359  0.5532605198672866  1.0000
  H   H5        1.0  0.4260446140000552  0.7187062807210153  0.4693737350730699  1.0000
  H   H6        1.0  0.573953891101098  0.2812970439887294  0.5306245795325352  1.0000
  H   H7        1.0  0.6286928216947626  0.7665584638357215  0.6606342816389272  1.0000
  H   H8        1.0  0.3713107454402618  0.23344292991172466  0.3393678498001832  1.0000
  H   H9        1.0  0.4721795329732429  0.6367282672953392  0.6965865307108601  1.0000
  H   H10       1.0  0.5278215031448424  0.36327409193325605  0.30341369231150134  1.0000
  H   H11       1.0  0.9463754771238371  0.11257177855532767  0.37820822768970425  1.0000
  H   H12       1.0  0.0536269560488236  0.8874256962975619  0.6217929155992011  1.0000
  H   H13       1.0  0.7675763967355209  0.1750177928776749  0.28889824972826966  1.0000
  H   H14       1.0  0.23242477701170824  0.8249796825163215  0.7111038427504324  1.0000
  H   H15       1.0  0.1111398415188702  0.31298100416340446  0.22734064560826533  1.0000
  H   H16       1.0  0.8888599626996054  0.6870203788393779  0.772660900495161  1.0000
  H   H17       1.0  0.7489026369238159  0.41383142754769137  0.1601185851574769  1.0000
  H   H18       1.0  0.2510961511154974  0.5861621233088596  0.8398817519082724  1.0000
  H   H19       1.0  0.9402918972471779  0.513307285153587  0.11816037901260765  1.0000
  H   H20       1.0  0.059705466211724484  0.48669212684559665  0.8818386638953296  1.0000
  H   H21       1.0  0.4586851755339793  0.7035571524025244  0.19063190728989088  1.0000
  H   H22       1.0  0.5413171123296648  0.29644521246895283  0.8093690829952108  1.0000
  H   H23       1.0  0.5833222494228207  0.824958828522099  0.06972526534237737  1.0000
  H   H24       1.0  0.4166775266235945  0.17504448637055958  0.9302695253946279  1.0000
  H   H25       1.0  0.34149321706414776  0.6549777792561  0.009722602060747909  1.0000
  H   H26       1.0  0.6585015372865113  0.3450245703100449  0.9902789340055161  1.0000
  H   H27       1.0  0.7245667416944596  0.6981269127715067  0.9552635507071655  1.0000
  H   H28       1.0  0.2754244379342694  0.30186954689648354  0.04473449401340449  1.0000
  H   H29       1.0  0.59825424634775  0.5991632426087605  0.900849526002609  1.0000
  H   H30       1.0  0.4017356424897685  0.400834197459254  0.09914995224275455  1.0000
  C   C1        1.0  0.35209753563002266  0.9801272664312958  0.29706391962559303  1.0000
  C   C2        1.0  0.6479048738567528  0.019871182096515793  0.7029359915457715  1.0000
  C   C3        1.0  0.10909992037021958  0.04922917516366709  0.20995080665402094  1.0000
  C   C4        1.0  0.8909036109128576  0.9507741566576439  0.790046285871213  1.0000
  C   C5        1.0  0.2896464755897625  0.9178068130306085  0.14568443031324554  1.0000
  C   C6        1.0  0.7103533324686566  0.08219456688017598  0.8543162575639085  1.0000
  C   C7        1.0  0.5953062167974252  0.8861080839182801  0.40628852696885814  1.0000
  C   C8        1.0  0.404693630306646  0.11389230994959824  0.5937099601207549  1.0000
  C   C9        1.0  0.526587611045805  0.7584144278091924  0.49973418759599736  1.0000
  C   C10       1.0  0.47341473570943277  0.2415859804364472  0.5002666922453683  1.0000
  C   C11       1.0  0.5516275501709271  0.7125492269810819  0.6264480544855502  1.0000
  C   C12       1.0  0.4483798624581325  0.2874492472102617  0.3735557839630558  1.0000
  C   C13       1.0  0.9049672744574336  0.17315333239606895  0.28533333719805387  1.0000
  C   C14       1.0  0.095035166395121  0.8268441362728324  0.7146660896383066  1.0000
  C   C15       1.0  0.9745080994672363  0.30795918888949797  0.23409976193378404  1.0000
  C   C16       1.0  0.0254917085911828  0.6920421910212934  0.76590092594337  1.0000
  C   C17       1.0  0.880636580453128  0.4197683145661273  0.17323792798317322  1.0000
  C   C18       1.0  0.11935573762413298  0.580231105781472  0.8267666281364825  1.0000
  C   C19       1.0  0.4687488474283867  0.7684053188383043  0.09020472016896265  1.0000
  C   C20       1.0  0.5312534833208531  0.23159605689827592  0.9097932111023324  1.0000
  C   C21       1.0  0.4641587118170704  0.6923885870606694  0.010721583353344517  1.0000
  C   C22       1.0  0.5358372225752601  0.30761764429608707  0.9892706421479075  1.0000
  C   C23       1.0  0.6021457839832037  0.6626071135480841  0.9514531428943227  1.0000
  C   C24       1.0  0.39784927699150063  0.33738448848994546  0.04855164774961905  1.0000
  N   N1        1.0  0.21085071741126166  0.05288741178469539  0.2915175957569146  1.0000
  N   N2        1.0  0.7891528689234801  0.9471139665027689  0.7084802445508558  1.0000
  N   N3        1.0  0.1440500087990273  0.9873336978729125  0.13108957205211172  1.0000
  N   N4        1.0  0.8559535461699355  0.012668660273469402  0.8689087525906557  1.0000
  N   N5        1.0  0.3961452297238565  0.9091850434600983  0.2288613272049886  1.0000
  N   N6        1.0  0.6038520748434449  0.09081632516491568  0.7711378261466775  1.0000
  Cl  Cl1       1.0  0.8147788039443782  0.4560276534628328  0.7110663028347017  1.0000
  Cl  Cl2       1.0  0.18522612823322498  0.5439707908907677  0.28893085173080374  1.0000
  Cl  Cl3       1.0  0.7048851639102621  0.5386535430493422  0.38687906155830376  1.0000
  Cl  Cl4       1.0  0.29511093244332187  0.4613458756749367  0.613122646991968  1.0000
  Cl  Cl5       1.0  0.9871885349346808  0.24770087344742817  0.5394492610255169  1.0000
  Cl  Cl6       1.0  0.01281372924307791  0.7523024650989709  0.46055049714205126  1.0000
  Cl  Cl7       1.0  0.10506660933409508  0.21026020264263673  0.8793208759770506  1.0000
  Cl  Cl8       1.0  0.8949306990731571  0.7897411628903864  0.12067741914835056  1.0000
  O   O1        1.0  0.45467162543007317  0.9820659363375127  0.379211924989434  1.0000
  O   O2        1.0  0.5453268796710801  0.0179373883722391  0.620786389616178  1.0000
  O   O3        1.0  0.9584797313276637  0.1077330254950297  0.19977546519859857  1.0000
  O   O4        1.0  0.04152393374461378  0.8922654255836729  0.8002243550092415  1.0000
  O   O5        1.0  0.3219347096743802  0.8571663826531759  0.06831807343400709  1.0000
  O   O6        1.0  0.6780700618344255  0.1428369640870031  0.9316823610327771  1.0000
