data_image0
_chemical_formula_structural       Cd7H32C56Cl6O20
_chemical_formula_sum              "Cd7 H32 C56 Cl6 O20"
_cell_length_a       10.413866364952085
_cell_length_b       10.760953837706557
_cell_length_c       15.242756046686027
_cell_angle_alpha    85.86583202345639
_cell_angle_beta     74.3566089621726
_cell_angle_gamma    61.939205757881325

_space_group_name_H-M_alt    "P 1"
_space_group_IT_number       1

loop_
  _space_group_symop_operation_xyz
  'x, y, z'

loop_
  _atom_site_type_symbol
  _atom_site_label
  _atom_site_symmetry_multiplicity
  _atom_site_fract_x
  _atom_site_fract_y
  _atom_site_fract_z
  _atom_site_occupancy
  Cd  Cd1       1.0  0.49999978081877594  0.5000000100667776  0.9999995277280007  1.0000
  Cd  Cd2       1.0  0.7983236562142366  0.6650695749453988  0.9838073611562949  1.0000
  Cd  Cd3       1.0  0.20167696719936862  0.3349293144361027  0.016192396179356226  1.0000
  Cd  Cd4       1.0  0.3708849010325606  0.914555475599727  0.012447292833698534  1.0000
  Cd  Cd5       1.0  0.6291141940318  0.08544446866082471  0.9875520367637236  1.0000
  Cd  Cd6       1.0  0.9354942961099083  0.21336832462040428  0.9832092458840549  1.0000
  Cd  Cd7       1.0  0.06450579633824564  0.7866316193415701  0.016791212072078596  1.0000
  H   H1        1.0  0.4497097370194467  0.40324784835178223  0.2987698557160671  1.0000
  H   H2        1.0  0.550288827444213  0.5967531498018489  0.7012308305188242  1.0000
  H   H3        1.0  0.4144777967627391  0.31387922658870343  0.4548400151116497  1.0000
  H   H4        1.0  0.5855217643552066  0.686121772641137  0.5451604874479798  1.0000
  H   H5        1.0  0.2687214215533232  0.04388000415052321  0.3627625081796992  1.0000
  H   H6        1.0  0.7312807302095194  0.9561178303519287  0.6372376768941875  1.0000
  H   H7        1.0  0.31358112793494547  0.127210391118453  0.2059582402290374  1.0000
  H   H8        1.0  0.6864210238278972  0.8727874433839917  0.7940419448448424  1.0000
  H   H9        1.0  0.014159608322266693  0.5286178582618105  0.6830265876521509  1.0000
  H   H10       1.0  0.9858410150913388  0.4713810311196909  0.31697316968350003  1.0000
  H   H11       1.0  0.13721602720742962  0.4028186026450485  0.5285355355631935  1.0000
  H   H12       1.0  0.8627820715674093  0.5971813398519075  0.4714646337264768  1.0000
  H   H13       1.0  0.3568087274340854  0.010767032521236801  0.6511200733840566  1.0000
  H   H14       1.0  0.6431903679950326  0.9892329110519212  0.34887991223035186  1.0000
  H   H15       1.0  0.23592282743558712  0.13824452145704672  0.8048699745916962  1.0000
  H   H16       1.0  0.7640758030342101  0.8617543650846571  0.1951308061114574  1.0000
  H   H17       1.0  0.8262397013066758  0.38038596139304565  0.20521679874324417  1.0000
  H   H18       1.0  0.1737587964213461  0.6196171497473133  0.7947824809893973  1.0000
  H   H19       1.0  0.6382663051029664  0.4541907789716577  0.3583331476115675  1.0000
  H   H20       1.0  0.36173126197691363  0.5458102194805577  0.6416664102646125  1.0000
  H   H21       1.0  0.8960187452919116  0.04968257316083681  0.45523233566080273  1.0000
  H   H22       1.0  0.10397882178796179  0.9503184252913787  0.5447672222153699  1.0000
  H   H23       1.0  0.08587008877135842  0.9790215091435924  0.3033857264472175  1.0000
  H   H24       1.0  0.9141299373059011  0.020980547117709105  0.6966139810236598  1.0000
  H   H25       1.0  0.5084232287209218  0.2779897940681053  0.8022929280219772  1.0000
  H   H26       1.0  0.4915753357427377  0.7220112040855258  0.19770775821290704  1.0000
  H   H27       1.0  0.46997285533198163  0.2835904418163437  0.6471863461915746  1.0000
  H   H28       1.0  0.5300257751378155  0.716408444725353  0.3528144345115862  1.0000
  H   H29       1.0  0.8919708381998034  0.29184393629253697  0.5293406428361821  1.0000
  H   H30       1.0  0.10802825722931432  0.7081560072806213  0.4706593427782265  1.0000
  H   H31       1.0  0.9324650454531992  0.27818339439210155  0.6841863848673455  1.0000
  H   H32       1.0  0.0675340499759187  0.7218165491810568  0.3158136007470631  1.0000
  C   C1        1.0  0.4073491200047101  0.3218963821182754  0.1501547943739681  1.0000
  C   C2        1.0  0.5926519690977159  0.678103562919901  0.8498454799069038  1.0000
  C   C3        1.0  0.3809404335557147  0.2728100123319735  0.24337582757618037  1.0000
  C   C4        1.0  0.6190611865121696  0.7271888781257305  0.756623746084216  1.0000
  C   C5        1.0  0.4088346857098345  0.3255998228254812  0.3138015831180923  1.0000
  C   C6        1.0  0.5911658720623905  0.6744011774805615  0.6861987357662755  1.0000
  C   C7        1.0  0.38791139560612453  0.2769175450326102  0.4008448882072315  1.0000
  C   C8        1.0  0.6120886968420293  0.723082398929364  0.5991555697489019  1.0000
  C   C9        1.0  0.3347739144394382  0.17719636281101714  0.4174430142361487  1.0000
  C   C10       1.0  0.665227174298238  0.8228035829145527  0.5825566040277366  1.0000
  C   C11       1.0  0.30708789501913003  0.12332560577366541  0.34803067370121715  1.0000
  C   C12       1.0  0.6929131944480534  0.8766743385771177  0.6519702565966483  1.0000
  C   C13       1.0  0.3318152644330112  0.1703526485514999  0.2609572631270396  1.0000
  C   C14       1.0  0.6681863559996305  0.8296462412188177  0.7390429665503434  1.0000
  C   C15       1.0  0.036176976356287624  0.4152298499594025  0.8454660397023944  1.0000
  C   C16       1.0  0.963820591453093  0.5847711471180261  0.15453483020775144  1.0000
  C   C17       1.0  0.1181346571929751  0.34171021469607876  0.7536399798516911  1.0000
  C   C18       1.0  0.8818639729120717  0.6582886725330113  0.24636014483448318  1.0000
  C   C19       1.0  0.0914465686478821  0.4157001112815522  0.6752628812463114  1.0000
  C   C20       1.0  0.9085519954510275  0.584300887559472  0.3247371489715931  1.0000
  C   C21       1.0  0.15950721710765955  0.34552596692761745  0.5890848673519713  1.0000
  C   C22       1.0  0.8404934066707027  0.6544729217664907  0.41091554600066615  1.0000
  C   C23       1.0  0.2547286360591415  0.199252663349931  0.5814955993369821  1.0000
  C   C24       1.0  0.7452714560242555  0.8007472812994366  0.4185042026021647  1.0000
  C   C25       1.0  0.28344374762953345  0.12439977759499506  0.6589589385698034  1.0000
  C   C26       1.0  0.7165553485290916  0.8756001646033766  0.3410423590785783  1.0000
  C   C27       1.0  0.21556674449945495  0.1958767412093182  0.7443045230303014  1.0000
  C   C28       1.0  0.7844313546401337  0.8041232006002444  0.2556963022763483  1.0000
  C   C29       1.0  0.08451062881743349  0.1305216787297283  0.15490422641937585  1.0000
  C   C30       1.0  0.9154874046807747  0.8694803740043754  0.8450971604359906  1.0000
  C   C31       1.0  0.9691578290726782  0.17544712117986452  0.24477644965408976  1.0000
  C   C32       1.0  0.030842197004581375  0.8245549350814373  0.7552232578167875  1.0000
  C   C33       1.0  0.8418314871834625  0.308879199351523  0.2601795102328452  1.0000
  C   C34       1.0  0.158167542604268  0.6911228551461833  0.7398210369302801  1.0000
  C   C35       1.0  0.736795113918511  0.35021982350808406  0.345310578672624  1.0000
  C   C36       1.0  0.2632034501803987  0.6497811753329472  0.6546894515452806  1.0000
  C   C37       1.0  0.7579147132461229  0.257418669002874  0.4152585592713863  1.0000
  C   C38       1.0  0.24208438181823774  0.7425812752576776  0.5847407703260288  1.0000
  C   C39       1.0  0.8830446283562595  0.1227440516652223  0.40090416622487607  1.0000
  C   C40       1.0  0.11695293908837087  0.8772569460995999  0.599096047668283  1.0000
  C   C41       1.0  0.9882478359320997  0.08334177313487601  0.31598759483676286  1.0000
  C   C42       1.0  0.011752721475367926  0.916659227858567  0.6840120680306185  1.0000
  C   C43       1.0  0.7522720863732957  0.26360127465365935  0.8446276759334737  1.0000
  C   C44       1.0  0.24772800607485132  0.736398669308315  0.1553727820226598  1.0000
  C   C45       1.0  0.7235482537349326  0.27676549761725516  0.7532092870611393  1.0000
  C   C46       1.0  0.2764518390779712  0.7232344456573332  0.24679182691198057  1.0000
  C   C47       1.0  0.5921339758051475  0.2806627380982079  0.7424572185633027  1.0000
  C   C48       1.0  0.4078651192592133  0.7193372061623508  0.2575421110341197  1.0000
  C   C49       1.0  0.5700220327874063  0.28442679876496874  0.6561026983515958  1.0000
  C   C50       1.0  0.42997759397191276  0.7155720895403307  0.34389724265931687  1.0000
  C   C51       1.0  0.6784932364566174  0.28790694973980635  0.5793851495004391  1.0000
  C   C52       1.0  0.32150738695698766  0.7120919396416955  0.42061460783521204  1.0000
  C   C53       1.0  0.808969076719727  0.2871489166352461  0.5890035075934748  1.0000
  C   C54       1.0  0.19102855709579114  0.7128499688302413  0.4109974567849477  1.0000
  C   C55       1.0  0.8309813045425825  0.28043982654435246  0.6756963417302162  1.0000
  C   C56       1.0  0.1690187875408143  0.7195601181050079  0.324303460208931  1.0000
  Cl  Cl1       1.0  0.7280833455257891  0.47162617810872115  0.06151459118775906  1.0000
  Cl  Cl2       1.0  0.2719157491738216  0.5283737668392235  0.9384840823926764  1.0000
  Cl  Cl3       1.0  0.4132244554608562  0.10930285234822891  0.9129740212995048  1.0000
  Cl  Cl4       1.0  0.5867761679527491  0.8906960370332797  0.08702573603614645  1.0000
  Cl  Cl5       1.0  0.8202951655716576  0.06116444914980692  0.07979133577862996  1.0000
  Cl  Cl6       1.0  0.1797054563829407  0.9388344429812605  0.9202057974890749  1.0000
  O   O1        1.0  0.4317243332894308  0.42711179420648887  0.1385127070738577  1.0000
  O   O2        1.0  0.568273765485408  0.5728881482904669  0.8614874622158055  1.0000
  O   O3        1.0  0.406546837776638  0.2528090708343242  0.08388132952408256  1.0000
  O   O4        1.0  0.5934537856369673  0.7471898185471774  0.9161184278115755  1.0000
  O   O5        1.0  0.9392894158451667  0.5441523103385322  0.8504698232580878  1.0000
  O   O6        1.0  0.06071120756843842  0.4558465790429695  0.1495299340775631  1.0000
  O   O7        1.0  0.317489791080952  0.11825598091989062  0.5006002700297074  1.0000
  O   O8        1.0  0.6825118297164395  0.8817429081630336  0.499400615664662  1.0000
  O   O9        1.0  0.06441606290195524  0.34459782061970406  0.9166508538908931  1.0000
  O   O10       1.0  0.9355840295461917  0.6554021233422703  0.08334960406524057  1.0000
  O   O11       1.0  0.6443044583433135  0.300533522203729  0.4966811282459105  1.0000
  O   O12       1.0  0.3556951684160126  0.6994653661015635  0.5033188127650021  1.0000
  O   O13       1.0  0.205859989044832  0.0160690104419814  0.14897494639326686  1.0000
  O   O14       1.0  0.7941406347335236  0.9839298782521269  0.8510254669593708  1.0000
  O   O15       1.0  0.6442347721911831  0.2794366966673039  0.9167019822512259  1.0000
  O   O16       1.0  0.3557653206217211  0.7205632466072843  0.08329913172189411  1.0000
  O   O17       1.0  0.060565216097870696  0.20910028151799057  0.08665429017933231  1.0000
  O   O18       1.0  0.9394358722750481  0.7908996648949725  0.9133446720675663  1.0000
  O   O19       1.0  0.8831635759560613  0.23624485099018241  0.848536808114588  1.0000
  O   O20       1.0  0.1168365164920858  0.7637550929717918  0.1514636498415456  1.0000
