data_image0
_chemical_formula_structural       Cd8H72C108N36Cl4O24
_chemical_formula_sum              "Cd8 H72 C108 N36 Cl4 O24"
_cell_length_a       7.386192407004221
_cell_length_b       21.194235463001668
_cell_length_c       26.068567519016476
_cell_angle_alpha    90.00004505208732
_cell_angle_beta     90.00012155775046
_cell_angle_gamma    90.00000568044977

_space_group_name_H-M_alt    "P 1"
_space_group_IT_number       1

loop_
  _space_group_symop_operation_xyz
  'x, y, z'

loop_
  _atom_site_type_symbol
  _atom_site_label
  _atom_site_symmetry_multiplicity
  _atom_site_fract_x
  _atom_site_fract_y
  _atom_site_fract_z
  _atom_site_occupancy
  Cd  Cd1       1.0  0.3226664354035266  0.7500009114337088  0.5668500501774929  1.0000
  Cd  Cd2       1.0  0.8226682388554349  0.24999910234477338  0.9331494167629161  1.0000
  Cd  Cd3       1.0  0.6773330411844826  0.24999980220333384  0.4331491333987429  1.0000
  Cd  Cd4       1.0  0.17733123773814438  0.7500006676401937  0.0668513012279703  1.0000
  Cd  Cd5       1.0  0.7712559658411421  0.7499999504673837  0.51528195152558  1.0000
  Cd  Cd6       1.0  0.2712598325824729  0.24999911792170343  0.984717867906646  1.0000
  Cd  Cd7       1.0  0.22874351074815275  0.24999981951702924  0.4847176156540911  1.0000
  Cd  Cd8       1.0  0.7287423517661865  0.7500006520633065  0.0152828500850575  1.0000
  H   H1        1.0  0.35217146390674964  0.1513810725579248  0.5836125836438483  1.0000
  H   H2        1.0  0.8521706090232116  0.8486179985648333  0.9163876683585883  1.0000
  H   H3        1.0  0.6478293378831594  0.6513815756963766  0.416387687581981  1.0000
  H   H4        1.0  0.1478316040036631  0.3486179494976724  0.0836127291908042  1.0000
  H   H5        1.0  0.647829366564302  0.848618225600653  0.41638813434730076  1.0000
  H   H6        1.0  0.1478315753239485  0.15138129959358074  0.0836126660292322  1.0000
  H   H7        1.0  0.35216878483152664  0.3486186661147883  0.5836126468049088  1.0000
  H   H8        1.0  0.8521705803434967  0.6513813486607418  0.9163876051970093  1.0000
  H   H9        1.0  0.8679091345622538  0.13633779917238797  0.4992624920693913  1.0000
  H   H10       1.0  0.3679095802119932  0.8636622052826369  0.0007372906819255999  1.0000
  H   H11       1.0  0.1320903089737442  0.6363374226626987  0.5007373859173185  1.0000
  H   H12       1.0  0.6320912833124268  0.3636621128516709  0.9992631165023269  1.0000
  H   H13       1.0  0.1320930497836201  0.8636624426386633  0.5007374587149869  1.0000
  H   H14       1.0  0.6320926041366661  0.1363375647023659  0.9992634273097848  1.0000
  H   H15       1.0  0.8679078137395067  0.36366281914828147  0.4992625648658305  1.0000
  H   H16       1.0  0.3679081932782324  0.6363371853065161  0.0007368342809286  1.0000
  H   H17       1.0  0.6287238412812568  0.0880388385616584  0.5522269562310811  1.0000
  H   H18       1.0  0.1287249180011401  0.9119611686652008  0.9477731605477118  1.0000
  H   H19       1.0  0.3712755882101533  0.5880388908292886  0.4477732744257139  1.0000
  H   H20       1.0  0.8712759595680024  0.41196158556606116  0.05222689396676121  1.0000
  H   H21       1.0  0.3712769891870735  0.9119614032493641  0.447772994552885  1.0000
  H   H22       1.0  0.8712786202251265  0.0880390731462413  0.0522275574445601  1.0000
  H   H23       1.0  0.6287225345030335  0.41196087915528073  0.5522266763572787  1.0000
  H   H24       1.0  0.1287248709031132  0.5880381844189272  0.9477738240245371  1.0000
  H   H25       1.0  0.4141046090634005  0.9970138278566126  0.5551525444956127  1.0000
  H   H26       1.0  0.9141077815589256  0.0029866608375498996  0.9448473613850368  1.0000
  H   H27       1.0  0.5858949393655876  0.49701367048310624  0.444848331698978  1.0000
  H   H28       1.0  0.0858956848277899  0.5029867962714007  0.0551520475926068  1.0000
  H   H29       1.0  0.5858948675274646  0.0029868857807997993  0.44484740628809766  1.0000
  H   H30       1.0  0.08589846442099258  0.9970135809737569  0.0551529730043114  1.0000
  H   H31       1.0  0.41410182947427643  0.5029856276755921  0.5551527698946757  1.0000
  H   H32       1.0  0.9141064995165847  0.49701297371305486  0.9448475195878814  1.0000
  H   H33       1.0  0.8596116407128349  0.8711282043308657  0.5839010540836469  1.0000
  H   H34       1.0  0.3596149618803253  0.12887181069576306  0.9160984352154671  1.0000
  H   H35       1.0  0.1403865172263608  0.37112847598030635  0.41609897427787246  1.0000
  H   H36       1.0  0.6403885411143689  0.6288724644411587  0.0839006707836205  1.0000
  H   H37       1.0  0.14038648200042295  0.12887203748011436  0.4160988966995022  1.0000
  H   H38       1.0  0.6403899302177082  0.8711279592885504  0.0839007483620975  1.0000
  H   H39       1.0  0.8596075438571302  0.6288717658309794  0.5839017437115288  1.0000
  H   H40       1.0  0.3596136432286555  0.37112777736952307  0.9160985127932832  1.0000
  H   H41       1.0  0.07491099077956417  0.9612074002975318  0.581023050231579  1.0000
  H   H42       1.0  0.5749139812794509  0.038791661458589  0.9189770339813917  1.0000
  H   H43       1.0  0.9250885472307928  0.46120817306071865  0.41897626861559434  1.0000
  H   H44       1.0  0.4250881416439399  0.5387927769784328  0.0810227815317432  1.0000
  H   H45       1.0  0.9250871319336226  0.0387923696870374  0.4189769005514208  1.0000
  H   H46       1.0  0.4250922646989038  0.9612076366997114  0.0810229168039101  1.0000
  H   H47       1.0  0.07490686772752038  0.5387930124030331  0.5810236821670358  1.0000
  H   H48       1.0  0.5749126888229695  0.46120746483240527  0.9189767856484893  1.0000
  H   H49       1.0  0.8169222665130037  0.7499997769719045  0.1542406464010853  1.0000
  H   H50       1.0  0.31693051527280147  0.24999975393416918  0.3457587218928069  1.0000
  H   H51       1.0  0.1830745023211477  0.249999521186048  0.8457589207776124  1.0000
  H   H52       1.0  0.6830676074375363  0.7500000160500306  0.6542404616827113  1.0000
  H   H53       1.0  0.36849379585578385  0.7499997875845139  0.1919203716901876  1.0000
  H   H54       1.0  0.8685027923803403  0.24999974506437184  0.3080801786248628  1.0000
  H   H55       1.0  0.6315029729812875  0.24999998240021873  0.8080799626961409  1.0000
  H   H56       1.0  0.131495330328562  0.7500000249196432  0.6919186213469146  1.0000
  H   H57       1.0  0.9191704282726574  0.7499998594649923  0.3215693959902239  1.0000
  H   H58       1.0  0.4191787864223073  0.24999967489552696  0.17843041778530017  1.0000
  H   H59       1.0  0.0808249866868778  0.24999991051971898  0.6784309383956993  1.0000
  H   H60       1.0  0.5808206901626463  0.7499996232619209  0.8215679985829922  1.0000
  H   H61       1.0  0.030909313203792997  0.749999888331132  0.41245827938090673  1.0000
  H   H62       1.0  0.5309180233784757  0.24999963291310925  0.0875420666369564  1.0000
  H   H63       1.0  0.9690888095108222  0.24999988165362202  0.5875420550058337  1.0000
  H   H64       1.0  0.46908416096583483  0.7499996652449354  0.9124575005433825  1.0000
  H   H65       1.0  0.5794393675917817  0.74999987163649  0.3586748993707403  1.0000
  H   H66       1.0  0.0794474497739586  0.24999965124705167  0.1413250924122877  1.0000
  H   H67       1.0  0.420558755120048  0.2500003701743054  0.6413246678086678  1.0000
  H   H68       1.0  0.9205520268167006  0.7499996469111351  0.8586748583709749  1.0000
  H   H69       1.0  0.4733234658967048  0.7499998264850164  0.2688448450213485  1.0000
  H   H70       1.0  0.9733318902998319  0.2499997097047739  0.23115461792242797  1.0000
  H   H71       1.0  0.5266719490614022  0.24999994349951038  0.731155105760834  1.0000
  H   H72       1.0  0.0266662324132838  0.7499995884533918  0.7688453328604153  1.0000
  C   C1        1.0  0.22344202475650826  0.1340886257025247  0.5695070460262883  1.0000
  C   C2        1.0  0.7234426336876181  0.8659113847242067  0.9304931280732801  1.0000
  C   C3        1.0  0.7765574181269556  0.6340891468066587  0.4304932141239348  1.0000
  C   C4        1.0  0.276559584367014  0.3659113263888472  0.06950689694817669  1.0000
  C   C5        1.0  0.7765574518356431  0.8659111442822581  0.4304932883608572  1.0000
  C   C6        1.0  0.27655955065961285  0.13408838526061825  0.0695072063146895  1.0000
  C   C7        1.0  0.22344070458779433  0.3659115668309099  0.5695071202631041  1.0000
  C   C8        1.0  0.7234412461011883  0.6340879717693609  0.930493053835491  1.0000
  C   C9        1.0  0.9773675265627444  0.12930618525987106  0.5266199908728098  1.0000
  C   C10       1.0  0.4773674278523785  0.8706938337450365  0.973379953291726  1.0000
  C   C11       1.0  0.0226332688073825  0.6293062504692415  0.47338026621469  1.0000
  C   C12       1.0  0.5226334377155197  0.3706937423216701  0.026620074792298  1.0000
  C   C13       1.0  0.022633303906943104  0.8706935847249254  0.4733803435147479  1.0000
  C   C14       1.0  0.5226347564948527  0.1293059362397884  0.0266203810962438  1.0000
  C   C15       1.0  0.9773662077848398  0.37069399134194464  0.5266200681726119  1.0000
  C   C16       1.0  0.47736739275274687  0.629306027662949  0.9733798759915189  1.0000
  C   C17       1.0  0.8633833509248134  0.029231820622946693  0.5650247963820689  1.0000
  C   C18       1.0  0.36338570343913545  0.9707677227046788  0.9349746951991448  1.0000
  C   C19       1.0  0.13661606146319372  0.5292318526084399  0.4349750130071611  1.0000
  C   C20       1.0  0.6366165451080336  0.4707686158593917  0.0650250133756742  1.0000
  C   C21       1.0  0.13661612566591694  0.9707679493616439  0.4349751544013428  1.0000
  C   C22       1.0  0.6366191886631044  0.0292315754537853  0.0650256391894928  1.0000
  C   C23       1.0  0.8633807073753771  0.4707683892028882  0.5650257049830643  1.0000
  C   C24       1.0  0.3633842853617253  0.5292316259518159  0.9349753210120326  1.0000
  C   C25       1.0  0.6781106030696621  0.0402494328790368  0.5586438792359587  1.0000
  C   C26       1.0  0.17811164596090379  0.9597510478424879  0.9413558838267804  1.0000
  C   C27       1.0  0.3218888125224381  0.5402494772834174  0.4413559372096643  1.0000
  C   C28       1.0  0.8218892455047707  0.45975099744330816  0.0586438176915323  1.0000
  C   C29       1.0  0.32189022739724743  0.9597508089318011  0.4413556879442666  1.0000
  C   C30       1.0  0.8218918922653629  0.04024919396895402  0.0586448341654844  1.0000
  C   C31       1.0  0.6781079563146406  0.4597502927013153  0.5586443971766641  1.0000
  C   C32       1.0  0.17811158496491689  0.5402487725414886  0.9413565166960254  1.0000
  C   C33       1.0  0.5588165348497042  0.9894650819730301  0.5600876479828685  1.0000
  C   C34       1.0  0.058817290960078594  0.010535394718552  0.9399124264899469  1.0000
  C   C35       1.0  0.441183011382634  0.489465386772835  0.4399128397734273  1.0000
  C   C36       1.0  0.9411834698696424  0.5105350919843872  0.0600877545289151  1.0000
  C   C37       1.0  0.44118429562006156  0.0105351598381844  0.43991268640483827  1.0000
  C   C38       1.0  0.9411876011437242  0.9894648470929114  0.0600882915027299  1.0000
  C   C39       1.0  0.5588124035797576  0.5105343832122459  0.5600882618199705  1.0000
  C   C40       1.0  0.05881736060005241  0.48946467800041676  0.9399125798586425  1.0000
  C   C41       1.0  0.6241912380921022  0.9280408374710161  0.5674662660356589  1.0000
  C   C42       1.0  0.1241946649415695  0.0719596414289896  0.9325334643972455  1.0000
  C   C43       1.0  0.3758069363980924  0.42804066111264655  0.4325337987762623  1.0000
  C   C44       1.0  0.8758074676302953  0.571959815436159  0.0674671395659914  1.0000
  C   C45       1.0  0.37580823849876305  0.071959876166396  0.4325336847480513  1.0000
  C   C46       1.0  0.8758115810383486  0.9280406003823102  0.0674668699921028  1.0000
  C   C47       1.0  0.624187124686756  0.5719591088724129  0.5674673028167305  1.0000
  C   C48       1.0  0.1241920089632842  0.42803995454880817  0.9325335784248948  1.0000
  C   C49       1.0  0.8094991971501811  0.9186161124888412  0.5765780587284652  1.0000
  C   C50       1.0  0.3095025589728664  0.08138390084501879  0.9234217838476937  1.0000
  C   C51       1.0  0.19050032847669474  0.41861592107414936  0.4234220000476512  1.0000
  C   C52       1.0  0.6905009302144691  0.5813845492140572  0.0765780589445342  1.0000
  C   C53       1.0  0.19050027944211217  0.08138460114874849  0.4234222756589858  1.0000
  C   C54       1.0  0.6905050408830959  0.9186158691397139  0.0765781669381767  1.0000
  C   C55       1.0  0.8094950864842686  0.581383848910747  0.5765787179420059  1.0000
  C   C56       1.0  0.3094999002538685  0.41861569259696535  0.9234218918394317  1.0000
  C   C57       1.0  0.9303747406113984  0.9688939360488078  0.5753877889987677  1.0000
  C   C58       1.0  0.430376742787807  0.0311056095421733  0.9246121267274744  1.0000
  C   C59       1.0  0.0696261535131484  0.46889374169948894  0.4246119183751986  1.0000
  C   C60       1.0  0.5696253779003583  0.5311067245050083  0.0753876838630134  1.0000
  C   C61       1.0  0.06962608985551101  0.031106305762037302  0.4246117781814576  1.0000
  C   C62       1.0  0.5696281493144325  0.9688936886162908  0.0753882076611632  1.0000
  C   C63       1.0  0.9303706153254224  0.5311065001118394  0.5753887996150198  1.0000
  C   C64       1.0  0.43037545256648  0.46889304547941885  0.9246118833170698  1.0000
  C   C65       1.0  0.49883975716100076  0.872609723520185  0.5639301510786652  1.0000
  C   C66       1.0  0.9988442544286541  0.1273907680364275  0.9360694224780985  1.0000
  C   C67       1.0  0.5011584012104038  0.3726095548103174  0.4360702618353187  1.0000
  C   C68       1.0  0.0011619558931173003  0.6273904372553504  0.0639304497804218  1.0000
  C   C69       1.0  0.5011597194312216  0.1273905182910013  0.4360701833086367  1.0000
  C   C70       1.0  0.0011619915498358002  0.8726094737746877  0.0639305283075089  1.0000
  C   C71       1.0  0.49883565987301637  0.6273902151745574  0.5639304561539333  1.0000
  C   C72       1.0  0.998841582330158  0.3726088609029005  0.9360695010040702  1.0000
  C   C73       1.0  0.9408197451595157  0.7500002617165291  0.1766684601611388  1.0000
  C   C74       1.0  0.440829180994065  0.24999974520179083  0.3233313667164524  1.0000
  C   C75       1.0  0.05917702367620589  0.24999998009442237  0.823331490621605  1.0000
  C   C76       1.0  0.559167587834523  0.7500004966082442  0.6766666660475876  1.0000
  C   C77       1.0  0.22212745901931188  0.7500002582428207  0.194622432147284  1.0000
  C   C78       1.0  0.7221350815682187  0.24999974128756017  0.3053776459867663  1.0000
  C   C79       1.0  0.7778706636953742  0.249999983568344  0.8053779022396057  1.0000
  C   C80       1.0  0.2778630411421831  0.7500005005230435  0.694621537588901  1.0000
  C   C81       1.0  0.0631705556305704  0.7500003210551326  0.33031798747729374  1.0000
  C   C82       1.0  0.5631785228343346  0.249999673105016  0.1696816108566566  1.0000
  C   C83       1.0  0.9368248593290288  0.24999992075598948  0.6696823469087788  1.0000
  C   C84       1.0  0.4368168921194949  0.7500000968789492  0.8303171891143037  1.0000
  C   C85       1.0  0.12572394656177716  0.7500003463823502  0.3806011682644979  1.0000
  C   C86       1.0  0.6257328936703955  0.2499996498914285  0.1193992351328674  1.0000
  C   C87       1.0  0.8742714683992575  0.24999989542894951  0.6193995497253084  1.0000
  C   C88       1.0  0.37426793679359355  0.7500001200926292  0.8805995648397271  1.0000
  C   C89       1.0  0.31141912192072846  0.7500003546899163  0.3913141261038647  1.0000
  C   C90       1.0  0.8114252815996538  0.24999964785735784  0.10868677327415809  1.0000
  C   C91       1.0  0.6885776469164143  0.24999988712122703  0.6086862082826201  1.0000
  C   C92       1.0  0.18857284111210498  0.7500001221270267  0.8913127939051009  1.0000
  C   C93       1.0  0.4348221998020847  0.7500003370371714  0.3504231555578272  1.0000
  C   C94       1.0  0.9348313713556494  0.2499996696787151  0.1495770512938677  1.0000
  C   C95       1.0  0.5651745690337008  0.250000376600191  0.6495767952250588  1.0000
  C   C96       1.0  0.06516945911118908  0.7500001003057191  0.8504225158862085  1.0000
  C   C97       1.0  0.3747057875584261  0.750000311636505  0.2999025247928842  1.0000
  C   C98       1.0  0.8747139809760042  0.24999969304844427  0.2000976456776726  1.0000
  C   C99       1.0  0.6252896274011803  0.2499999301746102  0.7000978095931883  1.0000
  C   C100      1.0  0.1252841417329051  0.7500000769355707  0.7999011542941048  1.0000
  C   C101      1.0  0.188228074122982  0.7500003037234393  0.2900342621524885  1.0000
  C   C102      1.0  0.6882417564429986  0.24999969466163213  0.20996541186465834  1.0000
  C   C103      1.0  0.81176598695766  0.24999993808746976  0.7099656886294312  1.0000
  C   C104      1.0  0.3117523046347158  0.7500000753225038  0.7900337717096306  1.0000
  C   C105      1.0  0.3780192686050796  0.7499999103084035  0.44584303431111744  1.0000
  C   C106      1.0  0.8780250227257084  0.24999962266166884  0.0541563709562993  1.0000
  C   C107      1.0  0.6219802079856508  0.2499998596761941  0.5541569164722873  1.0000
  C   C108      1.0  0.12197716161581695  0.7500001473224104  0.9458424290167073  1.0000
  N   N1        1.0  0.9869382023653086  0.0801626499312107  0.5595949391363391  1.0000
  N   N2        1.0  0.4869392265779239  0.9198373693972286  0.9404053944241966  1.0000
  N   N3        1.0  0.0130625787116969  0.580162682984465  0.4404049028727002  1.0000
  N   N4        1.0  0.5130630071607031  0.41983778130935434  0.0595950487388492  1.0000
  N   N5        1.0  0.0130639819805651  0.9198375918798403  0.4404050116480391  1.0000
  N   N6        1.0  0.5130656655258149  0.0801624005878239  0.0595953235683311  1.0000
  N   N7        1.0  0.9869368978805896  0.41983803065313213  0.5595954315147509  1.0000
  N   N8        1.0  0.48693782330756347  0.5801619886752646  0.9404049020449675  1.0000
  N   N9        1.0  0.1445313302800741  0.08236419099926448  0.5870983058998007  1.0000
  N   N10       1.0  0.6445318234199958  0.9176353449352063  0.9129018204449367  1.0000
  N   N11       1.0  0.8554694514372442  0.5823646977871988  0.412901537519403  1.0000
  N   N12       1.0  0.35547040967824717  0.4176357780741782  0.08709862130779561  1.0000
  N   N13       1.0  0.8554681463120772  0.9176355789855181  0.4129020284873519  1.0000
  N   N14       1.0  0.3554717148061996  0.08236442504982479  0.08709889754717891  1.0000
  N   N15       1.0  0.1445300251550492  0.41763601585039106  0.5870987968680481  1.0000
  N   N16       1.0  0.6445304207913765  0.5823635200842148  0.9129017130796128  1.0000
  N   N17       1.0  0.1258516900212285  0.1644978181226975  0.5322959290276401  1.0000
  N   N18       1.0  0.625851212986248  0.8355021890072932  0.9677045696162736  1.0000
  N   N19       1.0  0.8741477617070572  0.6644979066195019  0.4677047342022007  1.0000
  N   N20       1.0  0.37415099622484865  0.3355016262201076  0.0322954359290009  1.0000
  N   N21       1.0  0.8741504943274235  0.8355019518623122  0.4677047889640633  1.0000
  N   N22       1.0  0.37414961748344666  0.16449758097751044  0.032295764771284  1.0000
  N   N23       1.0  0.1258503610077  0.3355028070180666  0.5322956001848382  1.0000
  N   N24       1.0  0.6258498342419188  0.664497671937916  0.9677041312509258  1.0000
  N   N25       1.0  0.1247540424552227  0.7500002778601953  0.238672770973217  1.0000
  N   N26       1.0  0.6247653990155086  0.2499997183804936  0.2613268646304334  1.0000
  N   N27       1.0  0.8752400186254193  0.24999996395071386  0.7613271798087027  1.0000
  N   N28       1.0  0.37523407757236527  0.7500000516037277  0.7386723189454897  1.0000
  N   N29       1.0  0.9434681185397267  0.7500002862818248  0.2274694878710548  1.0000
  N   N30       1.0  0.4434758226696402  0.24999972072593823  0.2725303406087392  1.0000
  N   N31       1.0  0.056528650297344996  0.24999948370290778  0.7725308465152736  1.0000
  N   N32       1.0  0.5565209461645819  0.7500000492584248  0.7274692265701077  1.0000
  N   N33       1.0  0.10961602642883149  0.750000237203551  0.15497119750476426  1.0000
  N   N34       1.0  0.609623943879228  0.24999975852585266  0.3450288125404697  1.0000
  N   N35       1.0  0.8903820962844264  0.250000004607429  0.8450287532783847  1.0000
  N   N36       1.0  0.3903768865862531  0.7500004832848006  0.6549703710360149  1.0000
  Cl  Cl1       1.0  0.9866446310981231  0.7499999914285098  0.5926065570113579  1.0000
  Cl  Cl2       1.0  0.48664927662265717  0.24999861241047944  0.9073930091646717  1.0000
  Cl  Cl3       1.0  0.013354845489750699  0.2499997785557112  0.4073926265645654  1.0000
  Cl  Cl4       1.0  0.5133529077257961  0.7499997420953052  0.0926077088265771  1.0000
  O   O1        1.0  0.5731608535566648  0.8171889944327333  0.563107325797148  1.0000
  O   O2        1.0  0.073167052814469  0.1828110109165735  0.9368916065467375  1.0000
  O   O3        1.0  0.426837288694685  0.3171888240060312  0.4368922844143198  1.0000
  O   O4        1.0  0.9268405275005447  0.6828111824400052  0.0631079176033253  1.0000
  O   O5        1.0  0.42683997691166553  0.18281124737828944  0.4368926249868181  1.0000
  O   O6        1.0  0.9268391931611716  0.8171892308941723  0.0631075770313885  1.0000
  O   O7        1.0  0.5731594801423154  0.6828104741522977  0.5631080499718593  1.0000
  O   O8        1.0  0.07316436460176591  0.3171885875448623  0.9368924167854615  1.0000
  O   O9        1.0  0.32977158508109017  0.8800244716754546  0.5618605601173599  1.0000
  O   O10       1.0  0.8297760955871283  0.11997507051706441  0.9381396783310407  1.0000
  O   O11       1.0  0.6702279293242482  0.38002478250150756  0.4381398575460693  1.0000
  O   O12       1.0  0.17022875870607382  0.619973799796945  0.0618617235922301  1.0000
  O   O13       1.0  0.6702292453884695  0.1199743546565273  0.4381397742698994  1.0000
  O   O14       1.0  0.1702301503954331  0.8800237558153797  0.061861423265334295  1.0000
  O   O15       1.0  0.32976748563678626  0.6199754593097921  0.561860860443737  1.0000
  O   O16       1.0  0.829772071764843  0.3800245547088109  0.9381389943986136  1.0000
  O   O17       1.0  0.2584259813191423  0.7499999253257172  0.4811406798751747  1.0000
  O   O18       1.0  0.7584260574069576  0.24999960360403145  0.0188586530158616  1.0000
  O   O19       1.0  0.7415748491491242  0.2499998446589018  0.5188592709086421  1.0000
  O   O20       1.0  0.24157341917955927  0.7500006382064157  0.9811401469564772  1.0000
  O   O21       1.0  0.5485388135990662  0.7500003879758097  0.45197690971281196  1.0000
  O   O22       1.0  0.04854349409963989  0.24999960568979424  0.04802229616166899  1.0000
  O   O23       1.0  0.4514606629917992  0.2500003256616025  0.5480230410708984  1.0000
  O   O24       1.0  0.9514586902448129  0.750000636121065  0.9519772710189756  1.0000
