data_image0
_chemical_formula_structural       Zn6H46C98Cl22O24
_chemical_formula_sum              "Zn6 H46 C98 Cl22 O24"
_cell_length_a       21.057915945935235
_cell_length_b       21.14957054612486
_cell_length_c       21.32167925704235
_cell_angle_alpha    60.77238947103177
_cell_angle_beta     61.28242698128257
_cell_angle_gamma    89.79865155896888

_space_group_name_H-M_alt    "P 1"
_space_group_IT_number       1

loop_
  _space_group_symop_operation_xyz
  'x, y, z'

loop_
  _atom_site_type_symbol
  _atom_site_label
  _atom_site_symmetry_multiplicity
  _atom_site_fract_x
  _atom_site_fract_y
  _atom_site_fract_z
  _atom_site_occupancy
  Zn  Zn1       1.0  0.42071381142878295  0.002490319691006  0.08121072107087467  1.0000
  Zn  Zn2       1.0  0.5499974864349896  0.5438132721021776  0.501526230798312  1.0000
  Zn  Zn3       1.0  0.4627135081790356  0.45589752158087277  0.49531598018002426  1.0000
  Zn  Zn4       1.0  0.0004751454393811999  0.5731258364175957  0.9238167388842132  1.0000
  Zn  Zn5       1.0  0.5387278335030672  0.0006515812028026996  0.9528288218554409  1.0000
  Zn  Zn6       1.0  0.008336784928069076  0.45135766334114896  0.042734586830945935  1.0000
  H   H1        1.0  0.6110784341350026  0.9228603282293547  0.08912609127159496  1.0000
  H   H2        1.0  0.30789302283879755  0.5614221521142255  0.9032137770666256  1.0000
  H   H3        1.0  0.24781512545933282  0.4914741321173111  0.014343248180175294  1.0000
  H   H4        1.0  0.47757376274172714  0.799238266961318  0.04454850045436137  1.0000
  H   H5        1.0  0.4645003383632159  0.7137072461361952  0.05051049942414226  1.0000
  H   H6        1.0  0.5243154235933503  0.8000250873965271  0.9495117224881613  1.0000
  H   H7        1.0  0.21142510104998286  0.5217835349124585  0.9484278007642504  1.0000
  H   H8        1.0  0.08534387566425751  0.38740028762461526  0.9016907106485591  1.0000
  H   H9        1.0  0.9991347130074576  0.4127892480708653  0.8819933176189705  1.0000
  H   H10       1.0  0.9841535795505368  0.40530309963817507  0.8109767017502209  1.0000
  H   H11       1.0  0.9736424657394737  0.4848559054746813  0.8186403427188301  1.0000
  H   H12       1.0  0.5756875464484352  0.0048594772878161  0.12877430433398024  1.0000
  H   H13       1.0  0.5795190101632813  0.0317482129705198  0.1935875521054414  1.0000
  H   H14       1.0  0.5057639928107135  0.04223929538016341  0.1746566869247702  1.0000
  H   H15       1.0  0.7340903781122421  0.24182795194384715  0.2227268458861289  1.0000
  H   H16       1.0  0.8222494437805423  0.30953341839531134  0.16573564362134624  1.0000
  H   H17       1.0  0.7392018735186738  0.3381542713133427  0.1839746590972453  1.0000
  H   H18       1.0  0.7928894798470766  0.2396506008376136  0.7775437409200592  1.0000
  H   H19       1.0  0.7257534217222387  0.15019361413591537  0.8368803923903132  1.0000
  H   H20       1.0  0.7025927419613325  0.23486614201804903  0.7921818459368879  1.0000
  H   H21       1.0  0.278260519424137  0.012455541877528701  0.930519233742807  1.0000
  H   H22       1.0  0.35094403216150727  0.9772208509319282  0.9405281322252322  1.0000
  H   H23       1.0  0.32289486426927283  0.0458904782512377  0.9650217510631054  1.0000
  H   H24       1.0  0.02612191538397464  0.6259021739069438  0.13275265042817355  1.0000
  H   H25       1.0  0.01940775711323537  0.5449142075085263  0.12930784555729258  1.0000
  H   H26       1.0  0.6254588126246787  0.6707658067883813  0.27285377862180843  1.0000
  H   H27       1.0  0.9841041678930936  0.6179062809822253  0.08167831256444227  1.0000
  H   H28       1.0  0.29316947476659994  0.9947081743958037  0.8305930045221859  1.0000
  H   H29       1.0  0.3689809182036754  0.0023089267716897995  0.7376095242699635  1.0000
  H   H30       1.0  0.3668738597224675  0.9569611026902295  0.834518799460014  1.0000
  H   H31       1.0  0.3444971461325609  0.3859578990281278  0.7215612536512099  1.0000
  H   H32       1.0  0.019357628128318462  0.5996698285965181  0.24705105342430053  1.0000
  H   H33       1.0  0.9835683514532576  0.5124291667257664  0.34717252354268896  1.0000
  H   H34       1.0  0.02938017698866703  0.5155616213575912  0.25014967812728633  1.0000
  H   H35       1.0  0.1363114193752821  0.798921673823749  0.8901800388454931  1.0000
  H   H36       1.0  0.14790734273704942  0.739545215761119  0.8514043223441167  1.0000
  H   H37       1.0  0.06125888429283319  0.7165697843643458  0.9440287578991688  1.0000
  H   H38       1.0  0.1843709927089705  0.8178171438349509  0.1627707361273566  1.0000
  H   H39       1.0  0.2631481334916543  0.8290879143315877  0.17058151972372584  1.0000
  H   H40       1.0  0.2512487845349228  0.9089455044447945  0.09960017732767304  1.0000
  H   H41       1.0  0.08640115623998673  0.8416934179751437  0.972460601383972  1.0000
  H   H42       1.0  0.046931414420264175  0.7421964837483515  0.033376989832852554  1.0000
  H   H43       1.0  0.0462350529857076  0.787612463405253  0.08412723266931016  1.0000
  H   H44       1.0  0.1069397344831771  0.8430866045726121  0.11937707425382629  1.0000
  H   H45       1.0  0.1975626544383219  0.9110340251897144  0.04022514981436125  1.0000
  H   H46       1.0  0.13561327644910645  0.8990666667975802  0.010908126829456237  1.0000
  C   C1        1.0  0.4672398499652815  0.8884097832561081  0.15364956665911256  1.0000
  C   C2        1.0  0.18876913817378244  0.8106142666552499  0.03654842508377258  1.0000
  C   C3        1.0  0.9143808971349543  0.5470031625880195  0.22100812345215118  1.0000
  C   C4        1.0  0.397193350220313  0.0795059555957067  0.7658583480105963  1.0000
  C   C5        1.0  0.9158057368726206  0.5248088049042964  0.2936195091170717  1.0000
  C   C6        1.0  0.4472331769268366  0.13943894329886322  0.6780684431208286  1.0000
  C   C7        1.0  0.8461963969883115  0.48782459118919513  0.3749562815910538  1.0000
  C   C8        1.0  0.4776582095397616  0.2117679064574389  0.6542213695587408  1.0000
  C   C9        1.0  0.15574244575437043  0.7768161085467044  0.013606590121561705  1.0000
  C   C10       1.0  0.7769687583895931  0.4802392155266872  0.3822691318552814  1.0000
  C   C11       1.0  0.4593716550947918  0.22671659125532523  0.7184316203894244  1.0000
  C   C12       1.0  0.7744848918797516  0.5109806616180349  0.3073831770160211  1.0000
  C   C13       1.0  0.4251218424023548  0.16239642797092563  0.8045843423138169  1.0000
  C   C14       1.0  0.8441371423050795  0.5355208359772802  0.22748617696021992  1.0000
  C   C15       1.0  0.43208594936087513  0.17274788737319824  0.8631371368813205  1.0000
  C   C16       1.0  0.8392798191119155  0.5459865395725528  0.1579511302748458  1.0000
  C   C17       1.0  0.45369852544687467  0.2449192053128186  0.8432720240295384  1.0000
  C   C18       1.0  0.7707297459280796  0.5449574050875156  0.1639026673704435  1.0000
  C   C19       1.0  0.4664643623242243  0.3095792259094026  0.7657591275096254  1.0000
  C   C20       1.0  0.39064554205378954  0.6876021002624669  0.9749011037875166  1.0000
  C   C21       1.0  0.7054752494245022  0.5372886907246155  0.2367986357561877  1.0000
  C   C22       1.0  0.5924925082606834  0.0883153921447146  0.9836910207000715  1.0000
  C   C23       1.0  0.9115536002365162  0.4081175248591861  0.012295347955955566  1.0000
  C   C24       1.0  0.4729065714119259  0.3013819468816052  0.7021894837473257  1.0000
  C   C25       1.0  0.7062710736339922  0.5182397003341066  0.3085587038788376  1.0000
  C   C26       1.0  0.3472306878622433  0.6394665368011943  0.9739662960504205  1.0000
  C   C27       1.0  0.6367258869891899  0.5133953591209843  0.3827035855703262  1.0000
  C   C28       1.0  0.4828087664319298  0.36918228110511825  0.6229130925770577  1.0000
  C   C29       1.0  0.48504546169382934  0.6014669067690123  0.38538687893959905  1.0000
  C   C30       1.0  0.4060858379511459  0.5260606415261435  0.6071066204419181  1.0000
  C   C31       1.0  0.2320758174266047  0.6043773022655685  0.9732564088189407  1.0000
  C   C32       1.0  0.40166825332611467  0.7847992297208036  0.008759472602896874  1.0000
  C   C33       1.0  0.17164932992628218  0.627894577010437  0.9665736906650798  1.0000
  C   C34       1.0  0.3669672784687847  0.8335121035197162  0.032213312470766184  1.0000
  C   C35       1.0  0.15857151341461415  0.6962661917752796  0.9580604643991608  1.0000
  C   C36       1.0  0.2903008090896364  0.8291073506280141  0.06065945746520657  1.0000
  C   C37       1.0  0.1883840674881725  0.7269979309348358  0.9879045509152179  1.0000
  C   C38       1.0  0.2561626978725187  0.7961489599835474  0.03568629168143653  1.0000
  C   C39       1.0  0.2519202588195952  0.7072382822583664  0.9926568472065471  1.0000
  C   C40       1.0  0.290680224311231  0.748305206163309  0.007840851357393276  1.0000
  C   C41       1.0  0.250433574277821  0.5410699743907655  0.9598581606319316  1.0000
  C   C42       1.0  0.6122166825207672  0.8672245572698429  0.13104295278207442  1.0000
  C   C43       1.0  0.47118256056047886  0.7743965350472095  0.012581506031601651  1.0000
  C   C44       1.0  0.9636076319343589  0.423243704657537  0.8557295203816582  1.0000
  C   C45       1.0  0.5663924405024192  0.04737448760786831  0.1449864585459153  1.0000
  C   C46       1.0  0.7694933195407644  0.3001246111132829  0.16887841310966697  1.0000
  C   C47       1.0  0.7326409712618229  0.20743749776885778  0.8235667418476925  1.0000
  C   C48       1.0  0.14262253270936043  0.3892499118346961  0.8606947170889827  1.0000
  C   C49       1.0  0.33322864812384984  0.0287847919176158  0.9210151668038694  1.0000
  C   C50       1.0  0.9893298957488668  0.5857293610937048  0.13671421332009737  1.0000
  C   C51       1.0  0.3549360293776617  0.0046709125563282  0.7927425850231202  1.0000
  C   C52       1.0  0.990610673806934  0.5383647910135778  0.2846974781538948  1.0000
  C   C53       1.0  0.12304955793765521  0.7398488570312695  0.909703501176523  1.0000
  C   C54       1.0  0.24464395767280683  0.8482006896535381  0.12594221865071398  1.0000
  C   C55       1.0  0.0803979030326758  0.7875259825163569  0.02586286946731781  1.0000
  C   C56       1.0  0.15591075190256726  0.8686439174243644  0.052954446278036596  1.0000
  C   C57       1.0  0.11314172604097908  0.5313872415602745  0.8412978049920171  1.0000
  C   C58       1.0  0.6820207466129987  0.8571951409859438  0.11447659462078254  1.0000
  C   C59       1.0  0.15693257148301143  0.3209308755554758  0.8775134185464285  1.0000
  C   C60       1.0  0.6864696712596938  0.7845295981188869  0.16561701808841184  1.0000
  C   C61       1.0  0.2316326154269674  0.3199837169413513  0.8277618630338923  1.0000
  C   C62       1.0  0.620675201150192  0.7252428351624188  0.23347892339300116  1.0000
  C   C63       1.0  0.2883378404640737  0.3878337416441937  0.7604326762672288  1.0000
  C   C64       1.0  0.5482115592516692  0.7344805215746744  0.2525808974819202  1.0000
  C   C65       1.0  0.2745250274184201  0.45874816064126384  0.7408904020518534  1.0000
  C   C66       1.0  0.5436901472796691  0.8066616680805581  0.19897605867533488  1.0000
  C   C67       1.0  0.20046961437171254  0.45991587100666453  0.7938653940075259  1.0000
  C   C68       1.0  0.470594503477365  0.8154287802798306  0.2161069312812034  1.0000
  C   C69       1.0  0.18736563767945566  0.5316967680814173  0.7772399469319073  1.0000
  C   C70       1.0  0.41429794713340584  0.8965547607350147  0.01946956171569519  1.0000
  C   C71       1.0  0.1136202804487922  0.5775294786220897  0.9758570916204121  1.0000
  C   C72       1.0  0.40515254689500324  0.7545579051906728  0.28453013463260407  1.0000
  C   C73       1.0  0.27693619394425184  0.6482678870284034  0.9798473724222492  1.0000
  C   C74       1.0  0.24615701022757014  0.5990096688417665  0.7086895388783816  1.0000
  C   C75       1.0  0.4097298794863491  0.683319435424579  0.33971104556145815  1.0000
  C   C76       1.0  0.3190806622541089  0.5975003508765014  0.6533501049613761  1.0000
  C   C77       1.0  0.4797652638791519  0.6733561476437445  0.3235189055266403  1.0000
  C   C78       1.0  0.3331134791587261  0.5289571290985935  0.669625140296489  1.0000
  C   C79       1.0  0.3625757067902668  0.7403155814668948  0.9978300681100413  1.0000
  C   C80       1.0  0.8817221917115605  0.37899805703761297  0.9284452607411281  1.0000
  C   C81       1.0  0.6178583863589042  0.12522996040406295  0.06525045707409301  1.0000
  C   C82       1.0  0.858324106433642  0.36303720290585056  0.009937223835720559  1.0000
  C   C83       1.0  0.641777491124124  0.1394430492227912  0.9840762790858479  1.0000
  C   C84       1.0  0.7866021197665134  0.3145981857835665  0.0848995336548198  1.0000
  C   C85       1.0  0.7024792841281525  0.2029418863991381  0.9061378288881842  1.0000
  C   C86       1.0  0.7355467126229841  0.27908238938129415  0.07773111186810416  1.0000
  C   C87       1.0  0.7370842375354628  0.25760149577245534  0.9097119970501384  1.0000
  C   C88       1.0  0.7587756617893504  0.2910912430779505  0.9965256759449164  1.0000
  C   C89       1.0  0.7145382178857816  0.24465143992717492  0.9910608638798166  1.0000
  C   C90       1.0  0.8292527803229534  0.3470343291191682  0.9206282879020127  1.0000
  C   C91       1.0  0.6503502097540661  0.18125678895938788  0.06827712445497275  1.0000
  C   C92       1.0  0.657984142768875  0.2319801085699567  0.14760172813011266  1.0000
  C   C93       1.0  0.7930309008056824  0.3300745168164098  0.8346271080956744  1.0000
  C   C94       1.0  0.43763824251599465  0.10753257855916591  0.9327013719096087  1.0000
  C   C95       1.0  0.9025392922885089  0.5424252693177253  0.08593885382364151  1.0000
  C   C96       1.0  0.6187970442566666  0.1828009473099073  0.14448574316135418  1.0000
  C   C97       1.0  0.838905232890987  0.37127223175772867  0.839447271083657  1.0000
  C   C98       1.0  0.388233781167351  0.090928283395634  0.828435999759286  1.0000
  Cl  Cl1       1.0  0.3272550839826209  0.6117033124524267  0.42866374007763874  1.0000
  Cl  Cl2       1.0  0.8982227704327956  0.46088184477178384  0.7500274960266256  1.0000
  Cl  Cl3       1.0  0.5243066698187846  0.13417235568375924  0.22625098129277182  1.0000
  Cl  Cl4       1.0  0.4700090113319889  0.2584421731508755  0.908216259405542  1.0000
  Cl  Cl5       1.0  0.7604715765853456  0.5478753184751852  0.08723234540699569  1.0000
  Cl  Cl6       1.0  0.4704873315798467  0.12297996101850119  0.5990116757709744  1.0000
  Cl  Cl7       1.0  0.8466748950909347  0.4515455334153415  0.4669635923748603  1.0000
  Cl  Cl8       1.0  0.388247026041256  0.6816655428521727  0.5641955551006036  1.0000
  Cl  Cl9       1.0  0.5435714674447994  0.2802176859852068  0.547583265852296  1.0000
  Cl  Cl10      1.0  0.6950817844265984  0.4275577751114453  0.48311250141118467  1.0000
  Cl  Cl11      1.0  0.47047675720785526  0.3948595680942192  0.7570677795043395  1.0000
  Cl  Cl12      1.0  0.6273389584552546  0.5536744850822404  0.23197854213600524  1.0000
  Cl  Cl13      1.0  0.4828906762875177  0.6850787165994349  0.9415584987091777  1.0000
  Cl  Cl14      1.0  0.38338530546641897  0.5694865794817757  0.9626715851141726  1.0000
  Cl  Cl15      1.0  0.3172010635811802  0.7610474353792753  0.3028118690036051  1.0000
  Cl  Cl16      1.0  0.2355852881877993  0.6858868196470455  0.6899932535832961  1.0000
  Cl  Cl17      1.0  0.7629891997553601  0.9332573199097214  0.03136228859129623  1.0000
  Cl  Cl18      1.0  0.0835550021801268  0.2374966767287532  0.9593596238441794  1.0000
  Cl  Cl19      1.0  0.7729950737391604  0.7693662869091112  0.14385838733961268  1.0000
  Cl  Cl20      1.0  0.2521507383264776  0.2355077722800871  0.8500536887097355  1.0000
  Cl  Cl21      1.0  0.608786542027552  0.2455385674561228  0.2299861906133174  1.0000
  Cl  Cl22      1.0  0.7934492480266188  0.37277005813739095  0.741561734632505  1.0000
  O   O1        1.0  0.41961162131494234  0.9209685447888561  0.18126130201282825  1.0000
  O   O2        1.0  0.4696511346900607  0.5553636381060727  0.5908230811392273  1.0000
  O   O3        1.0  0.45545017509412844  0.5376436623764889  0.4027120417132437  1.0000
  O   O4        1.0  0.5199330332878843  0.6109947433829814  0.4161137229817557  1.0000
  O   O5        1.0  0.39734798127079063  0.49248469497215536  0.5750461679721045  1.0000
  O   O6        1.0  0.5132863537048848  0.9130129972553362  0.07511806691970696  1.0000
  O   O7        1.0  0.0887001976085244  0.480971287243726  0.91929458858683  1.0000
  O   O8        1.0  0.07928467636098442  0.5795393400664393  0.8172866397441472  1.0000
  O   O9        1.0  0.38447585674708046  0.9218667415547582  0.06680311531378924  1.0000
  O   O10       1.0  0.08800866462782855  0.607681568510621  0.9285357961728735  1.0000
  O   O11       1.0  0.483844501705363  0.926554872514714  0.9537618971030924  1.0000
  O   O12       1.0  0.08772605699025599  0.5063046476407251  0.03751664311921852  1.0000
  O   O13       1.0  0.390924904431941  0.08257281561875372  0.012174652127839532  1.0000
  O   O14       1.0  0.9285606330817517  0.5959836790683539  0.007729223696799263  1.0000
  O   O15       1.0  0.4930435041786653  0.0837534058298885  0.9033729963699814  1.0000
  O   O16       1.0  0.9228650296935045  0.4827892262507163  0.11041777722835651  1.0000
  O   O17       1.0  0.5215350827257624  0.07667884147998902  0.03002097935380013  1.0000
  O   O18       1.0  0.9226211262696326  0.47951315058683963  0.9698489896586583  1.0000
  O   O19       1.0  0.6212502616734599  0.06066087091919309  0.9374530631811455  1.0000
  O   O20       1.0  0.9419478926943231  0.3748167333228451  0.05472877852056261  1.0000
  O   O21       1.0  0.5743099145837931  0.4672027778111812  0.4170218347400977  1.0000
  O   O22       1.0  0.5320110943360206  0.43088294503229463  0.5851311658825866  1.0000
  O   O23       1.0  0.6459302414762648  0.559729869832111  0.4023885293963546  1.0000
  O   O24       1.0  0.43797822626696364  0.3606667691665209  0.6007637791770365  1.0000
