data_image0
_chemical_formula_structural       La4H28C48O26
_chemical_formula_sum              "La4 H28 C48 O26"
_cell_length_a       8.605813610800372
_cell_length_b       10.556219564284842
_cell_length_c       14.323
_cell_angle_alpha    97.28968584296348
_cell_angle_beta     102.22935425432907
_cell_angle_gamma    104.47903260335504

_space_group_name_H-M_alt    "P 1"
_space_group_IT_number       1

loop_
  _space_group_symop_operation_xyz
  'x, y, z'

loop_
  _atom_site_type_symbol
  _atom_site_label
  _atom_site_symmetry_multiplicity
  _atom_site_fract_x
  _atom_site_fract_y
  _atom_site_fract_z
  _atom_site_occupancy
  La  La1       1.0  0.16936060908748368  0.21959825697981467  0.5080723825329018  1.0000
  La  La2       1.0  0.8306537645360663  0.7803925260500648  0.49192635073339375  1.0000
  La  La3       1.0  0.6983478443845071  0.34785992663181275  0.4975693912490158  1.0000
  La  La4       1.0  0.3016510724177479  0.6521308563980668  0.5024336583812641  1.0000
  H   H1        1.0  0.7736974449393088  0.09679368259155299  0.15221714004259476  1.0000
  H   H2        1.0  0.22629393742146675  0.9032160348448243  0.8477762486701153  1.0000
  H   H3        1.0  0.592357004718977  0.1596409639661829  0.015345595253883503  1.0000
  H   H4        1.0  0.4076253459597581  0.8403667603747778  0.9846499484711231  1.0000
  H   H5        1.0  0.5407532691159531  0.3823932944503312  0.03810986698048421  1.0000
  H   H6        1.0  0.45926007488938575  0.6176313712017105  0.9618877147613248  1.0000
  H   H7        1.0  0.6796244809955994  0.5453796690812993  0.19323537265803745  1.0000
  H   H8        1.0  0.32038630260178275  0.4546210794256851  0.806780591897706  1.0000
  H   H9        1.0  0.6032656373488693  0.2799741000319358  0.8507867974713719  1.0000
  H   H10       1.0  0.3967237675633654  0.7200166829979437  0.1492052670636568  1.0000
  H   H11       1.0  0.8343638797135994  0.43356801248965837  0.9857428485341944  1.0000
  H   H12       1.0  0.1656325794321347  0.5664058292291401  0.014257605832718005  1.0000
  H   H13       1.0  0.9711951832603559  0.6605925430095283  0.9639352021676333  1.0000
  H   H14       1.0  0.02881744148493937  0.33938329180468674  0.036074477808320196  1.0000
  H   H15       1.0  0.8802489361152864  0.7361926454378533  0.8090041710388151  1.0000
  H   H16       1.0  0.1197785163570515  0.2637981375920262  0.1910150776110555  1.0000
  H   H17       1.0  0.5501353995348239  0.8673064346378396  0.8030567061999181  1.0000
  H   H18       1.0  0.44984129139953677  0.1327321826821475  0.19693192988532365  1.0000
  H   H19       1.0  0.7538641594222851  0.9624328929094119  0.9643482910549254  1.0000
  H   H20       1.0  0.2460931764103051  0.0375947623857584  0.035649423717970294  1.0000
  H   H21       1.0  0.01410867571145499  0.1388739062231252  0.976114081592762  1.0000
  H   H22       1.0  0.985874840886126  0.8611437835949401  0.023883938814385913  1.0000
  H   H23       1.0  0.0645207097889084  0.2272886156632055  0.8276950068780451  1.0000
  H   H24       1.0  0.9354717588066849  0.7727141259392027  0.17229577319408662  1.0000
  H   H25       1.0  0.1488493596114182  0.0208836538252086  0.6322596139492094  1.0000
  H   H26       1.0  0.8511491797342925  0.9791160981340638  0.3677421318507755  1.0000
  H   H27       1.0  0.2611773788711673  0.9627956362761054  0.5757685149137616  1.0000
  H   H28       1.0  0.7388338849341949  0.037203119135455195  0.42424104077235114  1.0000
  C   C1        1.0  0.9233614048261316  0.24402663101194827  0.3322294510663895  1.0000
  C   C2        1.0  0.07663417358765659  0.7559681382087716  0.6677658664965664  1.0000
  C   C3        1.0  0.8254973570059931  0.2843559203158392  0.24824977751479346  1.0000
  C   C4        1.0  0.17450072519914525  0.7156358592617522  0.7517518627319717  1.0000
  C   C5        1.0  0.7522852659944377  0.1947842189836493  0.15966734079084696  1.0000
  C   C6        1.0  0.24772326544928083  0.8052135398802064  0.8403375848792296  1.0000
  C   C7        1.0  0.6505403883448011  0.23012180080469588  0.08396522342876979  1.0000
  C   C8        1.0  0.3494692062663204  0.7698789477022885  0.916042909845828  1.0000
  C   C9        1.0  0.6221868932673261  0.35529118291042033  0.0966413413177918  1.0000
  C   C10       1.0  0.3778346708903513  0.6447265069076451  0.9033733905378514  1.0000
  C   C11       1.0  0.6989199226436752  0.4467662903700287  0.18366250737827983  1.0000
  C   C12       1.0  0.30109642842842277  0.5532434270663558  0.8163577972206184  1.0000
  C   C13       1.0  0.8015860486174302  0.4119329616905887  0.2594613075193877  1.0000
  C   C14       1.0  0.19841893893494955  0.588054831696155  0.7405471224166862  1.0000
  C   C15       1.0  0.8941277107317731  0.5119903380346499  0.3513287666171935  1.0000
  C   C16       1.0  0.10586465511239136  0.48800542773378197  0.6486788024656962  1.0000
  C   C17       1.0  0.4776804078329917  0.3316411126403409  0.6758912797963461  1.0000
  C   C18       1.0  0.5223151705807965  0.6683536565803792  0.3241082268331397  1.0000
  C   C19       1.0  0.6400271860405979  0.5974692179190412  0.6498225075136476  1.0000
  C   C20       1.0  0.3599872672669733  0.4025385064219194  0.3501855001419046  1.0000
  C   C21       1.0  0.6966302596524514  0.5490499542997753  0.7421005878304783  1.0000
  C   C22       1.0  0.3033864458087833  0.4509607596843209  0.2579107787554236  1.0000
  C   C23       1.0  0.6173289846502497  0.4210174906212316  0.7549524923481599  1.0000
  C   C24       1.0  0.3826745161433464  0.5789962130059934  0.24505118962143516  1.0000
  C   C25       1.0  0.666305075830735  0.37999161446757057  0.8429548981565846  1.0000
  C   C26       1.0  0.33369561291719657  0.6200041513008614  0.1570467484295719  1.0000
  C   C27       1.0  0.7949384585651272  0.4655452354302625  0.917570095142054  1.0000
  C   C28       1.0  0.20506534000099208  0.5344425579564883  0.0824325980461467  1.0000
  C   C29       1.0  0.8715180224224781  0.5933734068281069  0.9052093497210265  1.0000
  C   C30       1.0  0.12849647701992237  0.4066143865586369  0.09479610175517192  1.0000
  C   C31       1.0  0.8220835108823861  0.6359688456261026  0.8183838385293074  1.0000
  C   C32       1.0  0.1779364302158868  0.36403090633316987  0.1816290092687325  1.0000
  C   C33       1.0  0.5805765329095323  0.9208838292076393  0.6295997230507382  1.0000
  C   C34       1.0  0.4194242585898351  0.0791189123947689  0.3703900217689551  1.0000
  C   C35       1.0  0.6905328044293668  0.995770403475106  0.7266777475131435  1.0000
  C   C36       1.0  0.30944623092830875  0.0042313415795903  0.2733091351437338  1.0000
  C   C37       1.0  0.6609294320166866  0.9486645897385273  0.8100576138044531  1.0000
  C   C38       1.0  0.3390410057321063  0.051353100079538194  0.18992826935219406  1.0000
  C   C39       1.0  0.7764611523322742  0.0010354130714063  0.8998011572617701  1.0000
  C   C40       1.0  0.2234962065677308  0.9989822767466592  0.10018306131071601  1.0000
  C   C41       1.0  0.9224555955755134  0.10021881707319838  0.9063890032103716  1.0000
  C   C42       1.0  0.07752875561918418  0.8997978761971623  0.09359925573619422  1.0000
  C   C43       1.0  0.9516752440519483  0.1490875237099871  0.8235957306297836  1.0000
  C   C44       1.0  0.048315555349411426  0.8509172109878449  0.17639362703083356  1.0000
  C   C45       1.0  0.8356494226002693  0.0980403637776277  0.7337813396863313  1.0000
  C   C46       1.0  0.16433702138004236  0.9019454365136994  0.2662084856782059  1.0000
  C   C47       1.0  0.863222521678253  0.1552481816574627  0.6460574079005924  1.0000
  C   C48       1.0  0.13679028550249933  0.8447515703018097  0.3539307938987406  1.0000
  O   O1        1.0  0.9171003048084572  0.2930886679046125  0.41888810876331223  1.0000
  O   O2        1.0  0.08290101303372666  0.7068921496481622  0.581109427273539  1.0000
  O   O3        1.0  0.010069897319269192  0.1658026184613774  0.3203552949699215  1.0000
  O   O4        1.0  0.9899337523605851  0.834198130045607  0.6796506853199988  1.0000
  O   O5        1.0  0.35697487470207523  0.2518206306572495  0.6932778353264837  1.0000
  O   O6        1.0  0.6430267513944087  0.7481811143974467  0.3067293769651159  1.0000
  O   O7        1.0  0.48089682242958537  0.3439823594895159  0.5869241377543801  1.0000
  O   O8        1.0  0.5191170709859847  0.6560104166357803  0.4130761171372584  1.0000
  O   O9        1.0  0.7168061731362911  0.5887534116413491  0.5823735458654015  1.0000
  O   O10       1.0  0.28321579154535204  0.4112453437702115  0.41763457904217927  1.0000
  O   O11       1.0  0.5211909110042896  0.6477360809939298  0.6448877149833268  1.0000
  O   O12       1.0  0.4788355349172519  0.352278619181007  0.35511339505286804  1.0000
  O   O13       1.0  0.6523568913540103  0.8870550206205791  0.5652632769648704  1.0000
  O   O14       1.0  0.3476382299192053  0.1129317762184598  0.4347298405115937  1.0000
  O   O15       1.0  0.4234883216622762  0.8836697480473603  0.6170390243672018  1.0000
  O   O16       1.0  0.5765116352399744  0.1163339901027527  0.38293953658038765  1.0000
  O   O17       1.0  0.8099088177942448  0.5441559084925771  0.41038402909544663  1.0000
  O   O18       1.0  0.1900786893534701  0.4558328814418786  0.5896257601397539  1.0000
  O   O19       1.0  0.04784853175193147  0.5582291552629357  0.36528432289834717  1.0000
  O   O20       1.0  0.952138117731252  0.4417705966963439  0.6347361567982334  1.0000
  O   O21       1.0  0.7411172656501606  0.1835740537861028  0.5947344493520889  1.0000
  O   O22       1.0  0.25887752430133293  0.8164017810281122  0.4052415427373504  1.0000
  O   O23       1.0  0.00555841743078389  0.1735547631028282  0.6294825303827167  1.0000
  O   O24       1.0  0.9944571221116051  0.8264459854041561  0.37050890507713774  1.0000
  O   O25       1.0  0.16092501889406918  0.9949044035145178  0.5666562155377975  1.0000
  O   O26       1.0  0.8390780478263693  0.0050913622539142  0.4333457337000227  1.0000
