data_image0
_chemical_formula_structural       KH24AuC14S2N2O6
_chemical_formula_sum              "K1 H24 Au1 C14 S2 N2 O6"
_cell_length_a       7.207504273857976
_cell_length_b       8.017034812620205
_cell_length_c       10.265697125647822
_cell_angle_alpha    75.11526789103596
_cell_angle_beta     70.44204100737757
_cell_angle_gamma    72.37502425220296

_space_group_name_H-M_alt    "P 1"
_space_group_IT_number       1

loop_
  _space_group_symop_operation_xyz
  'x, y, z'

loop_
  _atom_site_type_symbol
  _atom_site_label
  _atom_site_symmetry_multiplicity
  _atom_site_fract_x
  _atom_site_fract_y
  _atom_site_fract_z
  _atom_site_occupancy
  K   K1        1.0  1.99702939837815e-05  0.9999858781847094  0.9999957472350901  1.0000
  H   H1        1.0  0.8035352014585228  0.2269726690347724  0.5871777018605114  1.0000
  H   H2        1.0  0.19646673687402935  0.7730226891222003  0.41282283957819027  1.0000
  H   H3        1.0  0.04350570806244749  0.09732342039854562  0.6134161093195445  1.0000
  H   H4        1.0  0.9564970160386108  0.9026745863717592  0.38658275056979363  1.0000
  H   H5        1.0  0.969367021363432  0.43335267901298385  0.6035367537802044  1.0000
  H   H6        1.0  0.030636829395788816  0.5666466540669786  0.39645963088081265  1.0000
  H   H7        1.0  0.781435652870208  0.40664435146272376  0.7676559944206715  1.0000
  H   H8        1.0  0.2185649040767714  0.5933563345922932  0.23234187352661453  1.0000
  H   H9        1.0  0.975308382366393  0.49442454514573336  0.8775301720094503  1.0000
  H   H10       1.0  0.024691039008935406  0.5055748339412887  0.12246724706253789  1.0000
  H   H11       1.0  0.1681244436712745  0.5190543063719559  0.7153270371100574  1.0000
  H   H12       1.0  0.8318774976324406  0.4809410453378006  0.28467447902985293  1.0000
  H   H13       1.0  0.4168351892537244  0.2731775987187248  0.822679773882193  1.0000
  H   H14       1.0  0.5831614358795462  0.7268098507168331  0.17732552711072455  1.0000
  H   H15       1.0  0.3142785455357141  0.465417225208256  0.9058955018410799  1.0000
  H   H16       1.0  0.6857256490843185  0.5345807791208018  0.0941010638421956  1.0000
  H   H17       1.0  0.3547014955275926  0.30393876177399887  0.12974242291518587  1.0000
  H   H18       1.0  0.6452987353855519  0.6960632143486123  0.8702611122170653  1.0000
  H   H19       1.0  0.4783271314456881  0.1089940986730937  0.05419242008309061  1.0000
  H   H20       1.0  0.5216742112698044  0.8910092359952628  0.9458037663148248  1.0000
  H   H21       1.0  0.6789803091139887  0.9539369724874049  0.6850530129928174  1.0000
  H   H22       1.0  0.3210283267745808  0.04606096004572179  0.31494641708430743  1.0000
  H   H23       1.0  0.9234383763152247  0.8398548664094108  0.7105148903019867  1.0000
  H   H24       1.0  0.07656618890608512  0.16014175114378296  0.2894906287143755  1.0000
  Au  Au1       1.0  0.49999031572534136  0.5000103885613213  0.49999881297441817  1.0000
  C   C1        1.0  0.6003943536669709  0.21670906229066833  0.3200440611240013  1.0000
  C   C2        1.0  0.39957917694510314  0.7833050792777385  0.6799692098736969  1.0000
  C   C3        1.0  0.895019168851661  0.1797474709049212  0.6630154435661239  1.0000
  C   C4        1.0  0.1049817349272998  0.8202518799519751  0.336983580104615  1.0000
  C   C5        1.0  0.9251508294613016  0.3377692116081121  0.7004566453178924  1.0000
  C   C6        1.0  0.07485519439432403  0.6622274292927061  0.2995426806875869  1.0000
  C   C7        1.0  0.11576114888870848  0.42283408780843956  0.8101390924134223  1.0000
  C   C8        1.0  0.8842463514282173  0.5771625377566918  0.1898598887884049  1.0000
  C   C9        1.0  0.2772089228443448  0.3514217901326262  0.8864496993642773  1.0000
  C   C10       1.0  0.7227875545218866  0.6485776002841134  0.11355133341863416  1.0000
  C   C11       1.0  0.32865635596731124  0.18742754554448027  0.1057884869882386  1.0000
  C   C12       1.0  0.671342730460701  0.8125731429517911  0.8942116751651099  1.0000
  C   C13       1.0  0.771949018823932  0.9193290695132602  0.7588905967066992  1.0000
  C   C14       1.0  0.22805259050362273  0.08066758515852261  0.24111463721577306  1.0000
  S   S1        1.0  0.4410950430167018  0.24171957393814128  0.47823947525888133  1.0000
  S   S2        1.0  0.5588845419957238  0.7583052216732966  0.5217527341171646  1.0000
  N   N1        1.0  0.7083998860367939  0.19178279729671024  0.20821211624605956  1.0000
  N   N2        1.0  0.29159611376778116  0.8082126931224067  0.7917790826940277  1.0000
  O   O1        1.0  0.792789390142559  0.0773849249458252  0.7874742340223692  1.0000
  O   O2        1.0  0.20721594599145016  0.9226143734567954  0.21252472993860752  1.0000
  O   O3        1.0  0.07972922878384034  0.27919585824565724  0.7710975449809538  1.0000
  O   O4        1.0  0.9202687280148535  0.7208035103881797  0.2289041176995071  1.0000
  O   O5        1.0  0.19871802530030883  0.24299897669526155  0.016081240529075596  1.0000
  O   O6        1.0  0.8012807380650313  0.7570029954213808  0.9839255635104467  1.0000
