data_image0
_chemical_formula_structural       Zn2H20C28N4O10
_chemical_formula_sum              "Zn2 H20 C28 N4 O10"
_cell_length_a       6.099558590505221
_cell_length_b       7.378684710551942
_cell_length_c       14.539073436843514
_cell_angle_alpha    93.46698400472789
_cell_angle_beta     91.01169733935002
_cell_angle_gamma    92.47243347857975

_space_group_name_H-M_alt    "P 1"
_space_group_IT_number       1

loop_
  _space_group_symop_operation_xyz
  'x, y, z'

loop_
  _atom_site_type_symbol
  _atom_site_label
  _atom_site_symmetry_multiplicity
  _atom_site_fract_x
  _atom_site_fract_y
  _atom_site_fract_z
  _atom_site_occupancy
  Zn  Zn1       1.0  0.30875991127187763  0.2479039820018443  0.9977802222481742  1.0000
  Zn  Zn2       1.0  0.6912967099392803  0.7521592358767464  0.002218225480746101  1.0000
  H   H1        1.0  0.902033679585152  0.34015582719849397  0.9659035343801606  1.0000
  H   H2        1.0  0.8858993512281972  0.1506419517052464  0.012233132311337198  1.0000
  H   H3        1.0  0.09798642454664731  0.6599066063983726  0.0341525488318624  1.0000
  H   H4        1.0  0.11413608041423373  0.8494308312971126  0.9878362832710438  1.0000
  H   H5        1.0  0.004669625846027303  0.44214387278079675  0.17677312836411832  1.0000
  H   H6        1.0  0.029487877811824607  0.04920662080186129  0.8233771731618802  1.0000
  H   H7        1.0  0.9954370075194207  0.5578055933168856  0.8231799606238752  1.0000
  H   H8        1.0  0.9704045866070672  0.9507977825924173  0.1766126165765058  1.0000
  H   H9        1.0  0.8648983444152023  0.410353989351691  0.3360678863224891  1.0000
  H   H10       1.0  0.8835675792344588  0.08593546424837231  0.66368628009905  1.0000
  H   H11       1.0  0.1351447065939624  0.5895624459043775  0.663868490949973  1.0000
  H   H12       1.0  0.11637735187136401  0.9140203571176642  0.3362890097311748  1.0000
  H   H13       1.0  0.48491903400848463  0.6302611708940586  0.4489540483593899  1.0000
  H   H14       1.0  0.47698077641577896  0.8748872450936104  0.5517823289413428  1.0000
  H   H15       1.0  0.5150222247261453  0.36971885905686713  0.5510485293282414  1.0000
  H   H16       1.0  0.5229965248901751  0.1250779087259559  0.448237987679768  1.0000
  H   H17       1.0  0.6181149541764627  0.6746549417919354  0.28983963592639844  1.0000
  H   H18       1.0  0.615847025396981  0.826234824771312  0.7109787664231247  1.0000
  H   H19       1.0  0.3819159290183549  0.3253453276320498  0.7101870740911238  1.0000
  H   H20       1.0  0.38409758128845795  0.1737858284867571  0.2890514450031247  1.0000
  C   C1        1.0  0.4000371542855419  0.5856673955932905  0.1290559198274153  1.0000
  C   C2        1.0  0.4111043566303891  0.9054403309277748  0.8715426179502046  1.0000
  C   C3        1.0  0.6000903429719601  0.4143546833420969  0.8709358118620827  1.0000
  C   C4        1.0  0.5888247352093501  0.09462542462876661  0.1284705209034485  1.0000
  C   C5        1.0  0.3188759145282773  0.5625507588284436  0.2238369167020409  1.0000
  C   C6        1.0  0.3294925900179635  0.9323127763513881  0.7764418106251156  1.0000
  C   C7        1.0  0.6812082862664184  0.43745520818183076  0.7761447023715887  1.0000
  C   C8        1.0  0.6704499867040852  0.0676955303098836  0.223586089229407  1.0000
  C   C9        1.0  0.10680500449452521  0.48662862961442943  0.2368519579447081  1.0000
  C   C10       1.0  0.1234593887948847  0.007091135882880898  0.7632931352788574  1.0000
  C   C11       1.0  0.8932801480752917  0.5133099077373727  0.7631077156562611  1.0000
  C   C12       1.0  0.8764624611590366  0.9929006560592909  0.2367068435336463  1.0000
  C   C13       1.0  0.0285826996883998  0.46874804121848246  0.3249774269113317  1.0000
  C   C14       1.0  0.0424149195288024  0.028113551491927097  0.675036659991008  1.0000
  C   C15       1.0  0.9714573179731475  0.5311662668053003  0.6749733453630355  1.0000
  C   C16       1.0  0.9575094183067068  0.9718536300546958  0.3249580346568095  1.0000
  C   C17       1.0  0.16486007823407792  0.5237037917364518  0.4017931415588762  1.0000
  C   C18       1.0  0.16926250653558841  0.9766223244265576  0.5984884411047489  1.0000
  C   C19       1.0  0.8351276960143397  0.4762101309378437  0.5981691168260497  1.0000
  C   C20       1.0  0.8307033356685664  0.023352943987227093  0.4015196434284647  1.0000
  C   C21       1.0  0.3793535777481408  0.5937521513091468  0.38895140770129905  1.0000
  C   C22       1.0  0.378453868942252  0.9084833004336162  0.6116062609378119  1.0000
  C   C23       1.0  0.6206312240993769  0.40621302539437915  0.6110359143046367  1.0000
  C   C24       1.0  0.6215203914915151  0.0914976667955685  0.3884047188650825  1.0000
  C   C25       1.0  0.45413514750169537  0.6165901835675172  0.3005421439224492  1.0000
  C   C26       1.0  0.456318502421702  0.8830801264327449  0.700074278709593  1.0000
  C   C27       1.0  0.5459062605814964  0.38339682749799664  0.6994568293780148  1.0000
  C   C28       1.0  0.5436336338931014  0.1169264996631156  0.299942617521701  1.0000
  N   N1        1.0  0.10259072160630471  0.5087773922093889  0.4942758799378453  1.0000
  N   N2        1.0  0.10245401083744103  0.9933366363998103  0.5060286952043143  1.0000
  N   N3        1.0  0.8973689528987665  0.49112922482683535  0.5056854397208852  1.0000
  N   N4        1.0  0.8975328910378622  0.006639743943509301  0.49396573247372544  1.0000
  O   O1        1.0  0.28401564555544223  0.5211242657417755  0.059164645201100506  1.0000
  O   O2        1.0  0.3016134713733862  0.9638502816505651  0.9405069697354378  1.0000
  O   O3        1.0  0.7161271345576096  0.4789921145568456  0.9408062723971398  1.0000
  O   O4        1.0  0.6982899488358923  0.0362482415412799  0.0594901937257291  1.0000
  O   O5        1.0  0.5818563415072192  0.6751269203649101  0.1217241963625355  1.0000
  O   O6        1.0  0.5876338961562836  0.8198805026273916  0.8799658189367534  1.0000
  O   O7        1.0  0.4182784369165233  0.3248979849713222  0.8782978905296374  1.0000
  O   O8        1.0  0.4122622334846682  0.18016387362343525  0.1200674172019518  1.0000
  O   O9        1.0  0.9860933397067911  0.2297839221288172  0.97640795413961  1.0000
  O   O10       1.0  0.013952372323821299  0.7703014417899041  0.0236658735433153  1.0000
