data_image0
_chemical_formula_structural       In4H92C148N8O24
_chemical_formula_sum              "In4 H92 C148 N8 O24"
_cell_length_a       8.561138317
_cell_length_b       15.744512257479512
_cell_length_c       27.059403281659915
_cell_angle_alpha    90.01921625404661
_cell_angle_beta     89.98579039035813
_cell_angle_gamma    96.4306464298458

_space_group_name_H-M_alt    "P 1"
_space_group_IT_number       1

loop_
  _space_group_symop_operation_xyz
  'x, y, z'

loop_
  _atom_site_type_symbol
  _atom_site_label
  _atom_site_symmetry_multiplicity
  _atom_site_fract_x
  _atom_site_fract_y
  _atom_site_fract_z
  _atom_site_occupancy
  In  In1       1.0  0.22216561999984918  0.012581796597906704  0.7996071264718696  1.0000
  In  In2       1.0  0.27776110197066833  0.48728928871996413  0.2996862330451436  1.0000
  In  In3       1.0  0.7778578807295276  0.987382799572771  0.2003754617237306  1.0000
  In  In4       1.0  0.7222660444974734  0.5127270874069509  0.7003107678862648  1.0000
  H   H1        1.0  0.5223918658660195  0.5976888204422508  0.0538038514514056  1.0000
  H   H2        1.0  0.9774045786848903  0.902363821688809  0.5537247448781315  1.0000
  H   H3        1.0  0.47766899531502816  0.4023154068304464  0.9461842801041273  1.0000
  H   H4        1.0  0.022479166403393  0.0976142095773227  0.4462814949864935  1.0000
  H   H5        1.0  0.3808391437879237  0.5909481378315463  0.1336688857062498  1.0000
  H   H6        1.0  0.11884580095795633  0.9089848475224188  0.6335831271010692  1.0000
  H   H7        1.0  0.6191852827864183  0.4090663119013912  0.8663114851453815  1.0000
  H   H8        1.0  0.881045431479393  0.09097848080783423  0.36641904763294525  1.0000
  H   H9        1.0  0.6104331429480254  0.3730564352509234  0.17619458660752235  1.0000
  H   H10       1.0  0.8897074733440888  0.12704871534288742  0.676223021216835  1.0000
  H   H11       1.0  0.3895945582629637  0.6269740068248666  0.8238105445851148  1.0000
  H   H12       1.0  0.11040414917480493  0.873003445231696  0.3237577191921233  1.0000
  H   H13       1.0  0.7510759537289644  0.3781229641739472  0.0959847553652153  1.0000
  H   H14       1.0  0.7491544681691734  0.12209124619121783  0.5960176246624727  1.0000
  H   H15       1.0  0.24900001023975454  0.6219036478675621  0.9040296147606313  1.0000
  H   H16       1.0  0.2509292659154384  0.8779673085900584  0.4039679199917572  1.0000
  H   H17       1.0  0.7270533452068689  0.3531049073283512  0.0161463292380191  1.0000
  H   H18       1.0  0.7729997350011574  0.14701293839511465  0.5161621988981651  1.0000
  H   H19       1.0  0.2730167354715647  0.6469044413641569  0.9838569541679762  1.0000
  H   H20       1.0  0.22696966578374142  0.8530066339447943  0.4838355411479044  1.0000
  H   H21       1.0  0.9446987352667905  0.4955434670538211  0.8942500191774274  1.0000
  H   H22       1.0  0.5552947392265465  0.004474960997633602  0.3942932786898368  1.0000
  H   H23       1.0  0.05537258463651539  0.5044435055756297  0.1057432861806973  1.0000
  H   H24       1.0  0.4447546052817017  0.9955414113699848  0.6056967006523308  1.0000
  H   H25       1.0  0.7432027069920936  0.6275568770109459  0.0131174373739071  1.0000
  H   H26       1.0  0.7568803620231178  0.8725570464688702  0.5130848950240221  1.0000
  H   H27       1.0  0.2568733380898109  0.37244735105318233  0.9868721724109336  1.0000
  H   H28       1.0  0.2431095351523993  0.1274599709979398  0.486916171037997  1.0000
  H   H29       1.0  0.9615016430191051  0.7222636746209619  0.993303948155557  1.0000
  H   H30       1.0  0.538656863979675  0.7778224294589295  0.49329916521526945  1.0000
  H   H31       1.0  0.038565908127424095  0.2777220206708719  0.0066912049892096015  1.0000
  H   H32       1.0  0.4613957179452228  0.22219266735179136  0.5066959879295041  1.0000
  H   H33       1.0  0.07568738868285857  0.8542315964312978  0.950033958794755  1.0000
  H   H34       1.0  0.42444630867984046  0.6458196850923414  0.4500391539023383  1.0000
  H   H35       1.0  0.9243474869053828  0.1457656063748658  0.049965998595283216  1.0000
  H   H36       1.0  0.5756100199697799  0.354190940739926  0.5499619121596879  1.0000
  H   H37       1.0  0.9647362301693222  0.7346092927326282  0.8097839961831781  1.0000
  H   H38       1.0  0.535207455347951  0.765362114910353  0.30978106102952563  1.0000
  H   H39       1.0  0.0352003826984699  0.2654268984506487  0.1902148525348792  1.0000
  H   H40       1.0  0.46475493727206896  0.2346574572316911  0.69021630945921  1.0000
  H   H41       1.0  0.8546821347181321  0.6012622814327672  0.852280871612827  1.0000
  H   H42       1.0  0.6452842230554765  0.8987456813410618  0.3522749800005515  1.0000
  H   H43       1.0  0.14529947685191047  0.3987598447909448  0.1477116946306438  1.0000
  H   H44       1.0  0.3546855764212111  0.10127580552133253  0.6477172166855922  1.0000
  H   H45       1.0  0.6652602408018639  0.2580783260684143  0.9504741015729581  1.0000
  H   H46       1.0  0.8347380576346951  0.24202841362670574  0.4504885356137508  1.0000
  H   H47       1.0  0.3346575201121951  0.7419968677377753  0.04955024660075941  1.0000
  H   H48       1.0  0.16526886321599932  0.7579917897644677  0.5494940525818492  1.0000
  H   H49       1.0  0.742499037315909  0.12487643119673925  0.9118402088977647  1.0000
  H   H50       1.0  0.7574211434843008  0.3751409866334115  0.4118247087949527  1.0000
  H   H51       1.0  0.2571513302763577  0.8751086656904263  0.08823107305666873  1.0000
  H   H52       1.0  0.24254669091168077  0.6248709050607035  0.5881530751553826  1.0000
  H   H53       1.0  0.17996276902602662  0.2607103068495746  0.8655365234275865  1.0000
  H   H54       1.0  0.32010731749494437  0.23912779772653187  0.3655550225989899  1.0000
  H   H55       1.0  0.8198012143722481  0.7390491146866369  0.13444015185076102  1.0000
  H   H56       1.0  0.6798810574368659  0.7608534186725323  0.6344312611699012  1.0000
  H   H57       1.0  0.10326647368449932  0.3945296680104776  0.9018470091787096  1.0000
  H   H58       1.0  0.3968530820352925  0.1054055058831409  0.4019117030161753  1.0000
  H   H59       1.0  0.8967639860741271  0.605321138466721  0.0981008406280139  1.0000
  H   H60       1.0  0.6031586816615119  0.8945872204045459  0.5980838196859253  1.0000
  H   H61       1.0  0.3267696133717166  0.8220707805347304  0.8007531237474483  1.0000
  H   H62       1.0  0.1731929345756456  0.677924900121333  0.3008762076428084  1.0000
  H   H63       1.0  0.6732744007205653  0.17793663009017283  0.1992117256963866  1.0000
  H   H64       1.0  0.826864718442927  0.32209787693945924  0.6991381624830454  1.0000
  H   H65       1.0  0.5631767423670765  0.7451539704199491  0.7830698055803326  1.0000
  H   H66       1.0  0.9368990463258768  0.7548188846315187  0.2830890438663971  1.0000
  H   H67       1.0  0.4369006219791274  0.25485664710227957  0.2169157390738974  1.0000
  H   H68       1.0  0.0631593798038494  0.24520197493891527  0.7169253262594566  1.0000
  H   H69       1.0  0.8215712999417661  0.8350534903688642  0.7661729054081974  1.0000
  H   H70       1.0  0.6785883626696858  0.664919761973984  0.26610714550871256  1.0000
  H   H71       1.0  0.17849208317721119  0.16496863051266794  0.2338096827874026  1.0000
  H   H72       1.0  0.32147436380587646  0.33510492763071653  0.7338979856839246  1.0000
  H   H73       1.0  0.8306156911747067  0.9920653780945871  0.7651787961946256  1.0000
  H   H74       1.0  0.6695127034285874  0.5079017093245213  0.2651370575214855  1.0000
  H   H75       1.0  0.16944509075860031  0.007955465845050502  0.23480637890227746  1.0000
  H   H76       1.0  0.33055510048688325  0.4921248896583564  0.7348529218206821  1.0000
  H   H77       1.0  0.8309571266862221  0.1196686924253996  0.7784403609266377  1.0000
  H   H78       1.0  0.6690753399069891  0.3803094145134409  0.27840083959747375  1.0000
  H   H79       1.0  0.16906334662090935  0.880371968153469  0.221549618415537  1.0000
  H   H80       1.0  0.33095912446172804  0.6197255007172302  0.7216024438085216  1.0000
  H   H81       1.0  0.8076442187115093  0.27539788382291874  0.7883862573076499  1.0000
  H   H82       1.0  0.6923482442078708  0.22458638740918963  0.28832530165343684  1.0000
  H   H83       1.0  0.1923441370974146  0.7246287305928973  0.21163254750614166  1.0000
  H   H84       1.0  0.3076773918872889  0.7754453268599023  0.7116683732620218  1.0000
  H   H85       1.0  0.5416185236463632  0.32519611102397766  0.7938401843611587  1.0000
  H   H86       1.0  0.9583244483255484  0.17477677661000973  0.29384242301010494  1.0000
  H   H87       1.0  0.45835661678565737  0.6748062438700161  0.20623220626526265  1.0000
  H   H88       1.0  0.04169375651449065  0.8252415106758095  0.706142752086798  1.0000
  H   H89       1.0  0.3042986132462389  0.2130816243242535  0.7948405760493173  1.0000
  H   H90       1.0  0.19564781419360602  0.2868943056237186  0.29494296473428255  1.0000
  H   H91       1.0  0.6956959022679641  0.786895819023684  0.20526137916338172  1.0000
  H   H92       1.0  0.8043811354527436  0.7131137530682494  0.7050385147893368  1.0000
  C   C1        1.0  0.5436954411702004  0.5488359697802139  0.08068360373739841  1.0000
  C   C2        1.0  0.956177083953314  0.9512179875665226  0.580635909537051  1.0000
  C   C3        1.0  0.4563554322580289  0.451170815531306  0.9193071147194305  1.0000
  C   C4        1.0  0.0437527787823342  0.048774103119157516  0.4193662651969632  1.0000
  C   C5        1.0  0.46333491247219893  0.5450773021206886  0.12532686813078442  1.0000
  C   C6        1.0  0.03648750471650435  0.9549266627807145  0.6252721523411893  1.0000
  C   C7        1.0  0.5366927510209294  0.45493587245107403  0.8746594156381065  1.0000
  C   C8        1.0  0.9634479197478993  0.04505839591982411  0.374727805048849  1.0000
  C   C9        1.0  0.48511092181682614  0.4810241221303004  0.1598475877401455  1.0000
  C   C10       1.0  0.0148054392152801  0.0190027723604018  0.6598172627342295  1.0000
  C   C11       1.0  0.5149017007560133  0.518995447637451  0.8401453480606521  1.0000
  C   C12       1.0  0.9852001420816023  0.981005291871597  0.3401745643945802  1.0000
  C   C13       1.0  0.5905298105225826  0.4215434642011431  0.1489035170149435  1.0000
  C   C14       1.0  0.9095442271714731  0.07855801463937692  0.6489031261526392  1.0000
  C   C15       1.0  0.40950384837070425  0.5784818625884256  0.8510979186044096  1.0000
  C   C16       1.0  0.0905171142343946  0.9214768914898244  0.3510831576162516  1.0000
  C   C17       1.0  0.6687575867754845  0.4244901507107032  0.1038053275502193  1.0000
  C   C18       1.0  0.8313506241644433  0.07566083186550542  0.6038090018185258  1.0000
  C   C19       1.0  0.33129577834386487  0.5755287864229074  0.8961998036424179  1.0000
  C   C20       1.0  0.16869021661896264  0.9243766325003764  0.3961802384089879  1.0000
  C   C21       1.0  0.6454221507132163  0.48779195433223793  0.068613491832366  1.0000
  C   C22       1.0  0.8545951601624538  0.012330281783199802  0.5685949926609624  1.0000
  C   C23       1.0  0.3546384574948577  0.5122167522289516  0.9313842482137034  1.0000
  C   C24       1.0  0.1453901996259077  0.9876873722749056  0.43140126915579924  1.0000
  C   C25       1.0  0.7251286705452316  0.4900452791275499  0.020177830134258605  1.0000
  C   C26       1.0  0.7749104051502088  0.0100692016322697  0.5201715263546944  1.0000
  C   C27       1.0  0.2749439955101352  0.5099595932443464  0.9798213881411257  1.0000
  C   C28       1.0  0.22508443034464426  0.9899490919850112  0.479825474576721  1.0000
  C   C29       1.0  0.76001889156165  0.4140499335833283  0.9977519401609813  1.0000
  C   C30       1.0  0.740018335355721  0.0860499067742566  0.4977682219884089  1.0000
  C   C31       1.0  0.2400500074794678  0.5859536600659396  0.0022465389997492003  1.0000
  C   C32       1.0  0.25997169645958  0.9139677474817063  0.5022284093856726  1.0000
  C   C33       1.0  0.8386236325569031  0.415213182711085  0.9523337140498  1.0000
  C   C34       1.0  0.6614281998848169  0.0848444218793958  0.4523607130397594  1.0000
  C   C35       1.0  0.16144327688213883  0.584775069432425  0.04766180865229332  1.0000
  C   C36       1.0  0.3385772643235399  0.9151687574409666  0.5476344401050071  1.0000
  C   C37       1.0  0.8822403145998906  0.49395031036366543  0.9293897473119729  1.0000
  C   C38       1.0  0.617793781867505  0.006090395151481701  0.4294148985152901  1.0000
  C   C39       1.0  0.11782750084757508  0.506036662463643  0.07060392760348581  1.0000
  C   C40       1.0  0.38222439969583627  0.9939221448075628  0.5705798850721493  1.0000
  C   C41       1.0  0.8480703359494015  0.570699701354613  0.9507324221455564  1.0000
  C   C42       1.0  0.651966722274473  0.9293574399954849  0.4507350303518366  1.0000
  C   C43       1.0  0.1519984013152254  0.42929174541901466  0.04926088321256831  1.0000
  C   C44       1.0  0.3480421134924613  0.07065510095284822  0.5492616010222449  1.0000
  C   C45       1.0  0.7687665615324663  0.5679570298675005  0.9960582589246203  1.0000
  C   C46       1.0  0.7312894999030064  0.9321403266752455  0.4960423892644742  1.0000
  C   C47       1.0  0.23130505428925124  0.4320427268224592  0.0039365246628194  1.0000
  C   C48       1.0  0.2687058446509951  0.06787477171833703  0.5039557203389222  1.0000
  C   C49       1.0  0.9016447313994861  0.6520659318385427  0.9258183452896775  1.0000
  C   C50       1.0  0.5983828590991394  0.8479824247177916  0.425813931906717  1.0000
  C   C51       1.0  0.0983962513238552  0.3479325465245111  0.07417643829776922  1.0000
  C   C52       1.0  0.4016289725623352  0.15203331086066646  0.5741804821233956  1.0000
  C   C53       1.0  0.9606775785859799  0.7248013294337243  0.953042525005799  1.0000
  C   C54       1.0  0.5394018120584433  0.7752633950873928  0.4530381116228384  1.0000
  C   C55       1.0  0.03936534457068322  0.2751952320325445  0.0469533672536286  1.0000
  C   C56       1.0  0.4606298757797661  0.2247523412824961  0.5469577806365891  1.0000
  C   C57       1.0  0.025251160420403148  0.7986841142146377  0.929098166579813  1.0000
  C   C58       1.0  0.47482499971554404  0.7013594475734024  0.4290981878847974  1.0000
  C   C59       1.0  0.9747798338033178  0.2013169227808191  0.07090031258091052  1.0000
  C   C60       1.0  0.5252107001440579  0.29865309456208433  0.5709006608332601  1.0000
  C   C61       1.0  0.027723218194580613  0.8020618676560576  0.8773427714000946  1.0000
  C   C62       1.0  0.4723091678379703  0.6979480066086339  0.3773424231477521  1.0000
  C   C63       1.0  0.9722830163866832  0.1979493963503813  0.1226564468752827  1.0000
  C   C64       1.0  0.527706032892759  0.3020670925763867  0.6226571646849663  1.0000
  C   C65       1.0  0.9634086283766976  0.7310048359285304  0.8499740947685412  1.0000
  C   C66       1.0  0.536574439891858  0.7689929886033298  0.3499715291722225  1.0000
  C   C67       1.0  0.036565839392949315  0.2690166540995947  0.1500240148348553  1.0000
  C   C68       1.0  0.46340741519173895  0.23102466585049805  0.6500254717591929  1.0000
  C   C69       1.0  0.9024825057069633  0.6565934449660704  0.8738848234776386  1.0000
  C   C70       1.0  0.597502604377631  0.8434261462435657  0.37387930142269005  1.0000
  C   C71       1.0  0.09751037255008302  0.3434210130769131  0.126111068781789  1.0000
  C   C72       1.0  0.4024822470983764  0.1565947024446643  0.6261147430500955  1.0000
  C   C73       1.0  0.8790405845985987  0.3358485894751838  0.9290789495987328  1.0000
  C   C74       1.0  0.6210047935893713  0.16418220449648402  0.4291203613245003  1.0000
  C   C75       1.0  0.1209570767546424  0.6641153756442223  0.0709187904473367  1.0000
  C   C76       1.0  0.3789994884837996  0.8358252201763464  0.5708707266896553  1.0000
  C   C77       1.0  0.77864133655671  0.2589101835314197  0.9319441275663324  1.0000
  C   C78       1.0  0.7213623394817503  0.24113836949324255  0.43196743098300777  1.0000
  C   C79       1.0  0.22125738713460666  0.7410895874043321  0.068077264148755  1.0000
  C   C80       1.0  0.27863352209723063  0.7588735273451804  0.5680199614578642  1.0000
  C   C81       1.0  0.8209967821268763  0.18433647901844807  0.910553040722718  1.0000
  C   C82       1.0  0.6789782726948418  0.3156597577426155  0.4105586053876281  1.0000
  C   C83       1.0  0.17874241193665344  0.8156147243984224  0.0894849810721539  1.0000
  C   C84       1.0  0.32100693228713334  0.6843457438998257  0.5894221350213371  1.0000
  C   C85       1.0  0.9660914139136452  0.1846393740859185  0.8865488140095223  1.0000
  C   C86       1.0  0.5338988295493651  0.3152819468973149  0.3865602915916853  1.0000
  C   C87       1.0  0.0336109487530436  0.815229370122488  0.11347590372152891  1.0000
  C   C88       1.0  0.4660740154435884  0.6847146098203609  0.6134267312918597  1.0000
  C   C89       1.0  0.0665427204058986  0.2611111774517738  0.8836588757009167  1.0000
  C   C90       1.0  0.43350074640120795  0.2387923549975994  0.3836829182322461  1.0000
  C   C91       1.0  0.933264688551418  0.7387230353100309  0.1163347992145418  1.0000
  C   C92       1.0  0.5664863606754409  0.7611997285651881  0.6163059524379406  1.0000
  C   C93       1.0  0.022992369499789295  0.3358626709877939  0.9040458752830818  1.0000
  C   C94       1.0  0.4770793926001034  0.16409529897480016  0.40408876523816434  1.0000
  C   C95       1.0  0.9769687257532881  0.664020111667192  0.09593560424053042  1.0000
  C   C96       1.0  0.5229207089540183  0.8359031783989651  0.5959041705626333  1.0000
  C   C97       1.0  0.3983246443403416  0.47795602625643613  0.20739261627664976  1.0000
  C   C98       1.0  0.1014944920082783  0.0220060891467426  0.7073604434840919  1.0000
  C   C99       1.0  0.6016758223415337  0.5220782434793207  0.7925988412948399  1.0000
  C   C100      1.0  0.8985073064656107  0.9779949431001144  0.292629166300749  1.0000
  C   C101      1.0  0.10263545098248272  0.8788230282239412  0.851426824626742  1.0000
  C   C102      1.0  0.39741805618362497  0.6211488733802568  0.3514346066356212  1.0000
  C   C103      1.0  0.8973959372033208  0.12117992705330492  0.1485731327632962  1.0000
  C   C104      1.0  0.6026112739824613  0.3788611142778464  0.6485683072130471  1.0000
  C   C105      1.0  0.0109859617455896  0.1052505095383154  0.8621317917604261  1.0000
  C   C106      1.0  0.48897309061795363  0.3946350837646905  0.3621528778331253  1.0000
  C   C107      1.0  0.9886125171331416  0.8945620049062273  0.137923968786211  1.0000
  C   C108      1.0  0.510991051281806  0.605358916299167  0.6378341450504195  1.0000
  C   C109      1.0  0.44084927018359116  0.8568872496388735  0.7923168690532165  1.0000
  C   C110      1.0  0.05915579002397214  0.643091711023587  0.2924089101329841  1.0000
  C   C111      1.0  0.5592045932877382  0.14311696912592003  0.2076553715371858  1.0000
  C   C112      1.0  0.9409038081576427  0.356929145381109  0.7075995470756098  1.0000
  C   C113      1.0  0.5721377072055773  0.8147994841909565  0.7825228607342043  1.0000
  C   C114      1.0  0.9279268656192701  0.6851715137984868  0.2825550335267621  1.0000
  C   C115      1.0  0.42792641690921585  0.1852092130708982  0.217457510117427  1.0000
  C   C116      1.0  0.0721302642739374  0.3148487038384715  0.717454162796493  1.0000
  C   C117      1.0  0.7139451788289294  0.8642186533058905  0.7723932943609455  1.0000
  C   C118      1.0  0.7861641184295893  0.6357504200725475  0.2723763160288115  1.0000
  C   C119      1.0  0.2861098810927274  0.13579707455609483  0.22758670693335864  1.0000
  C   C120      1.0  0.2138969146112544  0.36427171188904595  0.7276269673771838  1.0000
  C   C121      1.0  0.7200750835059607  0.9529036644014184  0.7720263239337797  1.0000
  C   C122      1.0  0.7800234144342683  0.5470669398525488  0.2720211714361582  1.0000
  C   C123      1.0  0.279986341379491  0.0471146216972542  0.22795663381915435  1.0000
  C   C124      1.0  0.22004255966416517  0.452956466083073  0.7279739817086084  1.0000
  C   C125      1.0  0.5831282843393809  0.9906463986676572  0.7818240278260762  1.0000
  C   C126      1.0  0.9169106330196968  0.509330890921703  0.2818732002557383  1.0000
  C   C127      1.0  0.41692675130983764  0.009363582658991702  0.21816706018807966  1.0000
  C   C128      1.0  0.0831463739335305  0.4906886806267678  0.7181230615610161  1.0000
  C   C129      1.0  0.5797592944739165  0.08453897965618752  0.7831950855146843  1.0000
  C   C130      1.0  0.9202534688603166  0.4154423440136341  0.283235758125798  1.0000
  C   C131      1.0  0.4202733953019974  0.9154703791270935  0.216827045315064  1.0000
  C   C132      1.0  0.07979069207252114  0.5845772253583947  0.7167564385603457  1.0000
  C   C133      1.0  0.716276986924008  0.1425513529226095  0.7819651987255513  1.0000
  C   C134      1.0  0.7837426685335701  0.35743118156982945  0.281951915966701  1.0000
  C   C135      1.0  0.2837355048690284  0.8574733428156877  0.21805138874427143  1.0000
  C   C136      1.0  0.21629061643822212  0.6425979768368749  0.7180432371780656  1.0000
  C   C137      1.0  0.7028429250687226  0.22939722245303074  0.7870661985303684  1.0000
  C   C138      1.0  0.7971503863166092  0.2705869335909767  0.28704256816632784  1.0000
  C   C139      1.0  0.2971511106792235  0.7706230098254353  0.21297034503518833  1.0000
  C   C140      1.0  0.20287809846068683  0.729441582684409  0.7129470416185131  1.0000
  C   C141      1.0  0.55448816650825  0.2574177265118678  0.791053722104522  1.0000
  C   C142      1.0  0.945475562873412  0.24255537937196445  0.2910674170306535  1.0000
  C   C143      1.0  0.4455012528119298  0.7425859076983272  0.2090205163085415  1.0000
  C   C144      1.0  0.0545464094787462  0.7574641862407605  0.7089177580662496  1.0000
  C   C145      1.0  0.4238323821904189  0.1964773619665223  0.7911206119809719  1.0000
  C   C146      1.0  0.07613231104767954  0.3034907279558966  0.2911823493598079  1.0000
  C   C147      1.0  0.5761676418197653  0.8035154112135459  0.20896249580797396  1.0000
  C   C148      1.0  0.9239000267127722  0.6965224450330041  0.7088009779504534  1.0000
  N   N1        1.0  0.4370366056410191  0.11245821544267902  0.787852616525349  1.0000
  N   N2        1.0  0.06293728094762233  0.3875070248102902  0.2879339404425849  1.0000
  N   N3        1.0  0.5629884921021002  0.8875371003432804  0.21220425269327592  1.0000
  N   N4        1.0  0.9371008959130124  0.6125061491678992  0.7120512346543109  1.0000
  N   N5        1.0  0.4464975550765758  0.9422465941563234  0.7917647504044893  1.0000
  N   N6        1.0  0.05349876800643476  0.5577311399018117  0.2918638130734976  1.0000
  N   N7        1.0  0.5535559106986838  0.05775570929454692  0.2082115553165309  1.0000
  N   N8        1.0  0.946553692598087  0.4422890753608471  0.7081409485618125  1.0000
  O   O1        1.0  0.28923438704345733  0.5256699914105312  0.21413371150519825  1.0000
  O   O2        1.0  0.21036776277588132  0.9741503979571748  0.7140915606647766  1.0000
  O   O3        1.0  0.7107486626219384  0.4743534077979136  0.7858488766904018  1.0000
  O   O4        1.0  0.7895237620499457  0.0257803344219312  0.2859132009705334  1.0000
  O   O5        1.0  0.43653748215120913  0.42858530799112077  0.24235791335215853  1.0000
  O   O6        1.0  0.06345670835992928  0.0714494068498723  0.742335349050137  1.0000
  O   O7        1.0  0.5634857491394385  0.5714687803624443  0.7576420440378868  1.0000
  O   O8        1.0  0.9366585710547923  0.9286091419956579  0.2576391088842342  1.0000
  O   O9        1.0  0.19914885277395916  0.9329023513115973  0.8735551783406452  1.0000
  O   O10       1.0  0.3009256945114985  0.5670907019925764  0.3735884598051911  1.0000
  O   O11       1.0  0.8009738154845182  0.0670673609367256  0.12643258365755372  1.0000
  O   O12       1.0  0.6991243790438091  0.4329122562525428  0.62641704094478  1.0000
  O   O13       1.0  0.072357819109385  0.8879739389301947  0.8048818182210695  1.0000
  O   O14       1.0  0.42767047469716607  0.6119295868595387  0.3048888611152948  1.0000
  O   O15       1.0  0.9276137824268603  0.11204499721412732  0.1951214651849256  1.0000
  O   O16       1.0  0.5723551050102174  0.3880848747448909  0.6951136831760465  1.0000
  O   O17       1.0  0.914181636382409  0.04082838158781501  0.8569749887990101  1.0000
  O   O18       1.0  0.5857448868748348  0.45906895442587375  0.35700937893553697  1.0000
  O   O19       1.0  0.08541434616277854  0.9589554310458938  0.1431938562901394  1.0000
  O   O20       1.0  0.4142104400707822  0.5409275999175023  0.6429732092600702  1.0000
  O   O21       1.0  0.1559069397460249  0.11293988644069233  0.8458675737346226  1.0000
  O   O22       1.0  0.34407163733025936  0.3869110337761299  0.3458882902499951  1.0000
  O   O23       1.0  0.8435938943389941  0.8868802492921902  0.1540972757092121  1.0000
  O   O24       1.0  0.6558863976833323  0.6130816905329795  0.6541035368788144  1.0000
