data_image0
_chemical_formula_structural       Er2P2H6C2O12
_chemical_formula_sum              "Er2 P2 H6 C2 O12"
_cell_length_a       6.434759852945516
_cell_length_b       6.848982519703062
_cell_length_c       8.120752499215879
_cell_angle_alpha    114.29135231216185
_cell_angle_beta     101.82549636868701
_cell_angle_gamma    90.18332741158525

_space_group_name_H-M_alt    "P 1"
_space_group_IT_number       1

loop_
  _space_group_symop_operation_xyz
  'x, y, z'

loop_
  _atom_site_type_symbol
  _atom_site_label
  _atom_site_symmetry_multiplicity
  _atom_site_fract_x
  _atom_site_fract_y
  _atom_site_fract_z
  _atom_site_occupancy
  Er  Er1       1.0  0.11394276681136972  0.21831380816414026  0.9355219731791282  1.0000
  Er  Er2       1.0  0.8860461726308132  0.7816558835609799  0.06443773623195179  1.0000
  P   P1        1.0  0.6680492645944514  0.2524089883390701  0.008494868226499428  1.0000
  P   P2        1.0  0.3319385603905118  0.7475676114483746  0.9914904640797461  1.0000
  H   H1        1.0  0.6596812018868407  0.3384839603879755  0.19691980922473826  1.0000
  H   H2        1.0  0.34028229999089626  0.6614748188786309  0.8030700643312587  1.0000
  H   H3        1.0  0.13377214886959626  0.287342318543729  0.30655955998604173  1.0000
  H   H4        1.0  0.8662317324848419  0.7126507949511521  0.6934407305186597  1.0000
  H   H5        1.0  0.13946796524057703  0.517430854022628  0.3076400421503821  1.0000
  H   H6        1.0  0.8605664282220361  0.48255300497525877  0.6923535010235613  1.0000
  C   C1        1.0  0.9934150062137236  0.1114229450546844  0.4989431811927291  1.0000
  C   C2        1.0  0.006568931025334716  0.8886790811619749  0.5010913982141433  1.0000
  O   O1        1.0  0.8030814251711647  0.057376297062042204  0.9691674232488909  1.0000
  O   O2        1.0  0.19691777199437877  0.9426037196027935  0.03082046905311132  1.0000
  O   O3        1.0  0.44069722759769553  0.1980728398514557  0.8930694599652471  1.0000
  O   O4        1.0  0.5592998268417944  0.801913223762554  0.10690417735222008  1.0000
  O   O5        1.0  0.8045165650158451  0.4160915623600517  0.9776987209948589  1.0000
  O   O6        1.0  0.19548454862461281  0.5839016333881659  0.022307420508347747  1.0000
  O   O7        1.0  0.010424410415005513  0.2694805356888922  0.6547822839789676  1.0000
  O   O8        1.0  0.9895973373992463  0.7306001432675303  0.3452719649368845  1.0000
  O   O9        1.0  0.03287417478165372  0.8838707323579558  0.6578921866129194  1.0000
  O   O10       1.0  0.9671036490046417  0.11612483989132023  0.3420921456903301  1.0000
  O   O11       1.0  0.19917559505631743  0.376690635553196  0.2572410836888538  1.0000
  O   O12       1.0  0.8008569211704566  0.6232904765127144  0.7427747296196401  1.0000
