data_image0
_chemical_formula_structural       Zn6H40C56N20O20
_chemical_formula_sum              "Zn6 H40 C56 N20 O20"
_cell_length_a       7.477398058009101
_cell_length_b       12.212178144617642
_cell_length_c       18.513624222061512
_cell_angle_alpha    98.45363585440936
_cell_angle_beta     89.99983383923826
_cell_angle_gamma    90.00010625163465

_space_group_name_H-M_alt    "P 1"
_space_group_IT_number       1

loop_
  _space_group_symop_operation_xyz
  'x, y, z'

loop_
  _atom_site_type_symbol
  _atom_site_label
  _atom_site_symmetry_multiplicity
  _atom_site_fract_x
  _atom_site_fract_y
  _atom_site_fract_z
  _atom_site_occupancy
  Zn  Zn1       1.0  0.9995351891786015  4.220067013699173e-05  0.9999653105612648  1.0000
  Zn  Zn2       1.0  0.49943740823050586  0.4999508891448557  0.5000366557001212  1.0000
  Zn  Zn3       1.0  0.21251944527216438  0.1064351219098896  0.31993258791280965  1.0000
  Zn  Zn4       1.0  0.7125152064025143  0.3935656899915544  0.18006722705461436  1.0000
  Zn  Zn5       1.0  0.787469395567797  0.8935599867949693  0.68004641646678  1.0000
  Zn  Zn6       1.0  0.28746694746982376  0.606435161318892  0.8199549640274384  1.0000
  H   H1        1.0  0.5204583124014022  0.9411727060015235  0.2706025141556338  1.0000
  H   H2        1.0  0.020469749962202903  0.5588310279479671  0.229397849807853  1.0000
  H   H3        1.0  0.4795332031490602  0.0588233188847909  0.7293814336010553  1.0000
  H   H4        1.0  0.9795351391228025  0.4411680008320928  0.7706149955621695  1.0000
  H   H5        1.0  0.6250567065286176  0.928072852310109  0.4890667220691184  1.0000
  H   H6        1.0  0.1250577583691097  0.5719284248184594  0.010930062812697403  1.0000
  H   H7        1.0  0.3749762672052909  0.07193027615197418  0.5109443283802477  1.0000
  H   H8        1.0  0.8749698659962916  0.4280642790977822  0.9890530484095447  1.0000
  H   H9        1.0  0.600213983618616  0.12411963546411901  0.4589809769098989  1.0000
  H   H10       1.0  0.10021446320409669  0.3758810650161736  0.0410178752815824  1.0000
  H   H11       1.0  0.39982567691213683  0.8758794326143331  0.5410340326700903  1.0000
  H   H12       1.0  0.8998225227201786  0.624109904753631  0.9589607597497222  1.0000
  H   H13       1.0  0.11809557078805  0.7311034635034872  0.40990848356798176  1.0000
  H   H14       1.0  0.6180956016119553  0.7688946637297182  0.09009721122429683  1.0000
  H   H15       1.0  0.8819320535100629  0.26890790358167754  0.5901011413011901  1.0000
  H   H16       1.0  0.3819453963283976  0.23110001004735642  0.9099033615474282  1.0000
  H   H17       1.0  0.8827078032718773  0.8149173626958657  0.4460574744881639  1.0000
  H   H18       1.0  0.38271024316247804  0.6850842232075965  0.05394444717247642  1.0000
  H   H19       1.0  0.1173224957478141  0.1850773700031211  0.5539463446319103  1.0000
  H   H20       1.0  0.6173080196179725  0.31491617634948454  0.946052855263339  1.0000
  H   H21       1.0  0.39963873553682566  0.6412391694506852  0.35889504296483915  1.0000
  H   H22       1.0  0.8996360078506386  0.8587657316301005  0.14110661510802905  1.0000
  H   H23       1.0  0.6004129613035829  0.358776375883224  0.6411171154426751  1.0000
  H   H24       1.0  0.1004223758278968  0.14122388701899521  0.8588886449532322  1.0000
  H   H25       1.0  0.8524090367731036  0.19513954845521647  0.38852536695700474  1.0000
  H   H26       1.0  0.3523994056954153  0.3048614072311225  0.11147592253170299  1.0000
  H   H27       1.0  0.14759050289904252  0.8048501094540158  0.6114720573639614  1.0000
  H   H28       1.0  0.6475987966234413  0.6951423624078147  0.8885249217155928  1.0000
  H   H29       1.0  0.6043454024687521  0.7447493176801386  0.28702903108464267  1.0000
  H   H30       1.0  0.10435492375815872  0.7552569878397367  0.21297254744554545  1.0000
  H   H31       1.0  0.3956822218416178  0.2552561566579429  0.7129746661616492  1.0000
  H   H32       1.0  0.8956807247089387  0.2447369465336209  0.7870328209784743  1.0000
  H   H33       1.0  0.6638105024570962  0.9263089992097236  0.940397798282248  1.0000
  H   H34       1.0  0.16380986445177112  0.5736999533336518  0.5595957713427778  1.0000
  H   H35       1.0  0.33626660372948447  0.07355938030005402  0.05970224217409029  1.0000
  H   H36       1.0  0.8362725924492055  0.42645375318046774  0.44028772811455497  1.0000
  H   H37       1.0  0.6510757869400264  0.028013778932766794  0.9998572263301352  1.0000
  H   H38       1.0  0.15091773320645527  0.47202403406772225  0.5001204967746559  1.0000
  H   H39       1.0  0.34737240948074094  0.9715858049111507  0.00036846024195822855  1.0000
  H   H40       1.0  0.8472188607558949  0.5284574390526374  0.499608049058132  1.0000
  C   C1        1.0  0.009133712643063101  0.2864554359249852  0.25694818698641336  1.0000
  C   C2        1.0  0.5091364500428169  0.2135477225994791  0.24305368886899706  1.0000
  C   C3        1.0  0.9908925742929497  0.7135217658468136  0.743045965123798  1.0000
  C   C4        1.0  0.49088849956087444  0.78647514516841  0.7569521005911708  1.0000
  C   C5        1.0  0.008585436077346699  0.18538089375212513  0.20082653115250074  1.0000
  C   C6        1.0  0.5086054741724481  0.3146181450186917  0.29917605806786435  1.0000
  C   C7        1.0  0.9914248025499505  0.8146077006654266  0.7991578339276086  1.0000
  C   C8        1.0  0.49141947533728825  0.6853843618911313  0.7008462807205331  1.0000
  C   C9        1.0  0.17198236908620146  0.8839515874060029  0.3668061021439541  1.0000
  C   C10       1.0  0.6719789118423733  0.6160539357724987  0.13319478959742528  1.0000
  C   C11       1.0  0.8280292069159143  0.11605028113035593  0.6331810679394109  1.0000
  C   C12       1.0  0.3280259772508742  0.38394838452925484  0.8668172691165379  1.0000
  C   C13       1.0  0.9586353923584666  0.159177813451798  0.12756537313833857  1.0000
  C   C14       1.0  0.4586440176367291  0.3408207555030814  0.37243612292328976  1.0000
  C   C15       1.0  0.04141897937577709  0.8408635631833619  0.8724128981066811  1.0000
  C   C16       1.0  0.5414223900262056  0.6591240221205298  0.6275929485816858  1.0000
  C   C17       1.0  0.0084468700396201  0.9449177653625256  0.39452547821775846  1.0000
  C   C18       1.0  0.508448768392505  0.5550901468267426  0.10547797312294449  1.0000
  C   C19       1.0  0.991555344408475  0.0550849800661837  0.6054644710206671  1.0000
  C   C20       1.0  0.4915534459801306  0.44491880562252123  0.894535217565874  1.0000
  C   C21       1.0  0.4365639629224347  0.8904465485864466  0.3007747322489038  1.0000
  C   C22       1.0  0.9365586611987028  0.6095567270883322  0.19922673885786676  1.0000
  C   C23       1.0  0.5634516251554161  0.10955289550499708  0.699215462581371  1.0000
  C   C24       1.0  0.06345425208026968  0.39044723897754363  0.8007849265238105  1.0000
  C   C25       1.0  0.7264557890016121  0.9635125663422887  0.45736841653975796  1.0000
  C   C26       1.0  0.2264631793105707  0.5364929718955905  0.042630794138645484  1.0000
  C   C27       1.0  0.2735678231994925  0.03648633477182271  0.5426373950778967  1.0000
  C   C28       1.0  0.7735657824004251  0.46350731963435277  0.9573605566632748  1.0000
  C   C29       1.0  0.7144314994352072  0.0715464916141997  0.4419406899903606  1.0000
  C   C30       1.0  0.21443068687647582  0.4284576133729487  0.058058336287345476  1.0000
  C   C31       1.0  0.2855934501205369  0.9284516209936982  0.558067211990483  1.0000
  C   C32       1.0  0.7855942627516157  0.5715426388711722  0.9419308502882725  1.0000
  C   C33       1.0  0.20890809629832321  0.7756121422978101  0.37859267322816237  1.0000
  C   C34       1.0  0.7089077521681091  0.7243918242247319  0.12141181894332927  1.0000
  C   C35       1.0  0.7911235401010401  0.22439500726589057  0.6214122538592974  1.0000
  C   C36       1.0  0.2911171973971777  0.27560290847206664  0.878592000179587  1.0000
  C   C37       1.0  0.8743441143095226  0.8990172452952124  0.43341736712965667  1.0000
  C   C38       1.0  0.374354212383352  0.6009859500739055  0.0665825469151784  1.0000
  C   C39       1.0  0.1256728110931675  0.10097989220277269  0.5665823451342573  1.0000
  C   C40       1.0  0.6256693998459185  0.3990178097543691  0.9334177562615052  1.0000
  C   C41       1.0  0.36558427683084455  0.7248335221971871  0.35009428121292524  1.0000
  C   C42       1.0  0.8655772009391072  0.7751722181261446  0.1499096511430196  1.0000
  C   C43       1.0  0.6344593958411054  0.275175292774371  0.6499113346543337  1.0000
  C   C44       1.0  0.1344464112765635  0.2248241112257219  0.8500910693670247  1.0000
  C   C45       1.0  0.8527792983051442  0.11153363712391952  0.40279120565149634  1.0000
  C   C46       1.0  0.3527807425216594  0.3884689155251522  0.09720698482428956  1.0000
  C   C47       1.0  0.14720954247522405  0.8884584354064557  0.5972026528690078  1.0000
  C   C48       1.0  0.647220134522762  0.6115381947417974  0.9027957780510716  1.0000
  C   C49       1.0  0.4810565035045046  0.7825717073106517  0.31001907144239743  1.0000
  C   C50       1.0  0.9810583067799854  0.7174324423402895  0.18998296730248398  1.0000
  C   C51       1.0  0.5189697834551836  0.21743453589155592  0.6899814533264886  1.0000
  C   C52       1.0  0.0189653054290275  0.2825664194896405  0.8100206800867296  1.0000
  C   C53       1.0  0.88194725957171  0.21690414417837908  0.069266756638342  1.0000
  C   C54       1.0  0.38196596727926385  0.28309103130181523  0.430733443337786  1.0000
  C   C55       1.0  0.11820206505981899  0.783210974637022  0.9307218759000617  1.0000
  C   C56       1.0  0.6182127788436843  0.7167700118086346  0.5692811340465409  1.0000
  N   N1        1.0  0.07728431889670162  0.010428936843325702  0.16390577852703808  1.0000
  N   N2        1.0  0.5772832552703235  0.4895718332866182  0.33609796754533505  1.0000
  N   N3        1.0  0.9227406309152643  0.9895720674464389  0.836033778523557  1.0000
  N   N4        1.0  0.4227390193311181  0.5104182441138221  0.6639680971519508  1.0000
  N   N5        1.0  0.079255517458833  0.09134050624104621  0.22006920918745004  1.0000
  N   N6        1.0  0.5792546046219584  0.4086643553494085  0.2799321988273106  1.0000
  N   N7        1.0  0.9207560585896458  0.9086311395163025  0.7798920363167523  1.0000
  N   N8        1.0  0.42075162175196107  0.5913583720931116  0.7201113907759406  1.0000
  N   N9        1.0  0.28640876607766336  0.939556744765305  0.32887306151790335  1.0000
  N   N10       1.0  0.7864048491440697  0.5604496997182623  0.17112778249367716  1.0000
  N   N11       1.0  0.7135867615853327  0.0604391720911437  0.6711049346084578  1.0000
  N   N12       1.0  0.21358666629530623  0.43956187359411575  0.8288932045939885  1.0000
  N   N13       1.0  0.0032842509660965997  0.05091449766561601  0.10778195350395237  1.0000
  N   N14       1.0  0.5032986911798148  0.44908043710001544  0.39222243625840036  1.0000
  N   N15       1.0  0.9967741329862178  0.9491345774389119  0.892165134014867  1.0000
  N   N16       1.0  0.49677707789498277  0.5508550061198961  0.607838753350826  1.0000
  N   N17       1.0  0.9954532428282975  0.04987225165437081  0.3801172165926728  1.0000
  N   N18       1.0  0.4954520455653936  0.4501345761898889  0.11988227370974158  1.0000
  N   N19       1.0  0.004531585909177199  0.9501245813780627  0.6198657229178932  1.0000
  N   N20       1.0  0.5045367951667075  0.5498785643138717  0.8801339915944337  1.0000
  O   O1        1.0  0.07664224510406109  0.27517497993763845  0.3184907350643869  1.0000
  O   O2        1.0  0.5766441347547018  0.22483234324901968  0.18150981520527404  1.0000
  O   O3        1.0  0.9233960780960259  0.7247881002877821  0.6814994560567056  1.0000
  O   O4        1.0  0.42338081485823414  0.775203808458173  0.8184993203159718  1.0000
  O   O5        1.0  0.9461176050289026  0.3763952060391702  0.24074541492487356  1.0000
  O   O6        1.0  0.446121008904626  0.12360741306984828  0.2592521353073137  1.0000
  O   O7        1.0  0.05389530822632339  0.6235888832229719  0.7592639366507327  1.0000
  O   O8        1.0  0.5538905671301039  0.876404290747395  0.740730510579432  1.0000
  O   O9        1.0  0.685506398803028  0.9497856891646634  0.9924231614014755  1.0000
  O   O10       1.0  0.18557962249502677  0.5502126377100042  0.5075759175755719  1.0000
  O   O11       1.0  0.31537446337087255  0.0502111905160803  0.007607857851240897  1.0000
  O   O12       1.0  0.8154590488438486  0.44979461329872816  0.49238904461524396  1.0000
  O   O13       1.0  0.8244460829696293  0.31532338038520186  0.0830962764817045  1.0000
  O   O14       1.0  0.32445654885343334  0.18467501997871952  0.4169021158318315  1.0000
  O   O15       1.0  0.17554944463138614  0.6847536571608117  0.9169343333022578  1.0000
  O   O16       1.0  0.6755483402566541  0.8152297416671177  0.5830623446190443  1.0000
  O   O17       1.0  0.8826615594896764  0.16160691368443034  0.004734929939466801  1.0000
  O   O18       1.0  0.3826986947375843  0.3383734701815513  0.49526989133430266  1.0000
  O   O19       1.0  0.11773918977314679  0.838620146434266  0.995228579330657  1.0000
  O   O20       1.0  0.6177582227078274  0.6613657965611354  0.5047743332335272  1.0000
