data_image0
_chemical_formula_structural       Cu4H32C48N8O20
_chemical_formula_sum              "Cu4 H32 C48 N8 O20"
_cell_length_a       8.88765136300055
_cell_length_b       11.750758031944077
_cell_length_c       12.112736810407474
_cell_angle_alpha    68.01771471033723
_cell_angle_beta     68.4888575127224
_cell_angle_gamma    67.7845695712332

_space_group_name_H-M_alt    "P 1"
_space_group_IT_number       1

loop_
  _space_group_symop_operation_xyz
  'x, y, z'

loop_
  _atom_site_type_symbol
  _atom_site_label
  _atom_site_symmetry_multiplicity
  _atom_site_fract_x
  _atom_site_fract_y
  _atom_site_fract_z
  _atom_site_occupancy
  Cu  Cu1       1.0  0.4209501752509721  0.4990142662420636  0.27590063936658993  1.0000
  Cu  Cu2       1.0  0.19596918692626986  0.000968695155357599  0.22409102026310992  1.0000
  Cu  Cu3       1.0  0.579059024940328  0.5009907901277088  0.7240852083366109  1.0000
  Cu  Cu4       1.0  0.8040396608406294  0.9990245787006341  0.7759208239499175  1.0000
  H   H1        1.0  0.424402412704616  0.6174895859053817  0.46251621473154364  1.0000
  H   H2        1.0  0.5044061368538735  0.8826137339983188  0.03726600515564386  1.0000
  H   H3        1.0  0.5755948480133382  0.3825242677810933  0.5374530263459293  1.0000
  H   H4        1.0  0.4955890008919678  0.1173764849182746  0.9627603473594846  1.0000
  H   H5        1.0  0.2034145257867333  0.7384642009179386  0.608928326455825  1.0000
  H   H6        1.0  0.5505905941313072  0.7616805191115927  0.89092104942786  1.0000
  H   H7        1.0  0.7965948600041344  0.2615388700314084  0.3910634450247061  1.0000
  H   H8        1.0  0.44940981321461493  0.23831853502534966  0.10908593373415709  1.0000
  H   H9        1.0  0.8318837506880781  0.7208466774683939  0.4713377654231012  1.0000
  H   H10       1.0  0.023948612341101135  0.7793032896977434  0.02857106848819067  1.0000
  H   H11       1.0  0.16812826412702708  0.27913819532410133  0.5286615847433326  1.0000
  H   H12       1.0  0.9760442198200889  0.22072946400108845  0.97140898283228  1.0000
  H   H13       1.0  0.7896238457228436  0.638632462863583  0.3673378356589156  1.0000
  H   H14       1.0  0.7956902895288207  0.8611643915868966  0.13270079756232192  1.0000
  H   H15       1.0  0.2103733676284063  0.3613744990043698  0.6326479420080063  1.0000
  H   H16       1.0  0.20429741654444195  0.13883847934035737  0.8673056332243975  1.0000
  H   H17       1.0  0.035337282177856394  0.45296245413236125  0.07466151801963868  1.0000
  H   H18       1.0  0.563306953760005  0.04661189666060748  0.42559197302764334  1.0000
  H   H19       1.0  0.9646638787956194  0.5470253338438623  0.9253335554147385  1.0000
  H   H20       1.0  0.4366908900323593  0.9533754779515745  0.5744334432531916  1.0000
  H   H21       1.0  0.48223106579015257  0.23845623840465885  0.48355808684288354  1.0000
  H   H22       1.0  0.20433089685261757  0.26174132145566625  0.016281274772744304  1.0000
  H   H23       1.0  0.5177767759374701  0.7615381324230481  0.516443140175092  1.0000
  H   H24       1.0  0.795672570515208  0.7382530555989814  0.9837194900353484  1.0000
  H   H25       1.0  0.37584257221531914  0.26124096287924187  0.39231063895006474  1.0000
  H   H26       1.0  0.029535633591130792  0.23884887787539086  0.10763006444082635  1.0000
  H   H27       1.0  0.6241768652203842  0.7387496426526566  0.607687358747704  1.0000
  H   H28       1.0  0.9704657700713354  0.7611464478943828  0.8923709660488442  1.0000
  H   H29       1.0  0.31156201711815606  0.42932055862910085  0.10248418971340101  1.0000
  H   H30       1.0  0.8435718572099659  0.07069772902043067  0.39749498500082586  1.0000
  H   H31       1.0  0.688430064334092  0.5706757823491627  0.8975122165118139  1.0000
  H   H32       1.0  0.15642647075785016  0.9292907966029416  0.6025158485586816  1.0000
  C   C1        1.0  0.2917136330775419  0.6427559569169644  0.4671107337799256  1.0000
  C   C2        1.0  0.40148546824656234  0.8573816372965479  0.032749023173188625  1.0000
  C   C3        1.0  0.7082860550438853  0.3572577466719479  0.5328695293637438  1.0000
  C   C4        1.0  0.5985123540619667  0.14261352196882626  0.96726422691561  1.0000
  C   C5        1.0  0.16753466484080792  0.7128023040467892  0.5466883856122707  1.0000
  C   C6        1.0  0.4268426829454412  0.7873607256398071  0.9531701231367153  1.0000
  C   C7        1.0  0.8324705032049874  0.28721134182067926  0.453296121436786  1.0000
  C   C8        1.0  0.5731595336557332  0.2126402580370979  0.04683504096379926  1.0000
  C   C9        1.0  0.9993349855945368  0.7450376481330422  0.5471887963151901  1.0000
  C   C10       1.0  0.2913772917322389  0.7550646509050906  0.9527607215809372  1.0000
  C   C11       1.0  0.0006578367049811354  0.25496436645519777  0.45281059062914153  1.0000
  C   C12       1.0  0.7086231893950482  0.24494887995247439  0.04723222337174357  1.0000
  C   C13       1.0  0.9619077285974029  0.7010253000145351  0.4707024144460164  1.0000
  C   C14       1.0  0.1335119985290235  0.7990982690383032  0.029254436294955742  1.0000
  C   C15       1.0  0.03809423781377302  0.29897291532721926  0.5292962327923193  1.0000
  C   C16       1.0  0.8664830979390881  0.20092201160814938  0.9707323927350302  1.0000
  C   C17       1.0  0.09109659101038375  0.6300632085247669  0.39511463286468285  1.0000
  C   C18       1.0  0.11625852079034599  0.8699965408953432  0.10486336286055589  1.0000
  C   C19       1.0  0.908901594464467  0.3699398409277847  0.6048787038103004  1.0000
  C   C20       1.0  0.8837331685107374  0.13000446400734939  0.8951402307795533  1.0000
  C   C21       1.0  0.06223440886729748  0.5803164254808519  0.3125027558759471  1.0000
  C   C22       1.0  0.9550635499595896  0.919707543690947  0.18747419604522275  1.0000
  C   C23       1.0  0.9377628459006357  0.4196885823723803  0.6874866397848366  1.0000
  C   C24       1.0  0.04492864824168642  0.08028770470156839  0.8125325043547279  1.0000
  C   C25       1.0  0.902376738216688  0.5944124346141065  0.30515331704905446  1.0000
  C   C26       1.0  0.8020253511311493  0.9055034663233738  0.1948134266277108  1.0000
  C   C27       1.0  0.09761956591147222  0.4055887010013348  0.6948406857957041  1.0000
  C   C28       1.0  0.19795928843839064  0.09450232742253915  0.80518817593466  1.0000
  C   C29       1.0  0.88988414233723  0.5503164621035593  0.2175655091539569  1.0000
  C   C30       1.0  0.6579687071749305  0.9494610327996679  0.2825225799542822  1.0000
  C   C31       1.0  0.11012120313638708  0.4496789516563736  0.7824290661952207  1.0000
  C   C32       1.0  0.3420272494596546  0.05054368985729238  0.7174877515883794  1.0000
  C   C33       1.0  0.03847957122750491  0.4902535667746902  0.1429561070968433  1.0000
  C   C34       1.0  0.6719607131265661  0.009444911656487401  0.3571936076218591  1.0000
  C   C35       1.0  0.9615182488593064  0.5097341916368165  0.8570411329314355  1.0000
  C   C36       1.0  0.3280259858882318  0.9905655799645244  0.6428126927411882  1.0000
  C   C37       1.0  0.8576589377227887  0.8246485581241811  0.6278689154343695  1.0000
  C   C38       1.0  0.3099883768478903  0.6754141283905567  0.8721194361238389  1.0000
  C   C39       1.0  0.14234149536705587  0.17533706476933725  0.3721452704374358  1.0000
  C   C40       1.0  0.6900119294217433  0.32459749556083733  0.12787366814752946  1.0000
  C   C41       1.0  0.7225149488951316  0.5686364015292823  0.19882791343489006  1.0000
  C   C42       1.0  0.49014923453517356  0.9311557025720345  0.3013376656978651  1.0000
  C   C43       1.0  0.27749343409737287  0.43136864352359056  0.8011587641397213  1.0000
  C   C44       1.0  0.5098521142595801  0.06883750083763118  0.6986793415743691  1.0000
  C   C45       1.0  0.19284391690075606  0.47540246660142316  0.1582292200143556  1.0000
  C   C46       1.0  0.8266219240653568  0.024598364208983998  0.34175574801100345  1.0000
  C   C47       1.0  0.8071510379546464  0.5245977064370207  0.8417655308509924  1.0000
  C   C48       1.0  0.17336835461345157  0.9753978014929598  0.6582535238539792  1.0000
  N   N1        1.0  0.25502947277432486  0.603599242675912  0.3920590557042019  1.0000
  N   N2        1.0  0.25067874876835095  0.8964549690843879  0.10790190211718455  1.0000
  N   N3        1.0  0.7449711642969488  0.3964038407273164  0.6079317913565634  1.0000
  N   N4        1.0  0.7493156223862981  0.10354300746565308  0.8921142669690383  1.0000
  N   N5        1.0  0.20452754571429202  0.5197149001545681  0.2409717162463424  1.0000
  N   N6        1.0  0.9652659566948429  0.9803550532618884  0.2589522128266213  1.0000
  N   N7        1.0  0.7954706521924065  0.480298749394862  0.7590125124235954  1.0000
  N   N8        1.0  0.034733240630366244  0.019627637337059394  0.7410674919513697  1.0000
  O   O1        1.0  0.9060788743473366  0.8987721165744771  0.654779668828752  1.0000
  O   O2        1.0  0.45946438452637756  0.6013205894563498  0.8452615976204286  1.0000
  O   O3        1.0  0.09392040581123239  0.10120666599502928  0.34524727193699084  1.0000
  O   O4        1.0  0.540540171853017  0.39869689031227284  0.1547211148792016  1.0000
  O   O5        1.0  0.7116372631041228  0.8137599412708807  0.6595274000569094  1.0000
  O   O6        1.0  0.18481017288186025  0.6862564782905521  0.8403972636441638  1.0000
  O   O7        1.0  0.28836634351574714  0.1862190348227769  0.34048533834656786  1.0000
  O   O8        1.0  0.8151856255870127  0.31375129096689136  0.15959915572987882  1.0000
  O   O9        1.0  0.615577373665239  0.5244812123745247  0.29565416759628965  1.0000
  O   O10       1.0  0.4357784945101883  0.975330680285388  0.20454986024108027  1.0000
  O   O11       1.0  0.38443094047672594  0.47552472551301844  0.7043368803757206  1.0000
  O   O12       1.0  0.5642283234670272  0.02466635772942989  0.7954653078405158  1.0000
  O   O13       1.0  0.7006688053679253  0.6237958578004025  0.09285740907221647  1.0000
  O   O14       1.0  0.41749492916442676  0.876069170130087  0.4073685502807223  1.0000
  O   O15       1.0  0.29934243535497274  0.3762015420839473  0.9071311978584334  1.0000
  O   O16       1.0  0.5825047131412758  0.12392402634864645  0.592648963842592  1.0000
  O   O17       1.0  0.4123096448699426  0.3060460274970963  0.42898762829203474  1.0000
  O   O18       1.0  0.1475144079669022  0.19414043636387388  0.07096022976054434  1.0000
  O   O19       1.0  0.5877106404393257  0.69394652766357  0.5710070744321741  1.0000
  O   O20       1.0  0.8524846468653561  0.8058567780642533  0.9290419781329295  1.0000
