data_image0
_chemical_formula_structural       Mg9H66C90O48
_chemical_formula_sum              "Mg9 H66 C90 O48"
_cell_length_a       14.867817905428169
_cell_length_b       19.124603397485558
_cell_length_c       19.1191390270352
_cell_angle_alpha    113.5422090045354
_cell_angle_beta     105.02575380900463
_cell_angle_gamma    105.02201304274425

_space_group_name_H-M_alt    "P 1"
_space_group_IT_number       1

loop_
  _space_group_symop_operation_xyz
  'x, y, z'

loop_
  _atom_site_type_symbol
  _atom_site_label
  _atom_site_symmetry_multiplicity
  _atom_site_fract_x
  _atom_site_fract_y
  _atom_site_fract_z
  _atom_site_occupancy
  Mg  Mg1       1.0  0.4999995219750701  0.4999999001613844  0.9999992906095367  1.0000
  Mg  Mg2       1.0  0.49999925572527815  0.9999982144017849  0.5000019075445647  1.0000
  Mg  Mg3       1.0  1.3866282558385168e-06  0.4999995583000043  0.5000005448211694  1.0000
  Mg  Mg4       1.0  0.5811268756937622  0.6683509998621915  0.9673123850840849  1.0000
  Mg  Mg5       1.0  0.6137637065482765  0.032721058554187714  0.7010724586313868  1.0000
  Mg  Mg6       1.0  0.9128478666481784  0.29889037634671933  0.3316223156330336  1.0000
  Mg  Mg7       1.0  0.4188751080351452  0.33165255837182883  0.03269067310323235  1.0000
  Mg  Mg8       1.0  0.3862395593565041  0.9672781240747953  0.29893225599690243  1.0000
  Mg  Mg9       1.0  0.08715225214003641  0.7011094297061006  0.6683757298538918  1.0000
  H   H1        1.0  0.5187171629040463  0.8170558761099683  0.18814880384140045  1.0000
  H   H2        1.0  0.3304950584894542  0.8118105099278097  0.6290967702174796  1.0000
  H   H3        1.0  0.7018418264285272  0.37096525984505035  0.18271589275800437  1.0000
  H   H4        1.0  0.48128398041029646  0.182950183014718  0.8118556023916097  1.0000
  H   H5        1.0  0.6694999324606172  0.1881874207835708  0.3709026220359916  1.0000
  H   H6        1.0  0.2981518413507445  0.6290370492229796  0.817293342639125  1.0000
  H   H7        1.0  0.6235027853961483  0.8178183337570034  0.4197770527602954  1.0000
  H   H8        1.0  0.20392228591295958  0.5801998320978045  0.39825701912468486  1.0000
  H   H9        1.0  0.8059751562774409  0.6018181692382427  0.18207752878276295  1.0000
  H   H10       1.0  0.3765007277265583  0.1821827241493921  0.5802268900913743  1.0000
  H   H11       1.0  0.7960759907946054  0.4198018490441768  0.6017398289562192  1.0000
  H   H12       1.0  0.194019681373895  0.39818226305192184  0.8179259669348224  1.0000
  H   H13       1.0  0.6562140725319664  0.6494888987968608  0.20475564303283975  1.0000
  H   H14       1.0  0.45151995673966644  0.7952049267293616  0.4449399962098183  1.0000
  H   H15       1.0  0.0070582066033182305  0.555079779472088  0.3502546083333299  1.0000
  H   H16       1.0  0.34378558772428397  0.35051278309598644  0.7952441023429627  1.0000
  H   H17       1.0  0.5484841836201539  0.2047973815288842  0.555064049416799  1.0000
  H   H18       1.0  0.9929368034799778  0.44492377875980793  0.649749644631292  1.0000
  H   H19       1.0  0.7534928644882369  0.6973501176583382  0.9777889470830768  1.0000
  H   H20       1.0  0.77571343178073  0.022329078010848505  0.7196960847603292  1.0000
  H   H21       1.0  0.056062943191051325  0.2802903983140297  0.3024944525556349  1.0000
  H   H22       1.0  0.2464989751192732  0.3026428079557775  0.022194733650735477  1.0000
  H   H23       1.0  0.22427658015450905  0.9776519728265854  0.2803007999342241  1.0000
  H   H24       1.0  0.9439343393040434  0.7197106565261535  0.6974977592400008  1.0000
  H   H25       1.0  0.7669419134739711  0.7905614813563061  0.012624483343600291  1.0000
  H   H26       1.0  0.7542663956410536  0.9876492055656599  0.7781795755703695  1.0000
  H   H27       1.0  0.9760766558077237  0.2218570152425769  0.20928584621992027  1.0000
  H   H28       1.0  0.23306324482341273  0.20943582280653322  0.987367315564121  1.0000
  H   H29       1.0  0.245734516976583  0.012348102723329603  0.2218301895806788  1.0000
  H   H30       1.0  0.023914298663491852  0.778138414263971  0.790711727560996  1.0000
  H   H31       1.0  0.5123394880118964  0.7492684361964378  0.9026733811096717  1.0000
  H   H32       1.0  0.6092402228892695  0.0972831048416367  0.8464499840353522  1.0000
  H   H33       1.0  0.7626353250167028  0.15361604760597913  0.2507348075737282  1.0000
  H   H34       1.0  0.4876586316701221  0.25073574677447397  0.09732861585213465  1.0000
  H   H35       1.0  0.390756188628167  0.9027079496865156  0.15355114286211347  1.0000
  H   H36       1.0  0.23736662305775988  0.8463887586658175  0.7492588027610124  1.0000
  H   H37       1.0  0.5430737041782194  0.6915582277533405  0.8397152798206731  1.0000
  H   H38       1.0  0.7030158663275684  0.1603297426168879  0.8519617898903744  1.0000
  H   H39       1.0  0.8508683386391594  0.14796395375573468  0.308168811449512  1.0000
  H   H40       1.0  0.4569270176228315  0.30844283027727926  0.16028966365030325  1.0000
  H   H41       1.0  0.29698146461637254  0.8396631888773811  0.14804550231603017  1.0000
  H   H42       1.0  0.1491248882438471  0.8520289723591007  0.6918167211624107  1.0000
  H   H43       1.0  0.7918105301292543  0.8285646330494102  0.4767217600667447  1.0000
  H   H44       1.0  0.31545176103282574  0.5233484643335518  0.3522001507124486  1.0000
  H   H45       1.0  0.9637077456422674  0.6479075692815499  0.17121933508253293  1.0000
  H   H46       1.0  0.20820422306600508  0.1714351736957695  0.5232766512839929  1.0000
  H   H47       1.0  0.6845427245504041  0.4766525910060793  0.6477946298276718  1.0000
  H   H48       1.0  0.03629225127566833  0.3520878617911763  0.8287832193427886  1.0000
  H   H49       1.0  0.9015808588109236  0.7871605094705174  0.5605651585791376  1.0000
  H   H50       1.0  0.3412838280450644  0.43941431666513614  0.22692494285631426  1.0000
  H   H51       1.0  0.1147786693043643  0.7732876603824935  0.21278046830315128  1.0000
  H   H52       1.0  0.09843667961659719  0.2128336687544135  0.4394237324823889  1.0000
  H   H53       1.0  0.6587112866386776  0.5605879889012615  0.7730694177503705  1.0000
  H   H54       1.0  0.8852286584183348  0.2267015184964265  0.7872179506020768  1.0000
  H   H55       1.0  0.749807835181528  0.5328404279679617  0.35943007783764347  1.0000
  H   H56       1.0  0.38993988601368557  0.6401499742943101  0.1732240319660788  1.0000
  H   H57       1.0  0.21670258177262264  0.8269838641033757  0.4673123272199572  1.0000
  H   H58       1.0  0.25019175351639694  0.46715687556780955  0.6405600633499587  1.0000
  H   H59       1.0  0.6100563261187516  0.35985733380471174  0.8267756830714104  1.0000
  H   H60       1.0  0.7832928139200844  0.17301906882773474  0.5326912321710677  1.0000
  H   H61       1.0  0.6355950546447247  0.5724659666751749  0.2762229468515469  1.0000
  H   H62       1.0  0.3589564059837329  0.7233919074728803  0.2960559981185681  1.0000
  H   H63       1.0  0.06298723294676738  0.7039827110052954  0.4274810119203492  1.0000
  H   H64       1.0  0.36440532067843634  0.42753571402968765  0.7237717133168002  1.0000
  H   H65       1.0  0.6410436627419713  0.27661477638954307  0.7039468689780007  1.0000
  H   H66       1.0  0.9370022248068963  0.2960264742451173  0.5725269667437016  1.0000
  C   C1        1.0  0.5862967458771208  0.7302809271510711  0.18834309055866758  1.0000
  C   C2        1.0  0.397990134639116  0.8116236954703525  0.5421682752979604  1.0000
  C   C3        1.0  0.8562739924367903  0.4578720937422248  0.2694405258455176  1.0000
  C   C4        1.0  0.41370384498606694  0.2697226309574461  0.8116596838757171  1.0000
  C   C5        1.0  0.6020082543722509  0.188375486844464  0.45783596890345973  1.0000
  C   C6        1.0  0.1437242637733078  0.5421295887755591  0.7305620720277017  1.0000
  C   C7        1.0  0.5534765270010951  0.7922882049912519  0.22464779741466157  1.0000
  C   C8        1.0  0.32886786750017183  0.7753051131496562  0.5678656214877902  1.0000
  C   C9        1.0  0.7614037377707704  0.4321890177248661  0.20743634563555693  1.0000
  C   C10       1.0  0.4465269113356526  0.20771410357946246  0.7753576744606645  1.0000
  C   C11       1.0  0.6711325639749005  0.22469531814162022  0.4321327367408042  1.0000
  C   C12       1.0  0.23859335602088552  0.5678145410704972  0.7925699010836379  1.0000
  C   C13       1.0  0.5646933954010435  0.8222244340681045  0.3073698129821166  1.0000
  C   C14       1.0  0.25742390524897735  0.6926027171601561  0.5150675842808993  1.0000
  C   C15       1.0  0.7426610642803481  0.484956927132643  0.17753208996014536  1.0000
  C   C16       1.0  0.43530872671934867  0.1777766235877181  0.6926333234082235  1.0000
  C   C17       1.0  0.7425752773420842  0.30739521305220313  0.4849290002726148  1.0000
  C   C18       1.0  0.25733655164879826  0.515043505908814  0.822474064096866  1.0000
  C   C19       1.0  0.613819987548226  0.7926456833474308  0.3547777760889657  1.0000
  C   C20       1.0  0.2592311505160652  0.6451616828391026  0.43809097336597336  1.0000
  C   C21       1.0  0.8214409959630159  0.5619552044159022  0.20715623469744304  1.0000
  C   C22       1.0  0.3861834656957655  0.20735662422269743  0.6452235141192303  1.0000
  C   C23       1.0  0.7407679516988139  0.3548374984127988  0.5619087083363892  1.0000
  C   C24       1.0  0.17855213799915504  0.4380446023852329  0.7928461418171434  1.0000
  C   C25       1.0  0.6479252316485072  0.7305542224769043  0.31913801091086197  1.0000
  C   C26       1.0  0.32894692529060177  0.6807936882022574  0.41161652121573394  1.0000
  C   C27       1.0  0.9176714214447088  0.5883991602916581  0.2692243028977116  1.0000
  C   C28       1.0  0.35207790331840977  0.2694474602299834  0.680864534680836  1.0000
  C   C29       1.0  0.67105709158497  0.3192111196335929  0.5883832645407236  1.0000
  C   C30       1.0  0.08232094688886353  0.4116018967358244  0.7307778926388976  1.0000
  C   C31       1.0  0.631017070439107  0.6978478957254738  0.23455714217813284  1.0000
  C   C32       1.0  0.3965880912988453  0.7653880408107484  0.46350707174081396  1.0000
  C   C33       1.0  0.9335020319961062  0.5364963724650309  0.3018791275873695  1.0000
  C   C34       1.0  0.36898351856067524  0.30215566250812037  0.7654461549646496  1.0000
  C   C35       1.0  0.603415743827746  0.23461364170874086  0.5364945703105588  1.0000
  C   C36       1.0  0.0664952001870347  0.4635046857521345  0.6981271973348482  1.0000
  C   C37       1.0  0.5780104024818301  0.7032583937215051  0.10195468682602636  1.0000
  C   C38       1.0  0.4759249081623339  0.8980900764982567  0.6014824380765091  1.0000
  C   C39       1.0  0.87477975724174  0.39854881359385536  0.29660371709680067  1.0000
  C   C40       1.0  0.42199507086499477  0.2967451643259694  0.8980469899100496  1.0000
  C   C41       1.0  0.5240761973847227  0.10191035635664751  0.398522334529268  1.0000
  C   C42       1.0  0.1252209831933655  0.6014522431860314  0.7033959992902579  1.0000
  C   C43       1.0  0.5213376589344918  0.8840734757948284  0.3425770403991422  1.0000
  C   C44       1.0  0.17870787735191834  0.6574204561764246  0.541574784350075  1.0000
  C   C45       1.0  0.637417493347371  0.4584001388104469  0.11574444675363071  1.0000
  C   C46       1.0  0.4786671573607251  0.1159288339019682  0.6574328968962531  1.0000
  C   C47       1.0  0.8212894575682698  0.3425793495003262  0.4584221709225955  1.0000
  C   C48       1.0  0.36258164849819247  0.5416046685861602  0.8842543458675673  1.0000
  C   C49       1.0  0.7063458874102936  0.7034248657164852  0.37038806271481645  1.0000
  C   C50       1.0  0.3359595844644545  0.6294834552134604  0.33315156574266763  1.0000
  C   C51       1.0  0.003130424360442495  0.6668767992368674  0.29642256395362654  1.0000
  C   C52       1.0  0.2936568712642399  0.2965774416658178  0.6296125629085195  1.0000
  C   C53       1.0  0.6640420977580277  0.3705194770316567  0.6668480434526243  1.0000
  C   C54       1.0  0.9968681352194791  0.33312550914475036  0.703582960203235  1.0000
  C   C55       1.0  0.7805530737199079  0.7632267869515561  0.45161513096384437  1.0000
  C   C56       1.0  0.329086485173363  0.5483272589583948  0.31182938954741246  1.0000
  C   C57       1.0  0.017659066989729532  0.6882469859666289  0.23662506324447447  1.0000
  C   C58       1.0  0.2194557279932923  0.23677364421720168  0.5483812708235971  1.0000
  C   C59       1.0  0.6709126659892348  0.4516775478128423  0.6881667895318271  1.0000
  C   C60       1.0  0.9823418717155902  0.31175032057132773  0.7633773839890806  1.0000
  C   C61       1.0  0.8426213874474016  0.7405138043525668  0.4983078876066001  1.0000
  C   C62       1.0  0.34442449183271145  0.5015900106700923  0.2424034461914599  1.0000
  C   C63       1.0  0.10238031252338688  0.7577226866558533  0.25942234814557696  1.0000
  C   C64       1.0  0.157388020506275  0.25948224977259565  0.5016842789530356  1.0000
  C   C65       1.0  0.655569930144992  0.49841229458341013  0.7575897271219743  1.0000
  C   C66       1.0  0.8976226833034318  0.2422689934253555  0.7405793229649615  1.0000
  C   C67       1.0  0.8329842155691126  0.6575748410879854  0.46508706398247296  1.0000
  C   C68       1.0  0.3678353636347396  0.5346901408031144  0.19252597224247125  1.0000
  C   C69       1.0  0.17554069766249114  0.8076357453079127  0.34248279521344205  1.0000
  C   C70       1.0  0.1670213900798103  0.3424205879852664  0.534906171286728  1.0000
  C   C71       1.0  0.6321620801118824  0.46531404072923976  0.8074701330505502  1.0000
  C   C72       1.0  0.8244584322540336  0.1923565596352645  0.6575183373799759  1.0000
  C   C73       1.0  0.7573834501897777  0.5972111228739934  0.38499209007552776  1.0000
  C   C74       1.0  0.3720868393005148  0.6146636564894408  0.21212598332576946  1.0000
  C   C75       1.0  0.16009702003232462  0.7880135756168656  0.4028383301720594  1.0000
  C   C76       1.0  0.2426141184053208  0.4027849301844312  0.6149976645841873  1.0000
  C   C77       1.0  0.6279087567752342  0.3853424005072982  0.7878704926864155  1.0000
  C   C78       1.0  0.8398995287618048  0.2119874816620353  0.597164193914949  1.0000
  C   C79       1.0  0.694460966531736  0.6198215810672422  0.33844802631922716  1.0000
  C   C80       1.0  0.3557300536916871  0.6612451382535484  0.28129335577649767  1.0000
  C   C81       1.0  0.07461648908724783  0.7187641692096917  0.3801292592722373  1.0000
  C   C82       1.0  0.3055427110701389  0.38017697450992943  0.6615486768179719  1.0000
  C   C83       1.0  0.6442674480702449  0.33875779374014303  0.7187059248683949  1.0000
  C   C84       1.0  0.925373788084343  0.2812368877546163  0.6198730333433671  1.0000
  C   C85       1.0  0.9062943487328354  0.6366259238170286  0.5146028070481348  1.0000
  C   C86       1.0  0.3917540418529697  0.4852467306638246  0.12210079859750066  1.0000
  C   C87       1.0  0.269854398628766  0.8780829051791129  0.3635202441362818  1.0000
  C   C88       1.0  0.09370368634702693  0.3633738816723167  0.48539324468421774  1.0000
  C   C89       1.0  0.6082467908873567  0.5147655775299569  0.8778934806684898  1.0000
  C   C90       1.0  0.7301533862616693  0.1219100267560975  0.6364870853835354  1.0000
  O   O1        1.0  0.5814871968423816  0.632992947528777  0.057959644143572644  1.0000
  O   O2        1.0  0.5234742170124278  0.9419200449366086  0.5751257911884406  1.0000
  O   O3        1.0  0.9484961774843723  0.42487440796320197  0.366910888016207  1.0000
  O   O4        1.0  0.41851603390713166  0.36701311190923036  0.9420457104272227  1.0000
  O   O5        1.0  0.47652998695291876  0.05808101340775809  0.42487986166486974  1.0000
  O   O6        1.0  0.05150594649942519  0.5751266495675508  0.6330917256657427  1.0000
  O   O7        1.0  0.5715304657087684  0.7514775572532953  0.07191976590875969  1.0000
  O   O8        1.0  0.4992855510985806  0.9283308171120198  0.6797612288847856  1.0000
  O   O9        1.0  0.8198786014505826  0.32029304305205386  0.24848612805325104  1.0000
  O   O10       1.0  0.428481824258121  0.2485285026252271  0.9280858649309063  1.0000
  O   O11       1.0  0.5007128435030097  0.07166836482757329  0.32024144719145636  1.0000
  O   O12       1.0  0.18012259565308852  0.6797061380128754  0.7515124111533279  1.0000
  O   O13       1.0  0.5414447838152867  0.9182466645483416  0.4198525695230584  1.0000
  O   O14       1.0  0.12170640188886489  0.5801466814544369  0.4985578371562267  1.0000
  O   O15       1.0  0.6233795080243923  0.5014686349741313  0.08157862775259878  1.0000
  O   O16       1.0  0.4585517477090092  0.0817487650849813  0.5801445711444086  1.0000
  O   O17       1.0  0.8782962782728987  0.4198568768423315  0.5014453629075601  1.0000
  O   O18       1.0  0.3766161397278439  0.49852366965529893  0.918421795458499  1.0000
  O   O19       1.0  0.4645638121506083  0.8963764427255473  0.2897196445449238  1.0000
  O   O20       1.0  0.17451718759435417  0.7103398452325251  0.6065738257834566  1.0000
  O   O21       1.0  0.5682423751034448  0.3932861533082673  0.10348208289021692  1.0000
  O   O22       1.0  0.5354399556436391  0.10362648995796062  0.7102814356965437  1.0000
  O   O23       1.0  0.8254784795405425  0.2896649613500415  0.3934221666218461  1.0000
  O   O24       1.0  0.4317528122534214  0.6067080272862598  0.8965205629181409  1.0000
  O   O25       1.0  0.9121796782686856  0.5673369314227941  0.4805044720600263  1.0000
  O   O26       1.0  0.4317658722122389  0.5193494339271681  0.08693132579558945  1.0000
  O   O27       1.0  0.34491378769969583  0.913359866450911  0.432904834859819  1.0000
  O   O28       1.0  0.08782124503021294  0.43265474734450754  0.5194920690455901  1.0000
  O   O29       1.0  0.5682290237038431  0.48065662325696223  0.9130660537569139  1.0000
  O   O30       1.0  0.6550800067914581  0.08663431401812012  0.5670975271956065  1.0000
  O   O31       1.0  0.9622289331009667  0.6946319311929017  0.5917520151763253  1.0000
  O   O32       1.0  0.37061747693729796  0.4081451989141982  0.10297873561236051  1.0000
  O   O33       1.0  0.2679512433477599  0.897086633485074  0.30545967524877665  1.0000
  O   O34       1.0  0.037768995015859674  0.30536349831576354  0.4082443638272862  1.0000
  O   O35       1.0  0.6293810525784026  0.5918583571299723  0.8970157725667459  1.0000
  O   O36       1.0  0.7320596394617878  0.1029012951683512  0.6945384467234985  1.0000
  O   O37       1.0  0.7472795817118084  0.7431131889866692  0.021313529994252303  1.0000
  O   O38       1.0  0.7258964961623136  0.9789531193870005  0.722018045344846  1.0000
  O   O39       1.0  0.003896646425865007  0.2779817496583661  0.25680343971444586  1.0000
  O   O40       1.0  0.25273239134224207  0.25688661713229516  0.9786827457254499  1.0000
  O   O41       1.0  0.2740974143594599  0.021038562004712005  0.27799066741430767  1.0000
  O   O42       1.0  0.9961034236640672  0.7220193053077467  0.7431888168786498  1.0000
  O   O43       1.0  0.570187598515986  0.7357207855239737  0.8978660463141137  1.0000
  O   O44       1.0  0.6720780776089298  0.1022048630013046  0.8379939067879857  1.0000
  O   O45       1.0  0.8338977968653437  0.1619648097169843  0.2640233364540805  1.0000
  O   O46       1.0  0.4298150816457778  0.26428277277279494  0.10213715374967336  1.0000
  O   O47       1.0  0.32792152065577085  0.8977911942477165  0.1620130001696792  1.0000
  O   O48       1.0  0.16610250180845312  0.8380381217772739  0.7359733754463205  1.0000
