data_image0
_chemical_formula_structural       Zn4H28C24S4N28O8
_chemical_formula_sum              "Zn4 H28 C24 S4 N28 O8"
_cell_length_a       7.446491385011732
_cell_length_b       9.801435376010106
_cell_length_c       15.499023120006234
_cell_angle_alpha    90.00000820944445
_cell_angle_beta     89.99989547940748
_cell_angle_gamma    89.9998311990356

_space_group_name_H-M_alt    "P 1"
_space_group_IT_number       1

loop_
  _space_group_symop_operation_xyz
  'x, y, z'

loop_
  _atom_site_type_symbol
  _atom_site_label
  _atom_site_symmetry_multiplicity
  _atom_site_fract_x
  _atom_site_fract_y
  _atom_site_fract_z
  _atom_site_occupancy
  Zn  Zn1       1.0  0.0466813169672022  0.21452876988011838  0.3579328699252642  1.0000
  Zn  Zn2       1.0  0.45332451161474546  0.7854712661405968  0.8579313228406917  1.0000
  Zn  Zn3       1.0  0.546677204050553  0.2854708984309298  0.6420692669065245  1.0000
  Zn  Zn4       1.0  0.9533225272978568  0.7145289600474528  0.14206855993618459  1.0000
  H   H1        1.0  0.35255473884303257  0.8448217938021828  0.1658458167096981  1.0000
  H   H2        1.0  0.14744106127312048  0.155176157931237  0.6658464218736313  1.0000
  H   H3        1.0  0.8525571176094928  0.6551776436116938  0.8341522205336815  1.0000
  H   H4        1.0  0.6474486134722923  0.3448212383821172  0.3341549796855006  1.0000
  H   H5        1.0  0.39648675767132596  0.07783205253068098  0.26563011591036195  1.0000
  H   H6        1.0  0.10351404275814247  0.9221649016816968  0.7656308294241255  1.0000
  H   H7        1.0  0.8964871567870886  0.4221668121965577  0.7343678370295804  1.0000
  H   H8        1.0  0.6035149169019647  0.5778310267991529  0.23436936603383882  1.0000
  H   H9        1.0  0.9974482648647863  0.8079214085277256  0.6301199487858469  1.0000
  H   H10       1.0  0.5025501680419352  0.19207436619392843  0.13012153329201936  1.0000
  H   H11       1.0  0.49745376100684513  0.6920736149963461  0.3698798945468766  1.0000
  H   H12       1.0  0.0025439656239215  0.30792846427420534  0.8698787073821707  1.0000
  H   H13       1.0  0.7844715824166357  0.7891060358785111  0.5792800647658752  1.0000
  H   H14       1.0  0.7155270396852345  0.21089176777271496  0.0792821057967856  1.0000
  H   H15       1.0  0.28447816122422137  0.710892537673665  0.4207199689384566  1.0000
  H   H16       1.0  0.2155207191262036  0.28910853292435956  0.9207166541013406  1.0000
  H   H17       1.0  0.9373238336126022  0.5609086733535377  0.5963333190170772  1.0000
  H   H18       1.0  0.5626720391971389  0.4390870936705086  0.0963374528377088  1.0000
  H   H19       1.0  0.43733364301840527  0.9390885288016195  0.4036652876528919  1.0000
  H   H20       1.0  0.0626666437136691  0.06091253790766869  0.9036627340952776  1.0000
  H   H21       1.0  0.9136470445446391  0.5997132083874847  0.4852121344384912  1.0000
  H   H22       1.0  0.5863487239668145  0.4002867283070159  0.9852153970954589  1.0000
  H   H23       1.0  0.41365524401287246  0.9002850684189952  0.5147871385980025  1.0000
  H   H24       1.0  0.0863451470105119  0.09971488939610401  0.0147847686730955  1.0000
  H   H25       1.0  0.12537633880597096  0.6201396995793829  0.5380538824807956  1.0000
  H   H26       1.0  0.3746226227073278  0.37985822302377414  0.03805837732888759  1.0000
  H   H27       1.0  0.6253832831474923  0.8798561786718931  0.46194435782670235  1.0000
  H   H28       1.0  0.874616600704634  0.12014477297273632  0.961942821167419  1.0000
  C   C1        1.0  0.2541834018721616  0.9021624920562064  0.2024501057058217  1.0000
  C   C2        1.0  0.24581360493282733  0.09783852879492369  0.7024493273702817  1.0000
  C   C3        1.0  0.7541834475276443  0.5978392118581084  0.7975499550750413  1.0000
  C   C4        1.0  0.7458197339408771  0.402160682054607  0.2975513410560566  1.0000
  C   C5        1.0  0.9980368727203268  0.9598154441635811  0.2549285671721577  1.0000
  C   C6        1.0  0.5019624386166938  0.040187500815100904  0.7549286468163602  1.0000
  C   C7        1.0  0.4980361744343823  0.5401856995679709  0.7450725660413795  1.0000
  C   C8        1.0  0.0019673883245162  0.4598143107317085  0.2450722395801108  1.0000
  C   C9        1.0  0.9007426386024873  0.04159293180264001  0.5136280995229328  1.0000
  C   C10       1.0  0.5992575707402492  0.9584058771413667  0.0136270858024332  1.0000
  C   C11       1.0  0.400742666877683  0.45840796366624653  0.48637372082482233  1.0000
  C   C12       1.0  0.0992586549681462  0.5415931218933847  0.986372468258331  1.0000
  C   C13       1.0  0.275597744541642  0.0202559289155246  0.251500244556901  1.0000
  C   C14       1.0  0.2244017655577863  0.9797410220777609  0.751500855198941  1.0000
  C   C15       1.0  0.7755978736828836  0.4797411730026511  0.74849846164323  1.0000
  C   C16       1.0  0.7244028045032208  0.5202576894741142  0.2484998774039937  1.0000
  C   C17       1.0  0.929729294281685  0.7764362951339976  0.5704826706341279  1.0000
  C   C18       1.0  0.5702680176442528  0.22356252677225544  0.0704841974453458  1.0000
  C   C19       1.0  0.42973579251628985  0.7235609244713217  0.42951658802775233  1.0000
  C   C20       1.0  0.07026305509694453  0.2764391278731467  0.9295146922938642  1.0000
  C   C21       1.0  0.9796363404718349  0.6313003496901003  0.5452816986769378  1.0000
  C   C22       1.0  0.5203583794055574  0.3686984664754788  0.0452858639796005  1.0000
  C   C23       1.0  0.4796462256718215  0.8686967552639829  0.45471622496946645  1.0000
  C   C24       1.0  0.0203538710736879  0.13130432308143014  0.9547143607757391  1.0000
  S   S1        1.0  0.0009200031623989999  0.8894463101958221  0.4835840656814696  1.0000
  S   S2        1.0  0.49907730032187897  0.11055273421538196  0.983584997714189  1.0000
  S   S3        1.0  0.5009250757865473  0.6105529147369994  0.5164168666817233  1.0000
  S   S4        1.0  0.9990778090014769  0.3894489556157125  0.0164154443317841  1.0000
  N   N1        1.0  0.8121090056289049  0.9574262141971915  0.2761551492417169  1.0000
  N   N2        1.0  0.6878888837963187  0.0425797963972343  0.7761537725039815  1.0000
  N   N3        1.0  0.3121083773081422  0.5425784174267605  0.7238467953678978  1.0000
  N   N4        1.0  0.18789392152738316  0.4574226082951042  0.2238456572958398  1.0000
  N   N5        1.0  0.111877558201229  0.05638246199929849  0.2839242983450134  1.0000
  N   N6        1.0  0.38812317414262043  0.9436175571589587  0.7839241141873855  1.0000
  N   N7        1.0  0.6118766014877011  0.4436180767969446  0.7160764898050047  1.0000
  N   N8        1.0  0.8881255402694207  0.5563828188056305  0.2160764720705544  1.0000
  N   N9        1.0  0.7513322679596895  0.1958011364391652  0.5764140657782661  1.0000
  N   N10       1.0  0.7486650218991073  0.8041956463014089  0.076414195020952  1.0000
  N   N11       1.0  0.2513357979725228  0.30419908199459667  0.423587242918309  1.0000
  N   N12       1.0  0.2486684433599037  0.6958019892510875  0.9235865158928503  1.0000
  N   N13       1.0  0.9117785802047607  0.15721577461209793  0.4653102158767766  1.0000
  N   N14       1.0  0.5882253198669004  0.8427841575363147  0.9653083551001629  1.0000
  N   N15       1.0  0.41177483648073115  0.3427850955094201  0.5346935302139002  1.0000
  N   N16       1.0  0.0882254804593003  0.6572158871016782  0.0346912088223803  1.0000
  N   N17       1.0  0.0779138750267805  0.8644151624214941  0.2056071559465096  1.0000
  N   N18       1.0  0.4220831200264499  0.13558687940800954  0.7056068686521115  1.0000
  N   N19       1.0  0.5779151328211541  0.6355859261617169  0.7943937075965123  1.0000
  N   N20       1.0  0.9220894033072042  0.3644149872886829  0.2943942874154715  1.0000
  N   N21       1.0  0.8001340104115754  0.0635551447786113  0.5839467708228837  1.0000
  N   N22       1.0  0.6998619084980078  0.936442659939175  0.0839469555997141  1.0000
  N   N23       1.0  0.3001384120449444  0.4364459818047237  0.4160538490493266  1.0000
  N   N24       1.0  0.19986451440657044  0.563556107984141  0.9160531537358381  1.0000
  N   N25       1.0  0.8160070448449587  0.2527957675573802  0.506398659012433  1.0000
  N   N26       1.0  0.6839945343153389  0.7472030397373431  0.0063981957281953  1.0000
  N   N27       1.0  0.3160051578301619  0.24720634282836337  0.4936038822801834  1.0000
  N   N28       1.0  0.18399748002436664  0.7527947443776243  0.993601927790415  1.0000
  O   O1        1.0  0.7283879229518817  0.8488003824815852  0.26518223213796693  1.0000
  O   O2        1.0  0.7716059785628814  0.1512066458752059  0.7651814355527975  1.0000
  O   O3        1.0  0.22839087239900377  0.6512044414633423  0.7348178516993613  1.0000
  O   O4        1.0  0.27161138560566656  0.34879658675929903  0.234817919415292  1.0000
  O   O5        1.0  0.743937591306384  0.06472235351789381  0.30495759992908233  1.0000
  O   O6        1.0  0.7560655625913738  0.9352826433765103  0.8049555974571092  1.0000
  O   O7        1.0  0.24393424451358917  0.4352809426872639  0.6950450057844435  1.0000
  O   O8        1.0  0.25606681859432  0.564720076471275  0.1950431712369607  1.0000
