data_image0
_chemical_formula_structural       Ag2P2H46C46N4O6
_chemical_formula_sum              "Ag2 P2 H46 C46 N4 O6"
_cell_length_a       9.993618280095298
_cell_length_b       10.537033513968908
_cell_length_c       11.28133988804147
_cell_angle_alpha    87.29360852039996
_cell_angle_beta     77.83893917333997
_cell_angle_gamma    64.14242955033059

_space_group_name_H-M_alt    "P 1"
_space_group_IT_number       1

loop_
  _space_group_symop_operation_xyz
  'x, y, z'

loop_
  _atom_site_type_symbol
  _atom_site_label
  _atom_site_symmetry_multiplicity
  _atom_site_fract_x
  _atom_site_fract_y
  _atom_site_fract_z
  _atom_site_occupancy
  Ag  Ag1       1.0  0.28004752956019985  0.0738060226339101  0.13058833086507346  1.0000
  Ag  Ag2       1.0  0.7199508803622908  0.9261979770790205  0.8694111092868865  1.0000
  P   P1        1.0  0.1721909704570592  0.2590965277728118  0.2812036988421838  1.0000
  P   P2        1.0  0.8278079062168759  0.7409064445343817  0.7187983666157225  1.0000
  H   H1        1.0  0.22821592393372475  0.0004843142636516974  0.8714845340330157  1.0000
  H   H2        1.0  0.7717875924776438  0.9995175505795757  0.12851230830703736  1.0000
  H   H3        1.0  0.033133477938790255  0.9656147788309892  0.7823571619684557  1.0000
  H   H4        1.0  0.9668680137625287  0.0343892083948418  0.21764083058084788  1.0000
  H   H5        1.0  0.27923993309521233  0.9205837247445315  0.32942009793440963  1.0000
  H   H6        1.0  0.7207564287028206  0.07942027695224851  0.6705797154572862  1.0000
  H   H7        1.0  0.08505219938834331  0.040773964945799386  0.38131375916280763  1.0000
  H   H8        1.0  0.9149436572897118  0.9592311022019757  0.6186869798951024  1.0000
  H   H9        1.0  0.17802572279824613  0.9023121365222051  0.4731016524813469  1.0000
  H   H10       1.0  0.8219690959952999  0.09769080170742227  0.5268976084838856  1.0000
  H   H11       1.0  0.30621480116069233  0.9269909772233971  0.6103612985656213  1.0000
  H   H12       1.0  0.6937844816135766  0.07300459697049891  0.38964017354667396  1.0000
  H   H13       1.0  0.3959586439518787  0.06744873473846981  0.7147655934800669  1.0000
  H   H14       1.0  0.6040452593755535  0.9325457510140892  0.2852324310004519  1.0000
  H   H15       1.0  0.38082208778465093  0.2974606755347793  0.6333381141645945  1.0000
  H   H16       1.0  0.6191853683031993  0.7025349097463405  0.366663640474819  1.0000
  H   H17       1.0  0.278997283636926  0.3810524826885171  0.4476653732913719  1.0000
  H   H18       1.0  0.7210046226250243  0.6189483852667834  0.5523371308235028  1.0000
  H   H19       1.0  0.573652775136715  0.2883639293034861  0.09884552101201649  1.0000
  H   H20       1.0  0.4263440779590086  0.7116368770322268  0.9011517020009165  1.0000
  H   H21       1.0  0.46236002260621945  0.19206516081283803  0.12835871485418687  1.0000
  H   H22       1.0  0.5376383639018628  0.8079367185013382  0.8716399483282586  1.0000
  H   H23       1.0  0.5242118458891484  0.2371501644652767  0.24814561374851954  1.0000
  H   H24       1.0  0.4757900753269193  0.7628485450460047  0.7518525624246807  1.0000
  H   H25       1.0  0.4590142454685733  0.5380235021946194  0.11570903786844869  1.0000
  H   H26       1.0  0.5409815451963881  0.4619773431782832  0.884291922736523  1.0000
  H   H27       1.0  0.2359422250888484  0.7657603354949459  0.16146988996926134  1.0000
  H   H28       1.0  0.7640576384106197  0.23423838551150306  0.8385295471867239  1.0000
  H   H29       1.0  0.9802705112317583  0.7758720098429632  0.2639167648548977  1.0000
  H   H30       1.0  0.019730895272196777  0.22412777463063097  0.7360832247275582  1.0000
  H   H31       1.0  0.9594446799808763  0.5557061075776204  0.31661979160769965  1.0000
  H   H32       1.0  0.040557235873201515  0.4442947508663623  0.6833818247641332  1.0000
  H   H33       1.0  0.8785452195744486  0.37831482713571757  0.036755319763450645  1.0000
  H   H34       1.0  0.12145616774524366  0.6216849763605056  0.9632464453050815  1.0000
  H   H35       1.0  0.06557596117514919  0.3034918329159808  0.0676970940400992  1.0000
  H   H36       1.0  0.934426997925435  0.6965090055134482  0.9323025602257786  1.0000
  H   H37       1.0  0.9479540249632237  0.48643397677690814  0.09235781144638372  1.0000
  H   H38       1.0  0.05204687642076067  0.5135668731476815  0.9076431038022789  1.0000
  H   H39       1.0  0.6575356988604142  0.44060744367476445  0.1901987619577881  1.0000
  H   H40       1.0  0.34246671365334463  0.5593880704754496  0.809796823836642  1.0000
  H   H41       1.0  0.53073329037926  0.42704675422726274  0.40121892195379866  1.0000
  H   H42       1.0  0.469266535883513  0.5729477164703668  0.5987780735201156  1.0000
  H   H43       1.0  0.6827491639715078  0.3536819086271592  0.5642023210505158  1.0000
  H   H44       1.0  0.3172471318134313  0.6463178712947482  0.4357977138882489  1.0000
  H   H45       1.0  0.9578215943460153  0.2868676020511884  0.5110681143431677  1.0000
  H   H46       1.0  0.0421762156670128  0.7131332698718181  0.488935136251186  1.0000
  C   C1        1.0  0.1264882448946239  0.9988128246124645  0.9286543381817154  1.0000
  C   C2        1.0  0.8735158234655533  0.0011922155772694989  0.0713431324311457  1.0000
  C   C3        1.0  0.01810055411080925  0.9812042433412456  0.88008341510362  1.0000
  C   C4        1.0  0.9818999699492468  0.018803976162693897  0.11991543026153542  1.0000
  C   C5        1.0  0.23655412486561297  0.20095645712645896  0.4228131356711984  1.0000
  C   C6        1.0  0.7634452569282997  0.7990454497297393  0.5771880041205009  1.0000
  C   C7        1.0  0.24279379026862816  0.07168564433451512  0.46939952894335596  1.0000
  C   C8        1.0  0.7572025097464561  0.9283162750087757  0.5306030584509998  1.0000
  C   C9        1.0  0.1929692071183384  0.9797902670316602  0.41018179575711855  1.0000
  C   C10       1.0  0.8070266261453014  0.020212679717360505  0.5898181663312769  1.0000
  C   C11       1.0  0.29992146308043743  0.027365856899329803  0.5749582517721308  1.0000
  C   C12       1.0  0.7000757949837821  0.97263183967717  0.4250443705494149  1.0000
  C   C13       1.0  0.35104283963040933  0.1059049059283907  0.6334341368367404  1.0000
  C   C14       1.0  0.648960030042659  0.894089590327411  0.3665649620066916  1.0000
  C   C15       1.0  0.3438796934507309  0.23355206849324628  0.5873741192954753  1.0000
  C   C16       1.0  0.6561242141068535  0.7664445566806961  0.41262645764064126  1.0000
  C   C17       1.0  0.28669154726632945  0.28045234385964324  0.48276566363026774  1.0000
  C   C18       1.0  0.713308815991127  0.7195474606285117  0.517236288058136  1.0000
  C   C19       1.0  0.19741616000185766  0.41927244980806927  0.2469487334138734  1.0000
  C   C20       1.0  0.8025816926098488  0.5807305234910487  0.7530535186639113  1.0000
  C   C21       1.0  0.3411203613972377  0.4127243552957651  0.19004810568220168  1.0000
  C   C22       1.0  0.6588784492635967  0.5872743952365626  0.8099541813227662  1.0000
  C   C23       1.0  0.48265965803617666  0.2758776821147819  0.1643339594109463  1.0000
  C   C24       1.0  0.5173407339976847  0.7241220938394194  0.8356653290483322  1.0000
  C   C25       1.0  0.34993853915244716  0.539944903567239  0.16014630340859523  1.0000
  C   C26       1.0  0.6500587423261807  0.46005491340800825  0.8398570958824652  1.0000
  C   C27       1.0  0.22249747793770072  0.6701540589493861  0.1857067239536931  1.0000
  C   C28       1.0  0.7775018516653986  0.3298457560420047  0.814296302097624  1.0000
  C   C29       1.0  0.08173105825361666  0.67562716765255  0.24243988808383685  1.0000
  C   C30       1.0  0.9182683001258812  0.32437261880490104  0.757560474738355  1.0000
  C   C31       1.0  0.0697821149879516  0.5506729872986043  0.2725446001646077  1.0000
  C   C32       1.0  0.9302167478637033  0.4493278550985238  0.7274558005807562  1.0000
  C   C33       1.0  0.965823183505826  0.320967295983138  0.3197727428480945  1.0000
  C   C34       1.0  0.03417725535686606  0.6790367207685647  0.6802280995502059  1.0000
  C   C35       1.0  0.8803154018364765  0.3655812486744167  0.22751216789111342  1.0000
  C   C36       1.0  0.11968701490743439  0.6344164048971804  0.7724859703589075  1.0000
  C   C37       1.0  0.9472826309409759  0.3823734670709412  0.09929766566209956  1.0000
  C   C38       1.0  0.052719790033080485  0.6176263259220393  0.9007030250435193  1.0000
  C   C39       1.0  0.7240168350965707  0.4032782645910657  0.2603123889270762  1.0000
  C   C40       1.0  0.2759850062841097  0.5967140932352777  0.7396843440806293  1.0000
  C   C41       1.0  0.652401413841517  0.39789053479949393  0.37935226791503857  1.0000
  C   C42       1.0  0.3475999458336077  0.6021050088765988  0.6206461677283956  1.0000
  C   C43       1.0  0.7367382075310545  0.35671143308393016  0.47010894852110136  1.0000
  C   C44       1.0  0.26326013637834234  0.6432883448541203  0.5298907131779131  1.0000
  C   C45       1.0  0.8924414909887446  0.3187444919182028  0.43996238160808326  1.0000
  C   C46       1.0  0.10755892445952504  0.6812574044347527  0.5600376838207027  1.0000
  N   N1        1.0  0.42181632412977876  0.19472716486698965  0.8968524768081994  1.0000
  N   N2        1.0  0.5781815242517753  0.805273669010752  0.10314722281398758  1.0000
  N   N3        1.0  0.10872889331192684  0.017149769738288998  0.04888697020562199  1.0000
  N   N4        1.0  0.8912746369217293  0.9828542250150034  0.9511115368469801  1.0000
  O   O1        1.0  0.39921433747252894  0.0834494631982423  0.9166076224954764  1.0000
  O   O2        1.0  0.6007860449691977  0.9165503222672771  0.0833925537068438  1.0000
  O   O3        1.0  0.5594722680028711  0.17727224143501266  0.8612618775252869  1.0000
  O   O4        1.0  0.4405261185052115  0.8227296378791564  0.13873678565715858  1.0000
  O   O5        1.0  0.3141324983565995  0.3149946538918229  0.9117087328841436  1.0000
  O   O6        1.0  0.6858653404328195  0.6850061894972298  0.08829185448108486  1.0000
