data_image0
_chemical_formula_structural       Cu8H48W2C60S14I4N12
_chemical_formula_sum              "Cu8 H48 W2 C60 S14 I4 N12"
_cell_length_a       12.39263286806486
_cell_length_b       14.32377014493895
_cell_length_c       15.032025852522809
_cell_angle_alpha    118.43695648767324
_cell_angle_beta     90.00036353513676
_cell_angle_gamma    89.99980195378069

_space_group_name_H-M_alt    "P 1"
_space_group_IT_number       1

loop_
  _space_group_symop_operation_xyz
  'x, y, z'

loop_
  _atom_site_type_symbol
  _atom_site_label
  _atom_site_symmetry_multiplicity
  _atom_site_fract_x
  _atom_site_fract_y
  _atom_site_fract_z
  _atom_site_occupancy
  Cu  Cu1       1.0  0.16636117855517799  0.1949271906182091  0.16404371697136358  1.0000
  Cu  Cu2       1.0  0.6665536275366365  0.9689555633121644  0.16398846030166683  1.0000
  Cu  Cu3       1.0  0.6665579919126472  0.03104765306794381  0.8360110549429578  1.0000
  Cu  Cu4       1.0  0.16636253852271204  0.8050723478369405  0.8359607902834867  1.0000
  Cu  Cu5       1.0  0.1729615566688167  0.0818943214299281  0.8747116167709521  1.0000
  Cu  Cu6       1.0  0.6729838658655041  0.7928620400841384  0.8747336940259345  1.0000
  Cu  Cu7       1.0  0.6729942688639453  0.20714117999725798  0.12526918331766979  1.0000
  Cu  Cu8       1.0  0.17296193818199873  0.9181044137521255  0.12528990129838752  1.0000
  H   H1        1.0  0.18009028180382095  0.43563222775647853  0.2817897102344276  1.0000
  H   H2        1.0  0.6803124860154738  0.8462223756244643  0.2818555371463418  1.0000
  H   H3        1.0  0.6803066053247379  0.15377449332784468  0.7181465026304252  1.0000
  H   H4        1.0  0.18008764966701554  0.5643704631525709  0.7182089779027903  1.0000
  H   H5        1.0  0.29350254593310143  0.5811274835049433  0.2828756607127119  1.0000
  H   H6        1.0  0.7935978180624799  0.7018059398570033  0.28305889551347724  1.0000
  H   H7        1.0  0.7935881400372081  0.2981932393129513  0.7169401343138658  1.0000
  H   H8        1.0  0.2935012771543128  0.4188703692689515  0.7171154549228403  1.0000
  H   H9        1.0  0.48522167299663005  0.33570037988715745  0.04531045836639437  1.0000
  H   H10       1.0  0.9854439486735983  0.7094419700684257  0.04536582847686084  1.0000
  H   H11       1.0  0.9854441694497494  0.2905563009223969  0.9546291534538368  1.0000
  H   H12       1.0  0.48522609223949326  0.6642894495898234  0.9546873611666555  1.0000
  H   H13       1.0  0.3645422036570451  0.20298615537446096  0.05490674494758707  1.0000
  H   H14       1.0  0.8648543215918066  0.8517558961200322  0.05487673270057053  1.0000
  H   H15       1.0  0.8648542157613902  0.1482400714982077  0.9451225539420774  1.0000
  H   H16       1.0  0.3645476490376962  0.7970061271869967  0.9450942036297006  1.0000
  H   H17       1.0  0.15541141387403457  0.6874518944809723  0.06665560199526512  1.0000
  H   H18       1.0  0.6556099974897123  0.37907789927569985  0.06648648097191766  1.0000
  H   H19       1.0  0.6556015138396559  0.6209285131745333  0.9335210739348411  1.0000
  H   H20       1.0  0.15541300195291538  0.3125468344024327  0.9333385022411134  1.0000
  H   H21       1.0  0.2606799416641791  0.5524677930531893  0.0873580850912886  1.0000
  H   H22       1.0  0.760873120235665  0.5348191277106694  0.08737298799876923  1.0000
  H   H23       1.0  0.7608602412693983  0.465180870357635  0.9126295644852147  1.0000
  H   H24       1.0  0.2606800421553501  0.4475268974905404  0.9126294303019831  1.0000
  H   H25       1.0  0.5194659635716051  0.7842205142697268  0.20956734147494424  1.0000
  H   H26       1.0  0.019254958696564  0.4255728797746201  0.21031951483953282  1.0000
  H   H27       1.0  0.019237497023901505  0.5744283149192384  0.7896796376363824  1.0000
  H   H28       1.0  0.5194676520153577  0.215776444896207  0.7904352148340266  1.0000
  H   H29       1.0  0.40281326501899156  0.9092503921531618  0.18698623604168327  1.0000
  H   H30       1.0  0.9026735667232941  0.2777672428263926  0.18737844369383078  1.0000
  H   H31       1.0  0.9026637744554691  0.7222342646738156  0.8126248797358498  1.0000
  H   H32       1.0  0.40281803050823584  0.09074823117082079  0.8130224401721121  1.0000
  H   H33       1.0  0.9764344690746539  0.9518463467288855  0.7839919781004809  1.0000
  H   H34       1.0  0.4764263454454962  0.8318435870576977  0.7841415933402799  1.0000
  H   H35       1.0  0.47643113025825556  0.16815576576782126  0.21585649477382418  1.0000
  H   H36       1.0  0.9764340722375381  0.048155906017896696  0.2160080828820981  1.0000
  H   H37       1.0  0.8469586980251904  0.9186312219208121  0.6455718043363703  1.0000
  H   H38       1.0  0.3468587242947692  0.7267210414862647  0.6458532716526617  1.0000
  H   H39       1.0  0.34686172749285754  0.2732752117136954  0.35414538712640103  1.0000
  H   H40       1.0  0.8469543788361661  0.08137348005471519  0.3544273457032077  1.0000
  H   H41       1.0  0.04903186422047409  0.1176257197183688  0.5694966168824394  1.0000
  H   H42       1.0  0.5490670087209465  0.45172838945497057  0.5695262996265383  1.0000
  H   H43       1.0  0.5490630671745292  0.5482709210520511  0.43047082486312144  1.0000
  H   H44       1.0  0.049025012374045183  0.8823738651807889  0.4304993048664371  1.0000
  H   H45       1.0  0.17045690917647963  0.1402816080964158  0.70905222104232  1.0000
  H   H46       1.0  0.67052818287641  0.5685186343691128  0.7090743947197281  1.0000
  H   H47       1.0  0.6705260586949037  0.43148537234957735  0.2909248338019736  1.0000
  H   H48       1.0  0.17045150931291178  0.859715533385014  0.2909452367347  1.0000
  W   W1        1.0  0.17394770127119588  0.9999991617181012  1.4135950862617297e-06  1.0000
  W   W2        1.0  0.6739996326087266  0.9999990230789778  1.3491061921570295e-06  1.0000
  C   C1        1.0  0.24683380005176048  0.41826034587583655  0.22851192610144005  1.0000
  C   C2        1.0  0.7470657234488698  0.8102127790694595  0.22853720393963062  1.0000
  C   C3        1.0  0.7470601067364907  0.1897880189890913  0.7714649717248461  1.0000
  C   C4        1.0  0.24683392472449128  0.5817383405610955  0.7714859710148687  1.0000
  C   C5        1.0  0.31080310620458107  0.49838758586789583  0.2296387911149438  1.0000
  C   C6        1.0  0.8109683635331849  0.7312296064544768  0.22978344271773926  1.0000
  C   C7        1.0  0.8109583961928735  0.2687703615340808  0.7702180318952614  1.0000
  C   C8        1.0  0.31080434023993314  0.5016078829042172  0.7703546645715917  1.0000
  C   C9        1.0  0.39837025548622057  0.47010849027818596  0.16255202643019123  1.0000
  C   C10       1.0  0.8985363403679186  0.6923745986287175  0.16272293868720303  1.0000
  C   C11       1.0  0.8985291508235064  0.3076269096783549  0.837279697880561  1.0000
  C   C12       1.0  0.39837108083874984  0.5298829612767763  0.837440077878071  1.0000
  C   C13       1.0  0.41844666680276527  0.3624715287408051  0.09874766185979673  1.0000
  C   C14       1.0  0.918633437722448  0.736173535911739  0.09883768554227149  1.0000
  C   C15       1.0  0.9186309365627493  0.2638263678582647  0.9011616712193768  1.0000
  C   C16       1.0  0.4184483645004348  0.637520713040985  0.9012482327485857  1.0000
  C   C17       1.0  0.3502337214954848  0.2876611715430927  0.10328565135092299  1.0000
  C   C18       1.0  0.8504968512930303  0.815506835234885  0.10325602847126446  1.0000
  C   C19       1.0  0.8504970453721155  0.18449311128738088  0.8967456465256588  1.0000
  C   C20       1.0  0.35023670836280013  0.7123342902071101  0.8967146631835587  1.0000
  C   C21       1.0  0.2363959049908502  0.7059115899665259  0.09884510129723612  1.0000
  C   C22       1.0  0.7365315576234793  0.39283445926783145  0.09881089206113101  1.0000
  C   C23       1.0  0.7365204618056962  0.6071719106824959  0.9011977389045143  1.0000
  C   C24       1.0  0.2363965140488418  0.2940863082040864  0.9011523838678883  1.0000
  C   C25       1.0  0.2958830484443594  0.6300581650037246  0.1096094278760376  1.0000
  C   C26       1.0  0.7959974059892544  0.47950891820566  0.10970877397180347  1.0000
  C   C27       1.0  0.7959841432299796  0.5204997940630421  0.8902979060498452  1.0000
  C   C28       1.0  0.2958840885245094  0.36993572400216124  0.890383234093022  1.0000
  C   C29       1.0  0.40077207937027737  0.6557410409013189  0.14945953533805323  1.0000
  C   C30       1.0  0.9007968906066992  0.4937406437058485  0.1497740797360194  1.0000
  C   C31       1.0  0.9007874143452951  0.5062624483643107  0.8502279545793667  1.0000
  C   C32       1.0  0.40077291737825493  0.34425438189654073  0.8505357081697796  1.0000
  C   C33       1.0  0.43973626306805613  0.7577213922500903  0.1766545770395779  1.0000
  C   C34       1.0  0.9396395712168156  0.4190406581267609  0.17714033943440904  1.0000
  C   C35       1.0  0.9396255631653431  0.5809624128534807  0.8228618917515077  1.0000
  C   C36       1.0  0.4397380978852182  0.24227481339649873  0.8233458843014745  1.0000
  C   C37       1.0  0.3738461233988133  0.8289154729683476  0.1638995264692298  1.0000
  C   C38       1.0  0.8737941132916519  0.33499745152555965  0.16419995155830236  1.0000
  C   C39       1.0  0.8737831047883233  0.6650032791612404  0.8358035323392343  1.0000
  C   C40       1.0  0.37384833111362775  0.1710839499467554  0.8361047006710649  1.0000
  C   C41       1.0  0.9898841404965992  0.987102816100169  0.7347160823462318  1.0000
  C   C42       1.0  0.48984397213238395  0.7473388101069746  0.7348943563639806  1.0000
  C   C43       1.0  0.48984799496216164  0.2526597414992793  0.26510344071234465  1.0000
  C   C44       1.0  0.9898810258866675  0.012904982564620603  0.2652845624281923  1.0000
  C   C45       1.0  0.9176708173948569  0.9683564994953857  0.6568774310865706  1.0000
  C   C46       1.0  0.417592801681792  0.6883009870643307  0.6571147512421902  1.0000
  C   C47       1.0  0.4175963774261858  0.31169602022261245  0.3428839592160386  1.0000
  C   C48       1.0  0.9176698333117057  0.031649754828841  0.34312412726813324  1.0000
  C   C49       1.0  0.9374365961363793  0.015249215404828898  0.5954744014005868  1.0000
  C   C50       1.0  0.4374295643041889  0.5800518761672677  0.5955907608692782  1.0000
  C   C51       1.0  0.43742995807997426  0.4199467067782052  0.4044081023210565  1.0000
  C   C52       1.0  0.93743802649319  0.9847546391901008  0.4045228505189158  1.0000
  C   C53       1.0  0.03011361270874599  0.07872293863077572  0.6146580961181413  1.0000
  C   C54       1.0  0.5301202762425348  0.5357572657795941  0.6147324643887231  1.0000
  C   C55       1.0  0.5301179323655346  0.46424285038761337  0.38526558901359204  1.0000
  C   C56       1.0  0.03010707485667299  0.9212790498534248  0.3853441340631393  1.0000
  C   C57       1.0  0.09789044101202649  0.09186068160148862  0.6927922924575185  1.0000
  C   C58       1.0  0.5979195981071114  0.6007001363571193  0.6928721310938639  1.0000
  C   C59       1.0  0.5979193353687505  0.3993007326124101  0.3071246273197588  1.0000
  C   C60       1.0  0.09788497634259839  0.9081412600080795  0.3072056199801094  1.0000
  S   S1        1.0  0.06835250797043808  0.1352920313363626  0.016845428314653087  1.0000
  S   S2        1.0  0.5684094467179931  0.8815536980817245  0.016868764406218886  1.0000
  S   S3        1.0  0.5684153928607784  0.118450377034172  0.9831359396096531  1.0000
  S   S4        1.0  0.06835152337482239  0.8647091410102805  0.9831559707583465  1.0000
  S   S5        1.0  0.2770458646126386  0.9444327926355313  0.8610285996693532  1.0000
  S   S6        1.0  0.7770970430169583  0.9166213783593521  0.8610364134583789  1.0000
  S   S7        1.0  0.777099960746689  0.08337781983918552  0.13896719405034466  1.0000
  S   S8        1.0  0.2770464695375523  0.0555658845909335  0.1389727800748659  1.0000
  S   S9        1.0  0.48793860505539743  0.5659415348995581  0.1620702817414781  1.0000
  S   S10       1.0  0.988038088100822  0.596096415749507  0.1624117812412251  1.0000
  S   S11       1.0  0.9880272995207307  0.4039042428317502  0.8375876204386686  1.0000
  S   S12       1.0  0.4879389990512735  0.4340490712092589  0.8379205857189617  1.0000
  S   S13       1.0  0.844954705873114  1.488549259000045e-06  0.5000002185914312  1.0000
  S   S14       1.0  0.34498249738280856  0.4999981242319791  0.49999799283442303  1.0000
  I   I1        1.0  0.07096949115088338  0.28848471679457083  0.33644804158961955  1.0000
  I   I2        1.0  0.5709024632700376  0.04770363451478941  0.33627279230084633  1.0000
  I   I3        1.0  0.5708979130283182  0.9522964638254267  0.6637274655031006  1.0000
  I   I4        1.0  0.07095941863286728  0.7115212306867277  0.6635615180832699  1.0000
  N   N1        1.0  0.26528585707912805  0.31435573368030845  0.16605884641747787  1.0000
  N   N2        1.0  0.7655546170966687  0.8516074327491341  0.1660174090916655  1.0000
  N   N3        1.0  0.7655512483149493  0.14839335526954764  0.8339848602932207  1.0000
  N   N4        1.0  0.2652876652812353  0.6856429499313849  0.8339424737217982  1.0000
  N   N5        1.0  0.27311763242400383  0.8044645952354728  0.1256217520960945  1.0000
  N   N6        1.0  0.7731801850059696  0.3210711562284204  0.12563321455976253  1.0000
  N   N7        1.0  0.773168607574746  0.6789336088323237  0.8743762158703062  1.0000
  N   N8        1.0  0.27311922815734135  0.19553567486921256  0.8743816576275236  1.0000
  N   N9        1.0  0.07837835630829909  0.0483000479112263  0.753538909314443  1.0000
  N   N10       1.0  0.5783935087508851  0.7049929304556529  0.7536413913874539  1.0000
  N   N11       1.0  0.5783956114123753  0.2950095398611836  0.24635731794815285  1.0000
  N   N12       1.0  0.0783746833862153  0.9517034935993041  0.2464602882165537  1.0000
