data_image0
_chemical_formula_structural       Zn2H28C44N2O16
_chemical_formula_sum              "Zn2 H28 C44 N2 O16"
_cell_length_a       13.987451570340234
_cell_length_b       15.263450402243992
_cell_length_c       19.529066576080847
_cell_angle_alpha    90.38934106972461
_cell_angle_beta     89.64722349480583
_cell_angle_gamma    92.17848982748913

_space_group_name_H-M_alt    "P 1"
_space_group_IT_number       1

loop_
  _space_group_symop_operation_xyz
  'x, y, z'

loop_
  _atom_site_type_symbol
  _atom_site_label
  _atom_site_symmetry_multiplicity
  _atom_site_fract_x
  _atom_site_fract_y
  _atom_site_fract_z
  _atom_site_occupancy
  Zn  Zn1       1.0  0.4001099772263998  0.47864971953574553  0.500921117860635  1.0000
  Zn  Zn2       1.0  0.6014725741489146  0.4887545605725379  0.49813679745026457  1.0000
  H   H1        1.0  0.6476839866358901  0.6114222288619044  0.1611716995408656  1.0000
  H   H2        1.0  0.6447400828320939  0.21366797257507386  0.5242750069057465  1.0000
  H   H3        1.0  0.34973565842706483  0.20061651477575282  0.46537425068799365  1.0000
  H   H4        1.0  0.6424490229237633  0.7649626944654814  0.45988166982676404  1.0000
  H   H5        1.0  0.9362613012467664  0.5399078068698487  0.6003278245985868  1.0000
  H   H6        1.0  0.0637378404492637  0.3552444510458698  0.44641957588230946  1.0000
  H   H7        1.0  0.9295217855093796  0.42299878839504146  0.397899040671561  1.0000
  H   H8        1.0  0.0745059566225095  0.6065755913727813  0.5504424705971473  1.0000
  H   H9        1.0  0.7588939565784115  0.5406330797803133  0.5968391667605316  1.0000
  H   H10       1.0  0.2430415363356815  0.3597258611330787  0.44931040915670195  1.0000
  H   H11       1.0  0.751214399806088  0.4269910757635387  0.40346725896133506  1.0000
  H   H12       1.0  0.34810112208028  0.5045321058976739  0.8494924036795694  1.0000
  H   H13       1.0  0.2533829910106249  0.6002995309541177  0.5480946029744871  1.0000
  H   H14       1.0  0.6594479278590982  0.543551748497542  0.333670427996168  1.0000
  H   H15       1.0  0.34712889528938007  0.45386952875050207  0.6724409779838965  1.0000
  H   H16       1.0  0.6371834729377354  0.5716303482816514  0.6552352534593382  1.0000
  H   H17       1.0  0.3520770086320582  0.47977930097572147  0.3301389521968899  1.0000
  H   H18       1.0  0.3544036893701518  0.6404077083643144  0.1172446572133126  1.0000
  H   H19       1.0  0.6924739493826165  0.4849475737071102  0.9584944677410974  1.0000
  H   H20       1.0  0.30145924269331187  0.6634099181657404  0.967690211645383  1.0000
  H   H21       1.0  0.6491621286174408  0.5007014713927447  0.1081524175777275  1.0000
  H   H22       1.0  0.6327350638125253  0.6244218126326402  0.8313259143007982  1.0000
  H   H23       1.0  0.3528792134032841  0.5113498056601814  0.1509344510411097  1.0000
  H   H24       1.0  0.35478075121147157  0.9192648380974474  0.5384744200265955  1.0000
  H   H25       1.0  0.6456070086951513  0.05041508709264521  0.527428540600063  1.0000
  H   H26       1.0  0.3503567907685153  0.037410810474810305  0.46483451200140274  1.0000
  H   H27       1.0  0.6420792086967994  0.9282499491054352  0.4568801010439927  1.0000
  H   H28       1.0  0.3551255773349737  0.7561004051783868  0.5378525275920153  1.0000
  C   C1        1.0  0.5006151186725702  0.6532823770448387  0.4989472899092248  1.0000
  C   C2        1.0  0.4979955756578391  0.0321733666429367  0.49631970452730906  1.0000
  C   C3        1.0  0.8985909533149438  0.5154649866522476  0.5550102858685689  1.0000
  C   C4        1.0  0.10268518441692011  0.4114069136371228  0.4689052397150776  1.0000
  C   C5        1.0  0.8945906159856277  0.4486657663132974  0.4434239928456947  1.0000
  C   C6        1.0  0.10867954514573343  0.5501990572118629  0.5278077139589143  1.0000
  C   C7        1.0  0.7993651084388064  0.5157456605846491  0.5535822802498059  1.0000
  C   C8        1.0  0.20200619392571184  0.41307228810441643  0.4703690752027824  1.0000
  C   C9        1.0  0.795467092470041  0.4513910241667389  0.4457691700530332  1.0000
  C   C10       1.0  0.2077914626831188  0.5475815531103122  0.5266902732949674  1.0000
  C   C11       1.0  0.9484493267056635  0.4816921489777286  0.4988472860328271  1.0000
  C   C12       1.0  0.4951504993154359  0.31464260177287423  0.4949613504659495  1.0000
  C   C13       1.0  0.05391031309661539  0.48103830353794313  0.4983611485924371  1.0000
  C   C14       1.0  0.4961707690609671  0.49979581042365595  0.6355994778725175  1.0000
  C   C15       1.0  0.5074177474368327  0.4989621297855252  0.36036935605258685  1.0000
  C   C16       1.0  0.5881500402911328  0.5559767518990594  0.2532802153433025  1.0000
  C   C17       1.0  0.4105457836937135  0.5042620317959107  0.7490097061924388  1.0000
  C   C18       1.0  0.5718305124093632  0.5713031802223726  0.7391716598110492  1.0000
  C   C19       1.0  0.4182025826342368  0.5130308012400278  0.2498303871871315  1.0000
  C   C20       1.0  0.5849122449788097  0.5784059058144421  0.1839926239018794  1.0000
  C   C21       1.0  0.41041090615045317  0.5239814474743839  0.8188115899888542  1.0000
  C   C22       1.0  0.5702667570517334  0.5913198360257467  0.8087177847214874  1.0000
  C   C23       1.0  0.4175814520887542  0.7946034746703674  0.5202146665172336  1.0000
  C   C24       1.0  0.4174213154038143  0.5297817762838691  0.17943962508380198  1.0000
  C   C25       1.0  0.50063921105059  0.5621596037501105  0.14597514388816527  1.0000
  C   C26       1.0  0.4911199763585188  0.5652185908110783  0.8489957004386781  1.0000
  C   C27       1.0  0.5046656492743367  0.5226238215905781  0.2877191836296902  1.0000
  C   C28       1.0  0.492702862490887  0.5253257860742836  0.7075824044194263  1.0000
  C   C29       1.0  0.42392152718169746  0.6079080127818629  0.035499760268713494  1.0000
  C   C30       1.0  0.5750174150492597  0.5427565322913283  0.9595975591431978  1.0000
  C   C31       1.0  0.4210172487489601  0.6083037531226553  0.963836984489738  1.0000
  C   C32       1.0  0.5772327148721955  0.5417764202794757  0.0312450816131289  1.0000
  C   C33       1.0  0.49594456034211726  0.5744301112163156  0.9244367057657215  1.0000
  C   C34       1.0  0.5807794364711113  0.1741973951800162  0.511254259463513  1.0000
  C   C35       1.0  0.5011772382702091  0.5731077443232876  0.07093920523375627  1.0000
  C   C36       1.0  0.41746165995876794  0.885714844199889  0.5198511432530211  1.0000
  C   C37       1.0  0.5810079123202812  0.08307924582800302  0.5123625436617942  1.0000
  C   C38       1.0  0.4146695810843042  0.07575337269866368  0.4791237603504327  1.0000
  C   C39       1.0  0.5795325767758046  0.890877364388075  0.4758895202540856  1.0000
  C   C40       1.0  0.41416655987776346  0.1667735230830516  0.47863241192892747  1.0000
  C   C41       1.0  0.5800038962791446  0.799891943714094  0.47683370536801567  1.0000
  C   C42       1.0  0.4989137715712601  0.7508852305328658  0.49880317641221683  1.0000
  C   C43       1.0  0.4971326592189484  0.21695053582558194  0.4946677322777759  1.0000
  C   C44       1.0  0.49831951083785964  0.9354900706778366  0.4974240161282069  1.0000
  N   N1        1.0  0.7484478722381381  0.48482532462807637  0.49976686603739745  1.0000
  N   N2        1.0  0.2535710347176874  0.48003352944544275  0.4986034702592192  1.0000
  O   O1        1.0  0.4216505066710425  0.6103986868783265  0.5100705310644926  1.0000
  O   O2        1.0  0.3319656056269907  0.462574542674318  0.7221454193170516  1.0000
  O   O3        1.0  0.6505920606837633  0.5961672688878751  0.7021336798827987  1.0000
  O   O4        1.0  0.3360895411696134  0.4842305502985981  0.2800739067229827  1.0000
  O   O5        1.0  0.34695954764296744  0.6454664586640035  0.06769463206656919  1.0000
  O   O6        1.0  0.6490880962533653  0.5069400977549208  0.9240611661438366  1.0000
  O   O7        1.0  0.34427615215290797  0.6431528837325614  0.9316592513211787  1.0000
  O   O8        1.0  0.65554058710007  0.5018154026336816  0.05809992611868609  1.0000
  O   O9        1.0  0.5746306602703157  0.357834190018302  0.5015514227496991  1.0000
  O   O10       1.0  0.4136377936257105  0.3484164183728993  0.48882369578151946  1.0000
  O   O11       1.0  0.580872873624898  0.6192088508256647  0.4876187694409991  1.0000
  O   O12       1.0  0.4205747922156391  0.46606803630981375  0.6065364941724809  1.0000
  O   O13       1.0  0.5893814859699728  0.49139122760202275  0.3890322448827561  1.0000
  O   O14       1.0  0.4275852855604826  0.48682515125540954  0.3927431895661897  1.0000
  O   O15       1.0  0.575754023396698  0.5116652607492398  0.6020375463336192  1.0000
  O   O16       1.0  0.6718311071339543  0.5681929915858318  0.2866908129706616  1.0000
