data_image0
_chemical_formula_structural       Zn2H12C26N2Cl4O8
_chemical_formula_sum              "Zn2 H12 C26 N2 Cl4 O8"
_cell_length_a       9.83375045716378
_cell_length_b       11.233878257634368
_cell_length_c       15.332285041962878
_cell_angle_alpha    90.70830780268692
_cell_angle_beta     102.68919737322912
_cell_angle_gamma    94.33620404231685

_space_group_name_H-M_alt    "P 1"
_space_group_IT_number       1

loop_
  _space_group_symop_operation_xyz
  'x, y, z'

loop_
  _atom_site_type_symbol
  _atom_site_label
  _atom_site_symmetry_multiplicity
  _atom_site_fract_x
  _atom_site_fract_y
  _atom_site_fract_z
  _atom_site_occupancy
  Zn  Zn1       1.0  0.6386388153012631  0.48639241896981367  0.5242411427287551  1.0000
  Zn  Zn2       1.0  0.36178455020036177  0.5136499388848891  0.48036011865347933  1.0000
  H   H1        1.0  0.28572941392758366  0.4962643033878961  0.19708495126501197  1.0000
  H   H2        1.0  0.2975854441426761  0.10352868792390521  0.4817936702235955  1.0000
  H   H3        1.0  0.8684777427867869  0.5618776166655053  0.44766565814825304  1.0000
  H   H4        1.0  0.130809902570256  0.43670228547996714  0.5543345128557178  1.0000
  H   H5        1.0  0.7139781249365666  0.5046199903283579  0.8075113573533487  1.0000
  H   H6        1.0  0.7327826968024309  0.4997080467162149  0.25321191040386287  1.0000
  H   H7        1.0  0.26687152948709064  0.49984154291905003  0.7511641265359899  1.0000
  H   H8        1.0  0.8506086700304892  0.5064880660588071  0.9637301071221531  1.0000
  H   H9        1.0  0.148890046914488  0.49343829536145006  0.040687273964870506  1.0000
  H   H10       1.0  0.38148936033277886  0.8958759435279762  0.49412166959430703  1.0000
  H   H11       1.0  0.619120908273963  0.10430472822949348  0.5215145984146263  1.0000
  H   H12       1.0  0.702872633253463  0.8966333192779745  0.530207616835277  1.0000
  C   C1        1.0  0.4346225344765883  0.26950608324104053  0.4954903681216934  1.0000
  C   C2        1.0  0.9265909237446406  0.5059811432037976  0.4985160808111361  1.0000
  C   C3        1.0  0.48842286869555807  0.5023522377103475  0.6726291126201078  1.0000
  C   C4        1.0  0.5114995724356106  0.4979587142953649  0.3319302624610217  1.0000
  C   C5        1.0  0.381467036485965  0.49735488825326957  0.17224373589868242  1.0000
  C   C6        1.0  0.6182017366145941  0.5033396078013013  0.8323004653224687  1.0000
  C   C7        1.0  0.5095020418946204  0.4982921502096218  0.23376443654429838  1.0000
  C   C8        1.0  0.49020667106627497  0.5021894181459744  0.7707529682353711  1.0000
  C   C9        1.0  0.6343502123136772  0.49959887243384327  0.20412164146544143  1.0000
  C   C10       1.0  0.36526923509927656  0.5003293435744993  0.8003276998060259  1.0000
  C   C11       1.0  0.6336668942496572  0.5008872220561998  0.11261200144991791  1.0000
  C   C12       1.0  0.5657805759940331  0.7305436177272  0.5127374597503476  1.0000
  C   C13       1.0  0.3659110770748342  0.49894481308456323  0.8918551887776547  1.0000
  C   C14       1.0  0.5026550799615704  0.49955658953682297  0.04896528031819971  1.0000
  C   C15       1.0  0.49691161991022165  0.5003823591114268  0.9555604319707316  1.0000
  C   C16       1.0  0.3757649447957974  0.497398429881322  0.08012823532411772  1.0000
  C   C17       1.0  0.6238024899487369  0.5028360950254296  0.9243932064053129  1.0000
  C   C18       1.0  0.7585673344163765  0.5034108871168286  0.07769820402973694  1.0000
  C   C19       1.0  0.24095161128775547  0.4961912302257192  0.9267193786575592  1.0000
  C   C20       1.0  0.7543821765018349  0.504463437633845  0.988139828816685  1.0000
  C   C21       1.0  0.24517919663612278  0.49547935813929206  0.0163252145914328  1.0000
  C   C22       1.0  0.40714496978038983  0.13808948351321956  0.4948288728387667  1.0000
  C   C23       1.0  0.5933400591661382  0.8620805435798712  0.5175203053873363  1.0000
  C   C24       1.0  0.5115294957003655  0.06410585718636239  0.5087386045556173  1.0000
  C   C25       1.0  0.489059017812032  0.9360823844922591  0.5064180454009988  1.0000
  C   C26       1.0  0.0731482291424825  0.49324384046880726  0.5037750602147926  1.0000
  N   N1        1.0  0.14937802609329504  0.5440572668062841  0.4539612384950687  1.0000
  N   N2        1.0  0.8509902830814368  0.4557974002473486  0.5489814780923157  1.0000
  Cl  Cl1       1.0  0.9200460320538113  0.5052977860968042  0.15220702209504827  1.0000
  Cl  Cl2       1.0  0.0795044137014003  0.49384162822859423  0.8521246751286854  1.0000
  Cl  Cl3       1.0  0.9236525954081781  0.36491772564264824  0.6314643158892111  1.0000
  Cl  Cl4       1.0  0.0777698673866638  0.6360934403514236  0.3720353556767579  1.0000
  O   O1        1.0  0.5619802466189014  0.3125165198025996  0.5111343162619877  1.0000
  O   O2        1.0  0.4384642747629498  0.6874004242521892  0.49687482854106  1.0000
  O   O3        1.0  0.3276451964541706  0.33058602440922147  0.47992639990947344  1.0000
  O   O4        1.0  0.6726776179985521  0.6694394491634271  0.5248338934821676  1.0000
  O   O5        1.0  0.6059071883504074  0.49681991706465567  0.6511138051333492  1.0000
  O   O6        1.0  0.3944084786289109  0.5054216687207997  0.3535864589790024  1.0000
  O   O7        1.0  0.3709053688646975  0.5079505536285467  0.6181956335121371  1.0000
  O   O8        1.0  0.6286680434260531  0.4902276947696436  0.38629646807942214  1.0000
