data_image0
_chemical_formula_structural       Zn2H28C40N4O16
_chemical_formula_sum              "Zn2 H28 C40 N4 O16"
_cell_length_a       9.894047448852902
_cell_length_b       10.889858091038153
_cell_length_c       23.62897147361971
_cell_angle_alpha    91.44903599333651
_cell_angle_beta     88.74664776283689
_cell_angle_gamma    91.84334306047472

_space_group_name_H-M_alt    "P 1"
_space_group_IT_number       1

loop_
  _space_group_symop_operation_xyz
  'x, y, z'

loop_
  _atom_site_type_symbol
  _atom_site_label
  _atom_site_symmetry_multiplicity
  _atom_site_fract_x
  _atom_site_fract_y
  _atom_site_fract_z
  _atom_site_occupancy
  Zn  Zn1       1.0  0.6496346689769511  0.4827336172347855  0.49243748092791845  1.0000
  Zn  Zn2       1.0  0.36932842036928554  0.48535386214790316  0.5126556707119858  1.0000
  H   H1        1.0  0.7154684459716166  0.7340286259841664  0.9487427351968518  1.0000
  H   H2        1.0  0.7547856549766223  0.4066262006070146  0.6792228961238465  1.0000
  H   H3        1.0  0.3316579532896924  0.4815452658528017  0.6834157793415867  1.0000
  H   H4        1.0  0.3326317170571613  0.490411205383232  0.7896463240955851  1.0000
  H   H5        1.0  0.5541994961718402  0.06410472782383181  0.4610167345778037  1.0000
  H   H6        1.0  0.31788079434070954  0.8687825792577472  0.5403973453024731  1.0000
  H   H7        1.0  0.6221266934965186  0.8974865006812608  0.5120141195518142  1.0000
  H   H8        1.0  0.8568781996092624  0.4131223999609475  0.5663056948140974  1.0000
  H   H9        1.0  0.9171379609349515  0.5132982546703033  0.45498813943800076  1.0000
  H   H10       1.0  0.682092606439106  0.7578489067951324  0.05473403581481048  1.0000
  H   H11       1.0  0.5696999517962097  0.35694842815178157  0.2159100416754994  1.0000
  H   H12       1.0  0.574339220431085  0.3674901766420788  0.3216191350010717  1.0000
  H   H13       1.0  0.3380510375999819  0.6845677226013435  0.21826833661401673  1.0000
  H   H14       1.0  0.7554629479901677  0.40920688611028305  0.7852966779542069  1.0000
  H   H15       1.0  0.3916006628069725  0.02296066045034449  0.6427297480175438  1.0000
  H   H16       1.0  0.46767729827900695  0.16909309057443517  0.6284887021405863  1.0000
  H   H17       1.0  0.3032468940671151  0.15953038368060393  0.6596759487217267  1.0000
  H   H18       1.0  0.2891194197993485  0.20627189383768746  0.5567555556698947  1.0000
  H   H19       1.0  0.2140277320468158  0.059525231383744895  0.5700664580382053  1.0000
  H   H20       1.0  0.034151968487215405  0.38209840769559383  0.6118970717503129  1.0000
  H   H21       1.0  0.20981562165463433  0.5351502475447134  0.42983106772189206  1.0000
  H   H22       1.0  0.27087532316463125  0.25245174664095066  0.10123907697487056  1.0000
  H   H23       1.0  0.3337125859237133  0.20689012660302816  0.904457625424129  1.0000
  H   H24       1.0  0.4901489191804842  0.7828521514333673  0.385699814669884  1.0000
  H   H25       1.0  0.4929658493545972  0.8579393637011133  0.31975198326967547  1.0000
  H   H26       1.0  0.37550412371211916  0.9013777077574473  0.37436683943209187  1.0000
  H   H27       1.0  0.25727685937611267  0.7725147525029141  0.30059708382076866  1.0000
  H   H28       1.0  0.25585678866684713  0.6965245621628285  0.3656789590500295  1.0000
  C   C1        1.0  0.5184912516138596  0.7180000558286395  0.5197084346541273  1.0000
  C   C2        1.0  0.6534848162011925  0.6680745583201997  0.9726226615295129  1.0000
  C   C3        1.0  0.63486723121229  0.6813553852029203  0.031090498812368094  1.0000
  C   C4        1.0  0.5545386227912132  0.5956137792246069  0.060894531365100577  1.0000
  C   C5        1.0  0.49174274329242  0.4952663489215396  0.031962511452874785  1.0000
  C   C6        1.0  0.40963078712088935  0.4075221395429693  0.06149434857300658  1.0000
  C   C7        1.0  0.3467723596973117  0.30732501165658027  0.03300028966135219  1.0000
  C   C8        1.0  0.3665959246847237  0.29314434229749503  0.9723566514805312  1.0000
  C   C9        1.0  0.5384033574952484  0.6097014692054757  0.12301124792575276  1.0000
  C   C10       1.0  0.3908726810355176  0.4193398450740703  0.12259406153748385  1.0000
  C   C11       1.0  0.5193838950362418  0.4299430401150063  0.23973448484549204  1.0000
  C   C12       1.0  0.4694959096255005  0.5259489525955844  0.3921765023461389  1.0000
  C   C13       1.0  0.5211956623156624  0.43568822626535564  0.29842512903339713  1.0000
  C   C14       1.0  0.45598292656602984  0.5293032490773443  0.32917907774166366  1.0000
  C   C15       1.0  0.38701397879088273  0.620279853013038  0.300764252564221  1.0000
  C   C16       1.0  0.3876022112997576  0.6138491199488314  0.24140178706220172  1.0000
  C   C17       1.0  0.4528208732728985  0.5203873418068669  0.21157194735636142  1.0000
  C   C18       1.0  0.6630701575860982  0.42517515032788117  0.7627157235460016  1.0000
  C   C19       1.0  0.6622890618833213  0.423687892647486  0.7036838980380221  1.0000
  C   C20       1.0  0.5427947568780737  0.44387627007487407  0.6751120011565488  1.0000
  C   C21       1.0  0.4236570876768511  0.46623987638706416  0.7063487882405539  1.0000
  C   C22       1.0  0.42435538758341806  0.47074321329317576  0.7651169332048225  1.0000
  C   C23       1.0  0.4959737807830324  0.25041287437013443  0.485317705563851  1.0000
  C   C24       1.0  0.5439739635589758  0.44960530379557184  0.7929883349523124  1.0000
  C   C25       1.0  0.40448644072635875  0.05300781519445509  0.526300199992967  1.0000
  C   C26       1.0  0.48446145041256744  0.11476434338700162  0.4886377075503673  1.0000
  C   C27       1.0  0.4115313385854336  0.9195648044920546  0.5291429585763295  1.0000
  C   C28       1.0  0.5232695745398246  0.853731932464285  0.5203473504096721  1.0000
  C   C29       1.0  0.9193751935124653  0.44582346977122705  0.5303006282915489  1.0000
  C   C30       1.0  0.0656065050382182  0.44682258753988435  0.5378517239493164  1.0000
  C   C31       1.0  0.5379167983018647  0.4456995536315915  0.6116504022647715  1.0000
  C   C32       1.0  0.46382309159158547  0.36628641422565517  0.8823326896319796  1.0000
  C   C33       1.0  0.6110628903528409  0.557094165644628  0.8811193036353442  1.0000
  C   C34       1.0  0.5920579905703107  0.5687690646039769  0.9431577469658304  1.0000
  C   C35       1.0  0.5107881380855588  0.4816406440891754  0.9724723258533597  1.0000
  C   C36       1.0  0.4475544237293363  0.3802376083721697  0.9433962846774119  1.0000
  C   C37       1.0  0.310675031443246  0.1128854765069534  0.5691660769219167  1.0000
  C   C38       1.0  0.3715203426174227  0.11581807676319758  0.6285152487434826  1.0000
  C   C39       1.0  0.32211789243024225  0.7282717677754392  0.3307784772942241  1.0000
  C   C40       1.0  0.4263841664410037  0.8231367129588989  0.35398893483424826  1.0000
  N   N1        1.0  0.5414466923860459  0.4555472998457262  0.8540957318471668  1.0000
  N   N2        1.0  0.4571653229842738  0.5172440306940943  0.15041525335555406  1.0000
  N   N3        1.0  0.8556929321191405  0.4821084063779396  0.4874225628903942  1.0000
  N   N4        1.0  0.1599956565649805  0.4821068999924023  0.5023231681624337  1.0000
  O   O1        1.0  0.628210996459643  0.6658337779375073  0.5050116889044104  1.0000
  O   O2        1.0  0.6802212461435104  0.6293794746416451  0.8528559829670567  1.0000
  O   O3        1.0  0.5918700780791681  0.6937738279626161  0.15085567079171366  1.0000
  O   O4        1.0  0.31851775080857436  0.34354150203812855  0.1498573147278535  1.0000
  O   O5        1.0  0.40653727025520686  0.6626665603248868  0.5326050881894203  1.0000
  O   O6        1.0  0.584822533632817  0.5003416395792398  0.40982676465790735  1.0000
  O   O7        1.0  0.3664455352995333  0.5458771505007219  0.4247563183141592  1.0000
  O   O8        1.0  0.6159867231826013  0.2968815430216836  0.4856522128923472  1.0000
  O   O9        1.0  0.3880930275831105  0.31114405943171874  0.4828451009894578  1.0000
  O   O10       1.0  0.6480944252907506  0.45975651394608263  0.5834100167541079  1.0000
  O   O11       1.0  0.420034408297674  0.434415795399559  0.5910413407655211  1.0000
  O   O12       1.0  0.4093540940911782  0.27776843368824433  0.855300990307171  1.0000
  O   O13       1.0  0.11078726106153172  0.40863922035241285  0.5881847706060696  1.0000
  O   O14       1.0  0.11885938967434127  0.5200514008138484  0.4507647309176689  1.0000
  O   O15       1.0  0.26957627671527723  0.2239567432950409  0.059392418887689785  1.0000
  O   O16       1.0  0.30613906239970146  0.1976527461587878  0.946349452895177  1.0000
