data_image0
_chemical_formula_structural       Zn2H28C26N2O8
_chemical_formula_sum              "Zn2 H28 C26 N2 O8"
_cell_length_a       9.72164305540128
_cell_length_b       11.080121172009175
_cell_length_c       11.021127624470818
_cell_angle_alpha    87.832898559951
_cell_angle_beta     92.90615510158824
_cell_angle_gamma    110.74683969239145

_space_group_name_H-M_alt    "P 1"
_space_group_IT_number       1

loop_
  _space_group_symop_operation_xyz
  'x, y, z'

loop_
  _atom_site_type_symbol
  _atom_site_label
  _atom_site_symmetry_multiplicity
  _atom_site_fract_x
  _atom_site_fract_y
  _atom_site_fract_z
  _atom_site_occupancy
  Zn  Zn1       1.0  0.6533633608785507  0.5182622602545947  0.5027586830426003  1.0000
  Zn  Zn2       1.0  0.3478069778293502  0.480129628873925  0.4882048828170937  1.0000
  H   H1        1.0  0.3849494289601623  0.8573877950492416  0.500400212097972  1.0000
  H   H2        1.0  0.8345998120026437  0.9248687713581984  0.46324305975095825  1.0000
  H   H3        1.0  0.7773368635792295  0.05605984035856439  0.42110619663925764  1.0000
  H   H4        1.0  0.2791218645885892  0.9806594200882232  0.7053449718600859  1.0000
  H   H5        1.0  0.22370216148032546  0.11694751975473851  0.6837990880643403  1.0000
  H   H6        1.0  0.09077073359893016  0.9587699703815319  0.6702896541519507  1.0000
  H   H7        1.0  0.15737828144311555  0.06129993937170751  0.4645910022601285  1.0000
  H   H8        1.0  0.21081614076985747  0.9243547136122032  0.4845371857993896  1.0000
  H   H9        1.0  0.07287195870530647  0.5821386144117044  0.8397534979754794  1.0000
  H   H10       1.0  0.1672322740175148  0.7355963295462972  0.7712903596199254  1.0000
  H   H11       1.0  0.022479138097793238  0.7166521134955772  0.8699315120067438  1.0000
  H   H12       1.0  0.6108953845497496  0.13826294696675484  0.4689833889318038  1.0000
  H   H13       1.0  0.930802182054002  0.72422058565585  0.6537060897785664  1.0000
  H   H14       1.0  0.8350575186300591  0.5784641989184395  0.7263530592542011  1.0000
  H   H15       1.0  0.9237107647165674  0.4371706600597918  0.1593453135767291  1.0000
  H   H16       1.0  0.11200129620030452  0.5357724034902275  0.1777119400300222  1.0000
  H   H17       1.0  0.0616303461813814  0.3885117985792874  0.0985459989904598  1.0000
  H   H18       1.0  0.15875203661903473  0.3558005874755708  0.30437352561417436  1.0000
  H   H19       1.0  0.9677355778367343  0.26487128761070977  0.2936670388898648  1.0000
  H   H20       1.0  0.31044702053065987  0.5511892382718102  0.8729696353076691  1.0000
  H   H21       1.0  0.7005102182156477  0.449290231605687  0.1179821467994202  1.0000
  H   H22       1.0  0.2017157553338507  0.5873975634130488  0.6437665707029936  1.0000
  H   H23       1.0  0.7962237089522545  0.40329055200967184  0.35300017573054987  1.0000
  H   H24       1.0  0.328646094642025  0.572717446111554  0.0996244590716628  1.0000
  H   H25       1.0  0.6827530532523411  0.4276440440853762  0.8912682557893348  1.0000
  H   H26       1.0  0.7657081997209688  0.10103194851434691  0.6427316033170881  1.0000
  H   H27       1.0  0.8253398670598674  0.9707498228747299  0.6846509587944496  1.0000
  H   H28       1.0  0.9452042782018214  0.10836673975084209  0.6065802587624418  1.0000
  C   C1        1.0  0.5205012124394559  0.5188068890516889  0.2578906147164446  1.0000
  C   C2        1.0  0.6101766145681964  0.8913046332626703  0.49620525876534327  1.0000
  C   C3        1.0  0.5030790759986985  0.06419282575927811  0.4825741731446058  1.0000
  C   C4        1.0  0.493431689558534  0.9323153454546398  0.49315849444188586  1.0000
  C   C5        1.0  0.40505391798259893  0.5403920135773745  0.0530570440363718  1.0000
  C   C6        1.0  0.6059260700820346  0.45982010210109064  0.9377292100787359  1.0000
  C   C7        1.0  0.3951402001936515  0.528569365996148  0.927514837138112  1.0000
  C   C8        1.0  0.6155937774403313  0.47163112008836794  0.0634333511168279  1.0000
  C   C9        1.0  0.49528519579076413  0.4879477709985808  0.8688784453498853  1.0000
  C   C10       1.0  0.5147395893435345  0.5112992106533552  0.12212961722687511  1.0000
  C   C11       1.0  0.7681228866375067  0.9803316836244277  0.49121833311011903  1.0000
  C   C12       1.0  0.48616617163961007  0.4787323532062897  0.7332717828855237  1.0000
  C   C13       1.0  0.829921764663908  0.0440655071232712  0.6134026177843594  1.0000
  C   C14       1.0  0.23346946851761172  0.022865702313438898  0.5157156275967621  1.0000
  C   C15       1.0  0.20487982361002113  0.0193605202099079  0.6519906867466858  1.0000
  C   C16       1.0  0.9446385072420328  0.6361098113939506  0.6935430327608998  1.0000
  C   C17       1.0  0.05893394164921523  0.6693792632760774  0.7988133365833575  1.0000
  C   C18       1.0  0.049496707361626605  0.3637017053828373  0.2950562663485528  1.0000
  C   C19       1.0  0.03540523474968178  0.43536256696086884  0.1755864615365397  1.0000
  C   C20       1.0  0.4224193200068386  0.24974924991651187  0.48121862344918753  1.0000
  C   C21       1.0  0.5773225842942724  0.7488571323118478  0.5073540570870065  1.0000
  C   C22       1.0  0.10966050273357546  0.5482580503499433  0.5788717587646914  1.0000
  C   C23       1.0  0.8888814180264645  0.44512083305589556  0.4169834709556426  1.0000
  C   C24       1.0  0.9747785722790708  0.5637799366442948  0.5919716829588992  1.0000
  C   C25       1.0  0.024957142356541274  0.4312959943718865  0.40276463594348394  1.0000
  C   C26       1.0  0.38871437013762034  0.10706595182567467  0.4899468219460132  1.0000
  N   N1        1.0  0.864953024811399  0.5102685594740848  0.5082699619585327  1.0000
  N   N2        1.0  0.13430672153448603  0.484141481241501  0.4858737815577143  1.0000
  O   O1        1.0  0.6437987731294897  0.537145918504997  0.3136428696286302  1.0000
  O   O2        1.0  0.36544918526055886  0.47194736679915655  0.6785479111417132  1.0000
  O   O3        1.0  0.39933530809875617  0.5045076954528582  0.3066810976576591  1.0000
  O   O4        1.0  0.6019757815285516  0.4798865005579033  0.6827325689040435  1.0000
  O   O5        1.0  0.5563641490477949  0.3231375481127188  0.47210025930564836  1.0000
  O   O6        1.0  0.4423012997362932  0.6755467583001503  0.5059283399312875  1.0000
  O   O7        1.0  0.3132418895017892  0.28852159867552263  0.48465587747003974  1.0000
  O   O8        1.0  0.6866476401846742  0.7096744034912205  0.516486532727832  1.0000
