data_image0
_chemical_formula_structural       Hg2H22C20N4Cl2O10
_chemical_formula_sum              "Hg2 H22 C20 N4 Cl2 O10"
_cell_length_a       8.531172238705082
_cell_length_b       9.088993769704167
_cell_length_c       9.782076129028203
_cell_angle_alpha    86.31651352528354
_cell_angle_beta     70.0900415705064
_cell_angle_gamma    66.45392766432124

_space_group_name_H-M_alt    "P 1"
_space_group_IT_number       1

loop_
  _space_group_symop_operation_xyz
  'x, y, z'

loop_
  _atom_site_type_symbol
  _atom_site_label
  _atom_site_symmetry_multiplicity
  _atom_site_fract_x
  _atom_site_fract_y
  _atom_site_fract_z
  _atom_site_occupancy
  Hg  Hg1       1.0  0.42205659876511004  0.7276345639546375  0.5969804561570695  1.0000
  Hg  Hg2       1.0  0.5779427208370223  0.2723666919673419  0.4030189891946917  1.0000
  H   H1        1.0  0.2782279436266961  0.22039094327301706  0.2968317174705675  1.0000
  H   H2        1.0  0.7217726215261422  0.7796103150366561  0.7031673488494334  1.0000
  H   H3        1.0  0.7581327760343586  0.9017555295624432  0.10589846523690472  1.0000
  H   H4        1.0  0.24186616879278944  0.09824936862541726  0.8941049368500487  1.0000
  H   H5        1.0  0.055658770135863796  0.6539185438517732  0.044615571028671794  1.0000
  H   H6        1.0  0.9443419551110924  0.34608513894578846  0.9553853271129  1.0000
  H   H7        1.0  0.8258826509804037  0.4893873327104714  0.457816331281208  1.0000
  H   H8        1.0  0.17411722706841465  0.5106127256171645  0.5421840476177877  1.0000
  H   H9        1.0  0.4796076413947433  0.4187088584739838  0.8458144664549961  1.0000
  H   H10       1.0  0.520393474345589  0.5812911955134508  0.154184513925287  1.0000
  H   H11       1.0  0.7897070165518659  0.13408660659646898  0.9592535543446842  1.0000
  H   H12       1.0  0.2102891091264356  0.8659134311123606  0.04074592267568272  1.0000
  H   H13       1.0  0.6907516678775705  0.03110449045426828  0.8876161783823235  1.0000
  H   H14       1.0  0.3092450241066162  0.9688943563880837  0.11238525167222943  1.0000
  H   H15       1.0  0.5518039751030628  0.22488440699659404  0.9850134387869359  1.0000
  H   H16       1.0  0.448194633817458  0.7751156287597282  0.014984260682965152  1.0000
  H   H17       1.0  0.9217984120583438  0.21260806367188673  0.5683719235016794  1.0000
  H   H18       1.0  0.07820170424892599  0.7873859480856137  0.4316257253014015  1.0000
  H   H19       1.0  0.899191312891723  0.027289673145162393  0.6186258001619508  1.0000
  H   H20       1.0  0.10080884271152989  0.9727043722517192  0.3813769460758749  1.0000
  H   H21       1.0  0.010422828254441211  0.10216292271088177  0.702797874219037  1.0000
  H   H22       1.0  0.9895763548311578  0.8978359289068434  0.29720279777200165  1.0000
  C   C1        1.0  0.6393069475613159  0.8219374143251272  0.31002531816384493  1.0000
  C   C2        1.0  0.36069487886062757  0.17806385982797926  0.6899754080982986  1.0000
  C   C3        1.0  0.7801144482208074  0.8065496391995945  0.1792270486711658  1.0000
  C   C4        1.0  0.2198869798485603  0.1934552570357582  0.8207745758653219  1.0000
  C   C5        1.0  0.9433711883839567  0.6711775976093857  0.14674096230343267  1.0000
  C   C6        1.0  0.05662831488987762  0.3288261029841236  0.8532633733307478  1.0000
  C   C7        1.0  0.9646865046973758  0.5558090003659188  0.2476618412711602  1.0000
  C   C8        1.0  0.035313373351442655  0.44419105796171704  0.7523385376278354  1.0000
  C   C9        1.0  0.8185569230474596  0.5768769369658315  0.37653948598129017  1.0000
  C   C10       1.0  0.18144543824357845  0.42312311940928976  0.6234591153672397  1.0000
  C   C11       1.0  0.4611086300809863  0.9701851662665313  0.35089344555463936  1.0000
  C   C12       1.0  0.5388906895211462  0.02981608965545489  0.649105999797122  1.0000
  C   C13       1.0  0.1415322109993369  0.41130233155283236  0.2139537661183155  1.0000
  C   C14       1.0  0.8584695918450151  0.5886989224166398  0.7860439016829801  1.0000
  C   C15       1.0  0.6049450108392663  0.3633537044252434  0.7503395673702115  1.0000
  C   C16       1.0  0.39505596838453977  0.6366439452579371  0.24966063964934898  1.0000
  C   C17       1.0  0.6871351961188807  0.14991788520690358  0.9093434320274199  1.0000
  C   C18       1.0  0.3128621672509269  0.850082148161732  0.0906546464742348  1.0000
  C   C19       1.0  0.8998895601613272  0.13705970111131893  0.6584914102390511  1.0000
  C   C20       1.0  0.10011140334408003  0.8629379351161077  0.3415067578066058  1.0000
  N   N1        1.0  0.6600139622555545  0.7058896639023473  0.40429895411728006  1.0000
  N   N2        1.0  0.33998661075648334  0.29411160113519935  0.5957011316896652  1.0000
  N   N3        1.0  0.7265639983116543  0.22491525062670795  0.7726318420301012  1.0000
  N   N4        1.0  0.27343751578123954  0.7750811812784943  0.22736624007584536  1.0000
  Cl  Cl1       1.0  0.16548180348429756  0.7579267808605434  0.7998119595515193  1.0000
  Cl  Cl2       1.0  0.8345190156453839  0.24206844433474115  0.20018641564646328  1.0000
  O   O1        1.0  0.3324651606679086  0.9762893237243869  0.4655537731999714  1.0000
  O   O2        1.0  0.6675345572867927  0.02370831011535299  0.534444773877446  1.0000
  O   O3        1.0  0.45767873251278246  0.08127237315745357  0.26354088557251737  1.0000
  O   O4        1.0  0.542321145536036  0.918727685170175  0.7364594933264783  1.0000
  O   O5        1.0  0.15206571883506828  0.3204533515470231  0.3245716221142629  1.0000
  O   O6        1.0  0.8479353969052638  0.6795467024404188  0.6754273582660275  1.0000
  O   O7        1.0  0.26182843944182826  0.3854269789353849  0.09321866694868668  1.0000
  O   O8        1.0  0.7381728206742295  0.6145754860841917  0.9067801062792711  1.0000
  O   O9        1.0  0.6276829100827827  0.427113101597996  0.6305448736148235  1.0000
  O   O10       1.0  0.3723187483858369  0.5728857413393413  0.3694530013387975  1.0000
