data_image0
_chemical_formula_structural       NiMo6H20C16N6O22
_chemical_formula_sum              "Ni1 Mo6 H20 C16 N6 O22"
_cell_length_a       7.640656233370597
_cell_length_b       10.043830948676911
_cell_length_c       10.19528996282016
_cell_angle_alpha    105.78279527622534
_cell_angle_beta     92.34487153394679
_cell_angle_gamma    98.951387090484

_space_group_name_H-M_alt    "P 1"
_space_group_IT_number       1

loop_
  _space_group_symop_operation_xyz
  'x, y, z'

loop_
  _atom_site_type_symbol
  _atom_site_label
  _atom_site_symmetry_multiplicity
  _atom_site_fract_x
  _atom_site_fract_y
  _atom_site_fract_z
  _atom_site_occupancy
  Ni  Ni1       1.0  0.0  0.0  0.0  1.0000
  Mo  Mo1       1.0  0.30419314451694385  0.19352531076151547  0.6412641067251174  1.0000
  Mo  Mo2       1.0  0.695805536128006  0.8064764916707503  0.3587351451323073  1.0000
  Mo  Mo3       1.0  0.995486052610872  0.0951232930470169  0.37943344913681193  1.0000
  Mo  Mo4       1.0  0.004513931905229627  0.9048785086298635  0.620564857293715  1.0000
  Mo  Mo5       1.0  0.5059398423099638  0.9243103006492747  0.6431298668634683  1.0000
  Mo  Mo6       1.0  0.49405992367448454  0.07569045209116608  0.3568701142294159  1.0000
  H   H1        1.0  0.06922413897247995  0.8244768949692444  0.18899220639588776  1.0000
  H   H2        1.0  0.9307788649920425  0.17552070626528152  0.8110070186938501  1.0000
  H   H3        1.0  0.3423972114169587  0.3940888397431976  0.42872748064066707  1.0000
  H   H4        1.0  0.6576001773824488  0.6059129650647536  0.5712746791166694  1.0000
  H   H5        1.0  0.299515661523344  0.1372272132656889  0.9401467701497167  1.0000
  H   H6        1.0  0.7004840984482996  0.862773538664598  0.05985222970666364  1.0000
  H   H7        1.0  0.34632791002159286  0.0585408199338602  0.05357696290429461  1.0000
  H   H8        1.0  0.6536707706233572  0.9414609824984057  0.9464222889531302  1.0000
  H   H9        1.0  0.1565117346864824  0.7463913119053701  0.7850150859504694  1.0000
  H   H10       1.0  0.8434820940775795  0.2536062881356074  0.21498290723552327  1.0000
  H   H11       1.0  0.2680155531968254  0.5352556631440137  0.8685257716130436  1.0000
  H   H12       1.0  0.7319795794383808  0.46474193614158577  0.13147127614605847  1.0000
  H   H13       1.0  0.17553601852640813  0.5704693435368141  0.4976307563615947  1.0000
  H   H14       1.0  0.8244635963731922  0.42953666274272007  0.5023716092114583  1.0000
  H   H15       1.0  0.09128011233497091  0.7000662471547514  0.33628264858099044  1.0000
  H   H16       1.0  0.9087234081652653  0.29993975604849515  0.6637158994748589  1.0000
  H   H17       1.0  0.35366629393538324  0.4269587585295014  0.02807837773445238  1.0000
  H   H18       1.0  0.6463342593844956  0.5730335914868405  0.9719213349654227  1.0000
  H   H19       1.0  0.43709055090604215  0.3165646269119621  0.20837061951304756  1.0000
  H   H20       1.0  0.5629091776956231  0.6834298274037068  0.7916335579445503  1.0000
  C   C1        1.0  0.1560501913039332  0.7302942681400068  0.8856336925156256  1.0000
  C   C2        1.0  0.8439478096948463  0.2697043842423313  0.11436665838284911  1.0000
  C   C3        1.0  0.2132416448079583  0.6228268982802733  0.9298379000647473  1.0000
  C   C4        1.0  0.7867576480363567  0.3771717517263795  0.07015954293382262  1.0000
  C   C5        1.0  0.18076235763467005  0.6503567759960092  0.06807243275458319  1.0000
  C   C6        1.0  0.8192384696380514  0.34964292381200585  0.931924352627739  1.0000
  C   C7        1.0  0.21277043611348032  0.5455787304958264  0.393397649874288  1.0000
  C   C8        1.0  0.7872321801961276  0.4544230729108989  0.6066026906484581  1.0000
  C   C9        1.0  0.16692806576386937  0.6155442974583707  0.3014708695342421  1.0000
  C   C10       1.0  0.8330745505457386  0.3844575059483546  0.6985294709885113  1.0000
  C   C11       1.0  0.21950785645397997  0.5771897058142628  0.16762403840876064  1.0000
  C   C12       1.0  0.7804929708187488  0.42280999399375224  0.8323727469735688  1.0000
  C   C13       1.0  0.31514720180504713  0.46545017486256063  0.13140601324064252  1.0000
  C   C14       1.0  0.6848540612250246  0.5345453292544634  0.8685975066007077  1.0000
  C   C15       1.0  0.3606832062647456  0.4011404091215454  0.22825530411811457  1.0000
  C   C16       1.0  0.6393167468813773  0.5988550949407098  0.7717481799136294  1.0000
  N   N1        1.0  0.105969624044434  0.7684857255628048  0.09787207155737586  1.0000
  N   N2        1.0  0.8940316029088109  0.2315097736933112  0.9021255608649458  1.0000
  N   N3        1.0  0.09157479454646737  0.818681581399247  0.9891379523913246  1.0000
  N   N4        1.0  0.9084247589191322  0.1813181232149006  0.0108646846004206  1.0000
  N   N5        1.0  0.3100275186991155  0.4428046818354049  0.3558646698583773  1.0000
  N   N6        1.0  0.6899744239771266  0.5571939723315469  0.6441377509419227  1.0000
  O   O1        1.0  0.2589345689310604  0.08880793360025763  0.40827670387364634  1.0000
  O   O2        1.0  0.74106542761065  0.9111938696969305  0.5917235650298949  1.0000
  O   O3        1.0  0.046926491276558104  0.12586230179247343  0.5955400093240542  1.0000
  O   O4        1.0  0.9530732747078903  0.8741384509479675  0.4044599717688301  1.0000
  O   O5        1.0  0.2539637089432035  0.9585918816246065  0.62017628344055  1.0000
  O   O6        1.0  0.7460362875984999  0.0414099216725745  0.37982398546299123  1.0000
  O   O7        1.0  0.5189304837897241  0.12600858905269524  0.5950702564632736  1.0000
  O   O8        1.0  0.4810673601114033  0.8739953160585828  0.4049314976788595  1.0000
  O   O9        1.0  0.31584600848886185  0.23432440288799233  0.8186504620928688  1.0000
  O   O10       1.0  0.6841539820400442  0.7656773995990422  0.18134882557416185  1.0000
  O   O11       1.0  0.33275939416619593  0.3533717806615543  0.6038521616067386  1.0000
  O   O12       1.0  0.6672419122594633  0.6466300226904024  0.3961481431064017  1.0000
  O   O13       1.0  0.010587277515902804  0.030306254465706707  0.20262252211890802  1.0000
  O   O14       1.0  0.9894137923396971  0.969694497519356  0.7973765135470715  1.0000
  O   O15       1.0  5.798202091260704e-05  0.27126698985897946  0.40472132369038155  1.0000
  O   O16       1.0  0.9999420205336023  0.7287348142483622  0.5952799264496633  1.0000
  O   O17       1.0  0.5488198303787541  0.0018007273273781008  0.8173349468732097  1.0000
  O   O18       1.0  0.4511786197089408  0.9982000245481403  0.18266401717356473  1.0000
  O   O19       1.0  0.4262461733592887  0.7505596587510512  0.6294412778809858  1.0000
  O   O20       1.0  0.5737535986379639  0.24944109479953622  0.37055968444840204  1.0000
  O   O21       1.0  0.2602054866571208  0.10956576518928779  0.0220280346882831  1.0000
  O   O22       1.0  0.7397942733145229  0.8904349867409991  0.9779709651680976  1.0000
