data_image0
_chemical_formula_structural       Zn4H63C95N27O33
_chemical_formula_sum              "Zn4 H63 C95 N27 O33"
_cell_length_a       19.25925135957016
_cell_length_b       19.333590324924927
_cell_length_c       20.242239641497648
_cell_angle_alpha    106.5852194269168
_cell_angle_beta     106.81882078122075
_cell_angle_gamma    112.48839071360027

_space_group_name_H-M_alt    "P 1"
_space_group_IT_number       1

loop_
  _space_group_symop_operation_xyz
  'x, y, z'

loop_
  _atom_site_type_symbol
  _atom_site_label
  _atom_site_symmetry_multiplicity
  _atom_site_fract_x
  _atom_site_fract_y
  _atom_site_fract_z
  _atom_site_occupancy
  Zn  Zn1       1.0  0.8759786217148003  0.8781295327599635  0.4912478199920398  1.0000
  Zn  Zn2       1.0  0.11180842119922123  0.12116988189222873  0.506108471910288  1.0000
  Zn  Zn3       1.0  0.0972723002412295  0.010120849545948803  0.6054844285298131  1.0000
  Zn  Zn4       1.0  0.9061392461104775  0.012972376877634514  0.39944608181944835  1.0000
  H   H1        1.0  0.8477548111126937  0.7815575699739129  0.6107199010705102  1.0000
  H   H2        1.0  0.0684793103187928  0.11697205402100515  0.7384823938789324  1.0000
  H   H3        1.0  0.8889447775031345  0.15100535704494436  0.5079449627454197  1.0000
  H   H4        1.0  0.8800078484165823  0.15877036372397407  0.35320650791868496  1.0000
  H   H5        1.0  0.3088602367998305  0.1711929625774857  0.5251539808707406  1.0000
  H   H6        1.0  0.1485972904801471  0.8936890361475419  0.5138416635079041  1.0000
  H   H7        1.0  0.8780235857961713  0.7308234734915047  0.38362962360868375  1.0000
  H   H8        1.0  0.6945112547088853  0.9109718968504411  0.2589836933849553  1.0000
  H   H9        1.0  0.28586823573940723  0.037828260718519885  0.6641363566208511  1.0000
  H   H10       1.0  0.4894138052425774  0.18763727387158718  0.7175559404761742  1.0000
  H   H11       1.0  0.6819467221743095  0.009417137713242549  0.4561658180322752  1.0000
  H   H12       1.0  0.40468236783502937  0.9598410447275615  0.3999078312317153  1.0000
  H   H13       1.0  0.1089869866838953  0.7635994616473384  0.5468784535776976  1.0000
  H   H14       1.0  0.0979681819783877  0.4037557976238729  0.5364814494200587  1.0000
  H   H15       1.0  0.9417429196970275  0.27940539613896215  0.2915055491805134  1.0000
  H   H16       1.0  0.9020721571898562  0.35624105055853766  0.2241472035627369  1.0000
  H   H17       1.0  0.906900716428254  0.48548768421065375  0.22679914431908807  1.0000
  H   H18       1.0  0.5865543264654036  0.7745435762351605  0.13983372382443804  1.0000
  H   H19       1.0  0.20595193181393512  0.2633860388309515  0.8462002601938039  1.0000
  H   H20       1.0  0.053790331763544  0.34957409361537367  0.7356336479134953  1.0000
  H   H21       1.0  0.3795562498488394  0.6003680072826114  0.2069071965752585  1.0000
  H   H22       1.0  0.5248977796063272  0.7025495452170175  0.3072880508074222  1.0000
  H   H23       1.0  0.294304553088395  0.5060892792738516  0.07314325886657264  1.0000
  H   H24       1.0  0.44252878049330496  0.6739019888788889  0.040224150389875056  1.0000
  H   H25       1.0  0.10450349014615058  0.8214705023233576  0.7800367706284419  1.0000
  H   H26       1.0  0.13584992832981158  0.005963592669416966  0.24270372229650408  1.0000
  H   H27       1.0  0.8631898937144484  0.800087470692752  0.7387720189382564  1.0000
  H   H28       1.0  0.9396725829574777  0.7627865786705641  0.9590319946790231  1.0000
  H   H29       1.0  0.10815633216117253  0.7865977778728352  0.8878373223736986  1.0000
  H   H30       1.0  0.1548286184337044  0.949920040391049  0.12825901225222947  1.0000
  H   H31       1.0  0.8719449632392795  0.8436925374055093  0.14500871211294  1.0000
  H   H32       1.0  0.8364608038618471  0.9113072194904891  0.1845676350077527  1.0000
  H   H33       1.0  0.7707571491500786  0.7997109446625574  0.1441341135719371  1.0000
  H   H34       1.0  0.20353223811112287  0.16541911720845087  0.43033143268138463  1.0000
  H   H35       1.0  0.1592399783995333  0.1164603163487072  0.3274538494642414  1.0000
  H   H36       1.0  0.2642032688013885  0.14141060867834201  0.3844794620910363  1.0000
  H   H37       1.0  0.6479290976781299  0.3432772329960229  0.870636976228347  1.0000
  H   H38       1.0  0.6024944602047383  0.32338705221371805  0.7713517917820523  1.0000
  H   H39       1.0  0.7144205541424427  0.36719381037942617  0.824149285933686  1.0000
  H   H40       1.0  0.1939074851266369  0.39836079489755605  0.46070869436398715  1.0000
  H   H41       1.0  0.18447788579543814  0.3061162414590441  0.3954777650095878  1.0000
  H   H42       1.0  0.27482833573007065  0.3730562144970406  0.488302222318076  1.0000
  H   H43       1.0  0.34383135046581975  0.33312612183097917  0.928247694161584  1.0000
  H   H44       1.0  0.2763551902627341  0.28213183567187633  0.9651684362199475  1.0000
  H   H45       1.0  0.3798292776936307  0.3703741469519031  0.03062247483951102  1.0000
  H   H46       1.0  0.0027087971933852013  0.43375790738993925  0.7790397528092683  1.0000
  H   H47       1.0  0.0825155286223449  0.48517902737584245  0.7523260152297198  1.0000
  H   H48       1.0  0.0616039573522258  0.5461396349198823  0.8205831518529862  1.0000
  H   H49       1.0  0.8604349247668779  0.6236411406117739  0.11287772522904757  1.0000
  H   H50       1.0  0.8328840173516029  0.6907619096728439  0.08044543606774832  1.0000
  H   H51       1.0  0.8125859166106011  0.672534175967364  0.1572945798584016  1.0000
  H   H52       1.0  0.1771563809246217  0.7465216473655544  0.06377273270123851  1.0000
  H   H53       1.0  0.21596488966481794  0.8524151948381871  0.13000365530599822  1.0000
  H   H54       1.0  0.25637021247870706  0.831430060557544  0.06153463125407662  1.0000
  H   H55       1.0  0.7501566092463676  0.7095198417105096  0.7446453851721486  1.0000
  H   H56       1.0  0.7966245464121329  0.817393152552029  0.8105499452222064  1.0000
  H   H57       1.0  0.7361925589977006  0.7362262524585433  0.8305809063356476  1.0000
  H   H58       1.0  0.014203423714512602  0.6472725559113286  0.13826186798462461  1.0000
  H   H59       1.0  0.0628595325901102  0.6666831451464148  0.07686087636270869  1.0000
  H   H60       1.0  0.9619959173302706  0.5749501573111149  0.03741576879831148  1.0000
  H   H61       1.0  0.24992906481153196  0.34586643862608923  0.6656947415443923  1.0000
  H   H62       1.0  0.2142446504822502  0.39057788523389547  0.7303263435935178  1.0000
  H   H63       1.0  0.205582164907625  0.408833538680554  0.6472680112602305  1.0000
  C   C1        1.0  0.9131375245744947  0.8282006955772019  0.6323450842045019  1.0000
  C   C2        1.0  0.08403124659913891  0.24696832664486834  0.4522162696257013  1.0000
  C   C3        1.0  0.07870482050833522  0.14589311250689008  0.7007533620418868  1.0000
  C   C4        1.0  0.8758318537962139  0.10053120171827601  0.5246665852356145  1.0000
  C   C5        1.0  0.1025531643242843  0.22823872250047128  0.6436198100513764  1.0000
  C   C6        1.0  0.8335422068987199  0.006591565666830997  0.5660415260471794  1.0000
  C   C7        1.0  0.9458210415060719  0.17884712213808734  0.38530608808073197  1.0000
  C   C8        1.0  0.05000769181610561  0.9128920115067558  0.6931487354112206  1.0000
  C   C9        1.0  0.9844431492576717  0.8493533062144748  0.6968415754778973  1.0000
  C   C10       1.0  0.017447321807722502  0.25727061102383425  0.4139857053520046  1.0000
  C   C11       1.0  0.0978142573115477  0.22722206488792548  0.7116725724943578  1.0000
  C   C12       1.0  0.8293479067830845  0.07711231590447912  0.5639411517392289  1.0000
  C   C13       1.0  0.7107250937652553  0.7960389678863182  0.34655352330268857  1.0000
  C   C14       1.0  0.2898900954862568  0.1378856837177054  0.5574833342626491  1.0000
  C   C15       1.0  0.08050655891373988  0.8651660703245342  0.48730860236040746  1.0000
  C   C16       1.0  0.9513497130007664  0.9095564670485388  0.29732758954796173  1.0000
  C   C17       1.0  0.0883650703228369  0.9956483347401957  0.35794703662092797  1.0000
  C   C18       1.0  0.9422900117168851  0.7823390067436691  0.41920716068946007  1.0000
  C   C19       1.0  0.7094103899899622  0.879082191327129  0.29233140405033003  1.0000
  C   C20       1.0  0.27919867838519963  0.07041360657893145  0.6291204934778561  1.0000
  C   C21       1.0  0.6555416878490875  0.8018519997567637  0.2868010027812958  1.0000
  C   C22       1.0  0.3314421186612648  0.10637563285960995  0.5981305371289238  1.0000
  C   C23       1.0  0.017829939230594505  0.7810167539284123  0.4370626735517149  1.0000
  C   C24       1.0  0.024535357166072903  0.925673807724614  0.28681153735615794  1.0000
  C   C25       1.0  0.40206002408936564  0.05445000957762145  0.5287918958448614  1.0000
  C   C26       1.0  0.4063511400037285  0.10343035398548754  0.5976519460414664  1.0000
  C   C27       1.0  0.4846791435482345  0.15061373388854096  0.6628619349192704  1.0000
  C   C28       1.0  0.5570328774883321  0.1524037587554331  0.6592237665654251  1.0000
  C   C29       1.0  0.5518297352808473  0.10349035792538783  0.5884390905517805  1.0000
  C   C30       1.0  0.471864922153955  0.0524530107461914  0.5216519058398106  1.0000
  C   C31       1.0  0.6371126727966754  0.20181785946565603  0.7267706190344895  1.0000
  C   C32       1.0  0.7070898070526823  0.20136725080936202  0.7222460777890517  1.0000
  C   C33       1.0  0.7048590368259086  0.15428589923354258  0.6513850378561372  1.0000
  C   C34       1.0  0.6245286316769736  0.10388795205517448  0.5840566156016322  1.0000
  C   C35       1.0  0.6170727042329887  0.05340627200696705  0.5121281782620314  1.0000
  C   C36       1.0  0.5351638780885112  0.003165497697537608  0.44707560316050626  1.0000
  C   C37       1.0  0.4650030342062479  0.0006379254494177632  0.4512224718132032  1.0000
  C   C38       1.0  0.7741934016356283  0.1513289977033737  0.6429669840325759  1.0000
  C   C39       1.0  0.7649956375121932  0.09601958015448987  0.5745978174504955  1.0000
  C   C40       1.0  0.6872305204172804  0.04974854559053209  0.5095206273685804  1.0000
  C   C41       1.0  0.9862645723688033  0.6345942077853692  0.35688343794004146  1.0000
  C   C42       1.0  0.027201611054870505  0.7075898164080455  0.4264040570659374  1.0000
  C   C43       1.0  0.07598707539923313  0.7069517791000663  0.4927541760986571  1.0000
  C   C44       1.0  0.07874358308518482  0.6354404026426013  0.49166247468320995  1.0000
  C   C45       1.0  0.0316706995515972  0.560020463963923  0.4207063615424431  1.0000
  C   C46       1.0  0.9864848476340242  0.5604816309902602  0.3512678227138863  1.0000
  C   C47       1.0  0.12129811426864023  0.6310788756673702  0.5600781195734896  1.0000
  C   C48       1.0  0.1161944972659228  0.5580179843301066  0.5584315832977893  1.0000
  C   C49       1.0  0.0710977221554714  0.48210101036520575  0.48787115898285555  1.0000
  C   C50       1.0  0.028357425128760407  0.48478512061285545  0.41871367262983483  1.0000
  C   C51       1.0  0.9808327563296828  0.4100643679577942  0.34732831883909654  1.0000
  C   C52       1.0  0.9378067510132623  0.4132286465558507  0.2785793571432933  1.0000
  C   C53       1.0  0.9404618775570698  0.48518845574625397  0.2801449205140685  1.0000
  C   C54       1.0  0.0673888500793396  0.40724197089762276  0.48410167294075274  1.0000
  C   C55       1.0  0.02107078700773  0.3341469078142438  0.41382074822231363  1.0000
  C   C56       1.0  0.9777501331186187  0.3361048524195879  0.3463022746193117  1.0000
  C   C57       1.0  0.5671530409785602  0.745432788283331  0.23093213366830403  1.0000
  C   C58       1.0  0.540650567647674  0.73783692033863  0.15530647456116511  1.0000
  C   C59       1.0  0.4586213607638284  0.6808012495934933  0.09879988814554252  1.0000
  C   C60       1.0  0.39893675178280574  0.6285241751365335  0.11565271694425412  1.0000
  C   C61       1.0  0.42488328172303375  0.6395446253763168  0.19243996381681694  1.0000
  C   C62       1.0  0.5068245163323581  0.6967797618250842  0.24900286357763687  1.0000
  C   C63       1.0  0.23220780364879798  0.38590761219111147  0.9175806365288324  1.0000
  C   C64       1.0  0.18845708644710868  0.31105999398343437  0.8501790407415298  1.0000
  C   C65       1.0  0.1037057028279165  0.3600899626842066  0.7863602703001504  1.0000
  C   C66       1.0  0.14573253265805158  0.4341114791982222  0.8547149505888285  1.0000
  C   C67       1.0  0.21461544425459067  0.45140272981019797  0.9202600161030858  1.0000
  C   C68       1.0  0.3176950312759246  0.5564325268054162  0.0570154202874491  1.0000
  C   C69       1.0  0.2723856788333805  0.5360630929049394  0.9821811267672871  1.0000
  C   C70       1.0  0.12722491473259373  0.29951098805847215  0.7834917318147845  1.0000
  C   C71       1.0  0.9850015801065268  0.8168285074699498  0.7535840657072939  1.0000
  C   C72       1.0  0.0520907378421285  0.8090247690388923  0.7942504580146731  1.0000
  C   C73       1.0  0.05373074844028029  0.7883674450466458  0.8547720128661922  1.0000
  C   C74       1.0  0.9890033220328576  0.7741960166885348  0.877774294688919  1.0000
  C   C75       1.0  0.9166449442851813  0.772613433476515  0.8300964159437569  1.0000
  C   C76       1.0  0.9156015247373332  0.7947045840874412  0.7703571686584355  1.0000
  C   C77       1.0  0.003330554627318301  0.7682007417214863  0.10645724937629818  1.0000
  C   C78       1.0  0.9899838892108619  0.8005618264174785  0.1707494094543521  1.0000
  C   C79       1.0  0.0988459339986818  0.9390265451184661  0.20531050431740994  1.0000
  C   C80       1.0  0.1104838361552822  0.9075861776329149  0.14134217809245808  1.0000
  C   C81       1.0  0.06098870620059671  0.8220323726109628  0.08951572663283976  1.0000
  C   C82       1.0  0.994846880882477  0.7720970700227595  0.949858483050214  1.0000
  C   C83       1.0  0.06371568160495399  0.79585527097273  0.014249128415457337  1.0000
  C   C84       1.0  0.0372755799304372  0.8876986136428332  0.22067710081999092  1.0000
  C   C85       1.0  0.8357827104987622  0.852177473175239  0.17664581369329127  1.0000
  C   C86       1.0  0.2008963926178424  0.12018794400965048  0.3804631558378802  1.0000
  C   C87       1.0  0.6520938829957007  0.32434882798311565  0.8161842087250407  1.0000
  C   C88       1.0  0.2070243819410535  0.34714218810304237  0.45648411369008096  1.0000
  C   C89       1.0  0.3251706056774566  0.34277906196723507  0.9751281399054504  1.0000
  C   C90       1.0  0.0641931549694235  0.4888020009331058  0.7992714491143929  1.0000
  C   C91       1.0  0.8555616761211624  0.6800340774500454  0.13084099907768376  1.0000
  C   C92       1.0  0.2004365288219532  0.8111884638773007  0.07132829542558035  1.0000
  C   C93       1.0  0.7800380889993407  0.7544055046378374  0.8059940186367384  1.0000
  C   C94       1.0  0.0025446905549487008  0.6410614590368199  0.07976673538991721  1.0000
  C   C95       1.0  0.2027684111462023  0.3633493070579377  0.6700156556152946  1.0000
  N   N1        1.0  0.9352922057983406  0.8747515314106667  0.5951563192665645  1.0000
  N   N2        1.0  0.0543478538705102  0.16959831031753944  0.44649663593794026  1.0000
  N   N3        1.0  0.0725161374522472  0.10240722525944793  0.6321246905592018  1.0000
  N   N4        1.0  0.9044360773542621  0.0470514548976838  0.5052279682093256  1.0000
  N   N5        1.0  0.08839471091217631  0.1534257793174874  0.5970827465455528  1.0000
  N   N6        1.0  0.8787095274397885  0.9897579772909992  0.5309403517110595  1.0000
  N   N7        1.0  0.9681455678253883  0.12725226903877734  0.40592929088535357  1.0000
  N   N8        1.0  0.018571561224561606  0.926670597751979  0.6324166317546513  1.0000
  N   N9        1.0  0.7887582138791345  0.8632939857935895  0.3826128025212157  1.0000
  N   N10       1.0  0.2183073167132008  0.12168197515978105  0.5637041133611262  1.0000
  N   N11       1.0  0.044518966228182  0.9120878597805911  0.4990652416741526  1.0000
  N   N12       1.0  0.9714265823558891  0.9642154440408391  0.3682753239089964  1.0000
  N   N13       1.0  0.05694960259774011  0.0164091178641144  0.40652999737479684  1.0000
  N   N14       1.0  0.959225666478666  0.8605984064420441  0.4577143930083166  1.0000
  N   N15       1.0  0.7878335190214258  0.9141727537807611  0.3498593398992042  1.0000
  N   N16       1.0  0.21139884125680203  0.07925789620943394  0.607461169010918  1.0000
  N   N17       1.0  0.31980404123968503  0.9991864887842683  0.45946968552934925  1.0000
  N   N18       1.0  0.782317845855644  0.24218132583015253  0.7969036509835447  1.0000
  N   N19       1.0  0.861205809296017  0.21035433915766083  0.7033934529680863  1.0000
  N   N20       1.0  0.5226084535615527  0.9504137684902717  0.3705827277068821  1.0000
  N   N21       1.0  0.9385890706715829  0.6324117513833301  0.284251668331315  1.0000
  N   N22       1.0  0.16733879889167722  0.706928254948572  0.6348527082030273  1.0000
  N   N23       1.0  0.15929735024016625  0.5565669757829854  0.6309495100888327  1.0000
  N   N24       1.0  0.2930960121471529  0.6035354154616287  0.9566401580528705  1.0000
  N   N25       1.0  0.7876399367787245  0.9496032546527362  0.5901343539385522  1.0000
  N   N26       1.0  0.13768756764252998  0.9663279039700257  0.7413455990338136  1.0000
  N   N27       1.0  0.70130854624243  0.733132609130003  0.3720690403388219  1.0000
  O   O1        1.0  0.8686211420570588  0.8522097872834565  0.250105202746191  1.0000
  O   O2        1.0  0.1721990834779561  0.0391555888918802  0.3790324047667752  1.0000
  O   O3        1.0  0.2656271296548525  0.9413762730482845  0.4625534309938502  1.0000
  O   O4        1.0  0.31273436640839236  0.013101132442216045  0.40255761569197546  1.0000
  O   O5        1.0  0.6399832961350428  0.24091262467635505  0.7960691587770583  1.0000
  O   O6        1.0  0.16865176608426677  0.29996606096656103  0.49229831300996807  1.0000
  O   O7        1.0  0.8081627440616685  0.1961836204193403  0.8118597702116475  1.0000
  O   O8        1.0  0.8119205245582036  0.3166527584223005  0.8395421765502817  1.0000
  O   O9        1.0  0.9082851174415084  0.18269504285277807  0.7200723973490072  1.0000
  O   O10       1.0  0.8817648903089292  0.2855836590076066  0.7297535248712704  1.0000
  O   O11       1.0  0.5775186684020853  0.9795187994892703  0.3499519451873497  1.0000
  O   O12       1.0  0.45721378357713854  0.8813030426161816  0.3314688154021255  1.0000
  O   O13       1.0  0.9682636045280475  0.6293741543272732  0.23751634940064292  1.0000
  O   O14       1.0  0.8712330476234129  0.630696097031681  0.27371004059298804  1.0000
  O   O15       1.0  0.22440287872997547  0.7700697775646221  0.6406902824415823  1.0000
  O   O16       1.0  0.14387325570681497  0.701713906568429  0.6849031073169201  1.0000
  O   O17       1.0  0.1148428812312119  0.505748156192091  0.6478260233492037  1.0000
  O   O18       1.0  0.2362871390530827  0.604333250611056  0.6678532176674634  1.0000
  O   O19       1.0  0.3097312298419794  0.5915824979692914  0.9009969120064342  1.0000
  O   O20       1.0  0.29343866801565355  0.667217896288385  0.992976089447204  1.0000
  O   O21       1.0  0.2969605460573703  0.4018075330594613  0.9813866312416407  1.0000
  O   O22       1.0  0.126950978066894  0.4960055516000351  0.8643615195190151  1.0000
  O   O23       1.0  0.9350515289931424  0.7517114332572775  0.1902812152892608  1.0000
  O   O24       1.0  0.13938899442580066  0.8147734308646122  0.013405376657488045  1.0000
  O   O25       1.0  0.851863046083011  0.7532771399564382  0.8501153815828598  1.0000
  O   O26       1.0  0.9582210009205953  0.6828716277087991  0.05896102301034747  1.0000
  O   O27       1.0  0.1189863472018473  0.2908372609025421  0.6219007798147729  1.0000
  O   O28       1.0  0.7566669438010294  0.9732066103946694  0.6313695397230319  1.0000
  O   O29       1.0  0.7791006654761148  0.8781519020841628  0.5657502441388829  1.0000
  O   O30       1.0  0.172175023341957  0.9640230704939086  0.8019204441826274  1.0000
  O   O31       1.0  0.1785987709320835  0.01727278657707389  0.7196462267259135  1.0000
  O   O32       1.0  0.7643718295218775  0.7491793062594567  0.43013446536275524  1.0000
  O   O33       1.0  0.634657121417753  0.6654540024585317  0.3379561094372292  1.0000
