data_image0
_chemical_formula_structural       CdH30C50N4O10
_chemical_formula_sum              "Cd1 H30 C50 N4 O10"
_cell_length_a       4.579966654816564
_cell_length_b       15.40776276836102
_cell_length_c       17.502881026576
_cell_angle_alpha    65.87006882393366
_cell_angle_beta     85.83224989163283
_cell_angle_gamma    83.17187198546607

_space_group_name_H-M_alt    "P 1"
_space_group_IT_number       1

loop_
  _space_group_symop_operation_xyz
  'x, y, z'

loop_
  _atom_site_type_symbol
  _atom_site_label
  _atom_site_symmetry_multiplicity
  _atom_site_fract_x
  _atom_site_fract_y
  _atom_site_fract_z
  _atom_site_occupancy
  Cd  Cd1       1.0  3.3275649971260207e-07  3.814921924990421e-07  0.9999988158315322  1.0000
  H   H1        1.0  0.5254510431934207  0.18450859787099466  0.9431050858889023  1.0000
  H   H2        1.0  0.47455471317550024  0.8154868336322637  0.056899006072569584  1.0000
  H   H3        1.0  0.3663726651393732  0.33145295839747047  0.9673328496557335  1.0000
  H   H4        1.0  0.6336350001743724  0.6685431947935855  0.03266922881706338  1.0000
  H   H5        1.0  0.003693617976075807  0.2330398375782963  0.16293016435623295  1.0000
  H   H6        1.0  0.996318840189147  0.7669620390786847  0.8370703298969391  1.0000
  H   H7        1.0  0.1392092364883126  0.09054635673307838  0.12904098458871263  1.0000
  H   H8        1.0  0.8608010333757578  0.9094555172057003  0.8709595569702275  1.0000
  H   H9        1.0  0.6893489872145011  0.4430905352327201  0.02902535358481377  1.0000
  H   H10       1.0  0.3106553521836944  0.5569091896786632  0.9709749420893349  1.0000
  H   H11       1.0  0.3403808443680063  0.4033747073089203  0.07053502459192629  1.0000
  H   H12       1.0  0.6596216988341794  0.5966235900654269  0.9294641073758716  1.0000
  H   H13       1.0  0.1436622994001269  0.5839934999015313  0.1701385348971841  1.0000
  H   H14       1.0  0.856330874671812  0.4160069260149796  0.8298617455822002  1.0000
  H   H15       1.0  0.2687576157797835  0.5924877433379123  0.30351623993939825  1.0000
  H   H16       1.0  0.7312397480978632  0.40751339969551026  0.6964848371777281  1.0000
  H   H17       1.0  0.0919438079158965  0.47609323622173605  0.4400409763345082  1.0000
  H   H18       1.0  0.9080500191055665  0.5239050473641669  0.5599594878292253  1.0000
  H   H19       1.0  0.49095426838770345  0.2147697755040454  0.5215204038832512  1.0000
  H   H20       1.0  0.509046142049165  0.785228514778645  0.4784804898496234  1.0000
  H   H21       1.0  0.3648673644298697  0.2110121804905845  0.38603009246026  1.0000
  H   H22       1.0  0.6351242742904473  0.7889861003771161  0.6139704190092419  1.0000
  H   H23       1.0  0.36153653231399113  0.3795436453098092  0.6169930037811897  1.0000
  H   H24       1.0  0.6384803966904044  0.6204575323921661  0.3830036471789883  1.0000
  H   H25       1.0  0.2040730578008763  0.2706052256990361  0.7624837295497928  1.0000
  H   H26       1.0  0.7959300884470722  0.7293980780243247  0.23751302156063062  1.0000
  H   H27       1.0  0.9108178349846838  0.0608370331308237  0.7648143816655664  1.0000
  H   H28       1.0  0.08917752738840778  0.93916339550389  0.23518585150805643  1.0000
  H   H29       1.0  0.0635572235023929  0.16690048783554803  0.6184159474166934  1.0000
  H   H30       1.0  0.9364517348305414  0.8330985264582791  0.3815850768559631  1.0000
  C   C1        1.0  0.6293182678510335  0.19816886306180956  0.9905753292958157  1.0000
  C   C2        1.0  0.37068434939893546  0.8018294284812626  0.009426088617722485  1.0000
  C   C3        1.0  0.5401790631432918  0.2798821661566748  0.004545242090557609  1.0000
  C   C4        1.0  0.45982574240782975  0.7201161281046069  0.9954561285172193  1.0000
  C   C5        1.0  0.6712289726383034  0.29439750900469625  0.06771268418891914  1.0000
  C   C6        1.0  0.3287727308177537  0.7056036423807655  0.932287155343808  1.0000
  C   C7        1.0  0.8890997474999551  0.22526711675732264  0.11396234417177453  1.0000
  C   C8        1.0  0.11091048534022008  0.7747347600970901  0.8860370544142956  1.0000
  C   C9        1.0  0.9661643969641884  0.1454493777653667  0.09567445326208462  1.0000
  C   C10       1.0  0.03384895648299147  0.8545496405070523  0.9043270478854739  1.0000
  C   C11       1.0  0.5787033016431876  0.3857516690287923  0.07844750138484362  1.0000
  C   C12       1.0  0.4212986071214146  0.6142487692183496  0.9215520183850361  1.0000
  C   C13       1.0  0.831019328379135  0.45910860666904096  0.15248706778038468  1.0000
  C   C14       1.0  0.16898258038546737  0.5408918315780937  0.8475124519895022  1.0000
  C   C15       1.0  0.8962118979890119  0.46359164996115965  0.2320204415939316  1.0000
  C   C16       1.0  0.10378389351311769  0.5364073509390935  0.7679797235404422  1.0000
  C   C17       1.0  0.0656818292512469  0.5332966021605615  0.23045784858759086  1.0000
  C   C18       1.0  0.9343093803400324  0.4667031064416067  0.7695427309211528  1.0000
  C   C19       1.0  0.13541882212510356  0.5376121780394314  0.3055853871208357  1.0000
  C   C20       1.0  0.8645700123684178  0.46238823952504043  0.6944161309429548  1.0000
  C   C21       1.0  0.03544312222945929  0.4729615143170633  0.38185234586127614  1.0000
  C   C22       1.0  0.9645461413931001  0.527037475512948  0.6181491041632656  1.0000
  C   C23       1.0  0.8597490894540198  0.4018310621697765  0.385228448953413  1.0000
  C   C24       1.0  0.14023967099172552  0.5981693612259633  0.6147707831646302  1.0000
  C   C25       1.0  0.7473139042855125  0.3338997183708515  0.4619772990631861  1.0000
  C   C26       1.0  0.2526794380710839  0.6660999973229668  0.5380215186804804  1.0000
  C   C27       1.0  0.5744879867699311  0.265499749144233  0.46228006358720836  1.0000
  C   C28       1.0  0.4255076179355939  0.7344999634365195  0.5377209927964446  1.0000
  C   C29       1.0  0.5048641508030085  0.2633067085697718  0.3864140810420978  1.0000
  C   C30       1.0  0.495122029236434  0.7366951369265919  0.6135864093938325  1.0000
  C   C31       1.0  0.609511297069318  0.32759831368490927  0.3102833545137075  1.0000
  C   C32       1.0  0.390479520416811  0.6724028197360852  0.689718436007155  1.0000
  C   C33       1.0  0.5267552110938565  0.3253268048108565  0.23167481545080917  1.0000
  C   C34       1.0  0.4732355693683842  0.6746743315257788  0.7683258320971834  1.0000
  C   C35       1.0  0.789066385786434  0.39696420789548637  0.3090806551158211  1.0000
  C   C36       1.0  0.21092435765191203  0.6030369313567833  0.6909188494592942  1.0000
  C   C37       1.0  0.7197334888299521  0.27829729375549317  0.6108845270212131  1.0000
  C   C38       1.0  0.28027760226829196  0.7217017276299842  0.3891147354863593  1.0000
  C   C39       1.0  0.4787568323273348  0.3092797498167243  0.6497024831754531  1.0000
  C   C40       1.0  0.521256167715741  0.6907199932565576  0.3502947658434439  1.0000
  C   C41       1.0  0.39276056673405435  0.2491088498312237  0.7303500601228948  1.0000
  C   C42       1.0  0.607240615033234  0.750893736577794  0.269646990016888  1.0000
  C   C43       1.0  0.5470965059753041  0.1593969761509371  0.7718045446679869  1.0000
  C   C44       1.0  0.4528985770414521  0.8406041714533714  0.22819372232272178  1.0000
  C   C45       1.0  0.7886147129610775  0.12993138159273346  0.731350302041655  1.0000
  C   C46       1.0  0.21138497047847687  0.8700690568518398  0.26864812206111577  1.0000
  C   C47       1.0  0.8748080469623363  0.18881298330537533  0.6502990956698727  1.0000
  C   C48       1.0  0.12520263351882482  0.8111874643567559  0.3497008063633871  1.0000
  C   C49       1.0  0.4504126020119655  0.09479570987110723  0.8589123922641806  1.0000
  C   C50       1.0  0.5495822201604169  0.9052061552449829  0.14108448003005236  1.0000
  N   N1        1.0  0.8395461297113087  0.131445711077518  0.03524801870398869  1.0000
  N   N2        1.0  0.16046310797795368  0.8685525842467143  0.9647549717515677  1.0000
  N   N3        1.0  0.6570046746430193  0.3880245607267625  0.15723956112192644  1.0000
  N   N4        1.0  0.3429931183636653  0.6119751545721928  0.8427614479559582  1.0000
  O   O1        1.0  0.19458458004498877  0.11753886014697205  0.8832737844349057  1.0000
  O   O2        1.0  0.8054077929818533  0.8824637197626899  0.116721740468627  1.0000
  O   O3        1.0  0.6234482530693554  0.0231793497298725  0.9010968138264275  1.0000
  O   O4        1.0  0.37654701674400565  0.9768210861939294  0.09890056191500234  1.0000
  O   O5        1.0  0.819208207604845  0.3426333276349355  0.5326030817804155  1.0000
  O   O6        1.0  0.18080112432128467  0.6573642632978789  0.46739615999367623  1.0000
  O   O7        1.0  0.3502920859744592  0.2722802558281217  0.22836071665996377  1.0000
  O   O8        1.0  0.6496927455099595  0.7277187329389321  0.7716391135167981  1.0000
  O   O9        1.0  0.923625646731111  0.5158179078250456  0.08417758106897114  1.0000
  O   O10       1.0  0.07637956943710117  0.4841789601595822  0.9158231500131183  1.0000
