data_image0
_chemical_formula_structural       Co12H96C120N8O40
_chemical_formula_sum              "Co12 H96 C120 N8 O40"
_cell_length_a       14.906080963809263
_cell_length_b       17.672215027709612
_cell_length_c       17.66502485247485
_cell_angle_alpha    90.0042044206015
_cell_angle_beta     90.00086847264772
_cell_angle_gamma    90.63298337349434

_space_group_name_H-M_alt    "P 1"
_space_group_IT_number       1

loop_
  _space_group_symop_operation_xyz
  'x, y, z'

loop_
  _atom_site_type_symbol
  _atom_site_label
  _atom_site_symmetry_multiplicity
  _atom_site_fract_x
  _atom_site_fract_y
  _atom_site_fract_z
  _atom_site_occupancy
  Co  Co1       1.0  0.965743445744195  0.8955996279451739  0.15104749815832008  1.0000
  Co  Co2       1.0  0.9648724091710648  0.1044239822212987  0.8489835080210354  1.0000
  Co  Co3       1.0  0.03333144064146859  0.15067482180077724  0.104071825751177  1.0000
  Co  Co4       1.0  0.0325082092941358  0.85074138190911  0.8950502657913263  1.0000
  Co  Co5       1.0  0.46577707165891985  0.8956068453849326  0.8489363855826183  1.0000
  Co  Co6       1.0  0.46487406023727834  0.10441769902591597  0.1509558747697426  1.0000
  Co  Co7       1.0  0.5333367816032321  0.15069250584275548  0.8959249714588324  1.0000
  Co  Co8       1.0  0.5324434357459892  0.8508239988493927  0.1049492269567409  1.0000
  Co  Co9       1.0  0.7510187890118728  0.8501437962794397  0.14622705233155386  1.0000
  Co  Co10      1.0  0.7494615395396309  0.14598448570835387  0.853678267620232  1.0000
  Co  Co11      1.0  0.2495192003047464  0.1460426328718185  0.1462824079717819  1.0000
  Co  Co12      1.0  0.25103048814102635  0.8501699369666509  0.8537417405331524  1.0000
  H   H1        1.0  0.7675450561257546  0.020143342981938896  0.10912060632018239  1.0000
  H   H2        1.0  0.7368843364153362  0.9919720403139536  0.24768121960163106  1.0000
  H   H3        1.0  0.7721792756241825  0.08756805158459711  0.22981810025311228  1.0000
  H   H4        1.0  0.8487729548688847  0.020645017779180798  0.2691378926437906  1.0000
  H   H5        1.0  0.052748933637772694  0.6751803656519897  0.12278916220539318  1.0000
  H   H6        1.0  0.09174266081705439  0.5400969300845659  0.10196024987006069  1.0000
  H   H7        1.0  0.8116825791513164  0.47851892506181304  0.119147882417252  1.0000
  H   H8        1.0  0.7739296222544852  0.6142815076156438  0.1368287990652277  1.0000
  H   H9        1.0  0.8565613696436928  0.3849105414710863  0.04043779152274139  1.0000
  H   H10       1.0  0.89682608331146  0.24829012628651975  0.0383130218378724  1.0000
  H   H11       1.0  0.13526169277284342  0.28948211780090816  0.1517616145682013  1.0000
  H   H12       1.0  0.1049133238756284  0.4271502298675358  0.1608097699047661  1.0000
  H   H13       1.0  0.7654538192974414  0.9754299134286416  0.8886716822515695  1.0000
  H   H14       1.0  0.739125170410631  0.006261798775192099  0.749768890103759  1.0000
  H   H15       1.0  0.7716167055857354  0.9105071178476077  0.767331269328352  1.0000
  H   H16       1.0  0.8508453469517222  0.9779841071732495  0.7302977827013208  1.0000
  H   H17       1.0  0.052497706017668094  0.32617867293408404  0.8763065685058604  1.0000
  H   H18       1.0  0.09187279861150441  0.462134204534614  0.8960910023026614  1.0000
  H   H19       1.0  0.8117176586669854  0.5184984692603649  0.8799679800984633  1.0000
  H   H20       1.0  0.773639316369831  0.3820082353301259  0.8635421488366504  1.0000
  H   H21       1.0  0.857082329249181  0.6125774539138789  0.9583423974142207  1.0000
  H   H22       1.0  0.8965353298233082  0.7500316759666888  0.9600453950067163  1.0000
  H   H23       1.0  0.1343640536741475  0.7139600622948805  0.845292205000348  1.0000
  H   H24       1.0  0.10459555321476437  0.5758458286496762  0.8364400890492405  1.0000
  H   H25       1.0  0.23098415582973078  0.10970858891032978  0.9760397685957045  1.0000
  H   H26       1.0  0.2613175950620387  0.24842503958739567  0.0064862664726419  1.0000
  H   H27       1.0  0.2267042474108862  0.23114955840497234  0.9108119101565534  1.0000
  H   H28       1.0  0.14955516443477992  0.2687505923312656  0.9785240039260898  1.0000
  H   H29       1.0  0.9477940901776022  0.1228333611229075  0.32473913003705945  1.0000
  H   H30       1.0  0.9085421117213458  0.10227373051657909  0.46027940449971533  1.0000
  H   H31       1.0  0.18896972577422838  0.11901798840579401  0.5190362433205991  1.0000
  H   H32       1.0  0.2268489141748802  0.1360083825769038  0.3828312391727379  1.0000
  H   H33       1.0  0.14302312892181132  0.041734184052423  0.6138447596357608  1.0000
  H   H34       1.0  0.1020545774693318  0.039753547218381896  0.7507284715007428  1.0000
  H   H35       1.0  0.8640929111248495  0.15127399018099646  0.7104804020746656  1.0000
  H   H36       1.0  0.895456615876597  0.16046351446434667  0.5726809602852398  1.0000
  H   H37       1.0  0.2318216450242048  0.8946903343651513  0.0230611499455833  1.0000
  H   H38       1.0  0.2622365949684493  0.7566612766851507  0.9937381820982693  1.0000
  H   H39       1.0  0.22567386759138228  0.7732124215603734  0.08877577922955739  1.0000
  H   H40       1.0  0.1498049512123885  0.7343345637555245  0.0198246379170399  1.0000
  H   H41       1.0  0.9501001961951587  0.8776825821270791  0.6760202469631906  1.0000
  H   H42       1.0  0.9102553992703761  0.8974673590341169  0.5406283290202154  1.0000
  H   H43       1.0  0.1897849350378209  0.8804478137129977  0.48043985023370783  1.0000
  H   H44       1.0  0.22828223357835503  0.8635216651777069  0.6164251273117429  1.0000
  H   H45       1.0  0.14508644716377717  0.9584429221822787  0.3862829267653396  1.0000
  H   H46       1.0  0.10384296416007291  0.9605285808555805  0.24951814744856188  1.0000
  H   H47       1.0  0.8642021750091046  0.8470592883318415  0.289765517812711  1.0000
  H   H48       1.0  0.8955251236869869  0.8380530570426571  0.4275551704344025  1.0000
  H   H49       1.0  0.26757274357365185  0.020147952842719998  0.8908599276423457  1.0000
  H   H50       1.0  0.23688258664353162  0.9919765197583885  0.7523040325865935  1.0000
  H   H51       1.0  0.2721839515148615  0.0875806640498737  0.7701719700411613  1.0000
  H   H52       1.0  0.34876945022342914  0.0206479126364556  0.7308374712665183  1.0000
  H   H53       1.0  0.5527137554165263  0.6752111965058488  0.8772333598952855  1.0000
  H   H54       1.0  0.5917280284184797  0.5401322165288674  0.8980375622501242  1.0000
  H   H55       1.0  0.31165050600927907  0.4785445851837977  0.8808606260138205  1.0000
  H   H56       1.0  0.27390264197065767  0.6143160804601493  0.8632220342372321  1.0000
  H   H57       1.0  0.35653488031452696  0.3849487984818367  0.9595451628636624  1.0000
  H   H58       1.0  0.39680169865791737  0.24833647179871587  0.9616785250613729  1.0000
  H   H59       1.0  0.6352702984606181  0.2895206492533049  0.8482959027382934  1.0000
  H   H60       1.0  0.6049123189032243  0.42718125998111833  0.8392252040778345  1.0000
  H   H61       1.0  0.2653973527941886  0.9754736358079085  0.1113840430444881  1.0000
  H   H62       1.0  0.2391464343102641  0.0063030767340777  0.2502968810183503  1.0000
  H   H63       1.0  0.2715798572351317  0.9105349455158416  0.23268523581920422  1.0000
  H   H64       1.0  0.3508631717530974  0.9779554981577334  0.26973146214636756  1.0000
  H   H65       1.0  0.5525432479964393  0.3262518730893262  0.1237259980622198  1.0000
  H   H66       1.0  0.5919212525471806  0.46219634637427737  0.1039616617228774  1.0000
  H   H67       1.0  0.3117653851233015  0.5185489824661929  0.1200655423697228  1.0000
  H   H68       1.0  0.27367527909397893  0.3820593330581801  0.1364837067619646  1.0000
  H   H69       1.0  0.35709029528389646  0.6126203255727704  0.0417116202439871  1.0000
  H   H70       1.0  0.39652110524994555  0.7500714881554772  0.0400112824327579  1.0000
  H   H71       1.0  0.6343553686687285  0.7140647096450294  0.1547704215836916  1.0000
  H   H72       1.0  0.6046366302211935  0.5759428732001053  0.16360296803309637  1.0000
  H   H73       1.0  0.7310094666598203  0.10974380907054379  0.023932163302525598  1.0000
  H   H74       1.0  0.7613001079633647  0.2484678918313321  0.9935460447787746  1.0000
  H   H75       1.0  0.7267340557766033  0.23117205067663343  0.08921416902312268  1.0000
  H   H76       1.0  0.6495535523141811  0.2687792812125735  0.0215378316338715  1.0000
  H   H77       1.0  0.4477525355053729  0.122819541711543  0.6752042194441897  1.0000
  H   H78       1.0  0.40851934045752347  0.10223816177058608  0.5396585455206591  1.0000
  H   H79       1.0  0.6889415161899352  0.11899428342659489  0.480932445103754  1.0000
  H   H80       1.0  0.7268112900474081  0.13600086118316307  0.6171352101514173  1.0000
  H   H81       1.0  0.6430488516229288  0.041715087449553295  0.3860905068414553  1.0000
  H   H82       1.0  0.6020999800121133  0.03975165186643179  0.24920387134109487  1.0000
  H   H83       1.0  0.3641035616963393  0.15121963750838313  0.2894537928328589  1.0000
  H   H84       1.0  0.3954469551683601  0.16039541992684997  0.4272537364353539  1.0000
  H   H85       1.0  0.7318151527993848  0.8947178734970009  0.9769401082971924  1.0000
  H   H86       1.0  0.7622017754237832  0.7566824643050649  0.0062708747142537  1.0000
  H   H87       1.0  0.7256399164486568  0.7732304774660435  0.9112340330974504  1.0000
  H   H88       1.0  0.6497617129257308  0.734376313072367  0.9801734431084412  1.0000
  H   H89       1.0  0.450082581241162  0.8777222993041888  0.32397231558286416  1.0000
  H   H90       1.0  0.4102623442037014  0.8974882777565512  0.4593765065536601  1.0000
  H   H91       1.0  0.6897876407812119  0.8804242615857589  0.5195547378598917  1.0000
  H   H92       1.0  0.7282616878995114  0.863513478714239  0.3835517196405434  1.0000
  H   H93       1.0  0.645105061253105  0.9584274923826539  0.6137049374870358  1.0000
  H   H94       1.0  0.6039016206912462  0.9604984877625928  0.7504789750528927  1.0000
  H   H95       1.0  0.3642305130538118  0.8470664783918238  0.7102276795464064  1.0000
  H   H96       1.0  0.3955287574211752  0.8380635906598002  0.5724349288221403  1.0000
  C   C1        1.0  0.9064389240392927  0.04930043473283518  0.1281233712468648  1.0000
  C   C2        1.0  0.8214889628235084  0.005595041325470601  0.1491984754075872  1.0000
  C   C3        1.0  0.79296934198846  0.0282056638426198  0.22935808502627  1.0000
  C   C4        1.0  0.8884297178197328  0.7341217874055843  0.14322224615283116  1.0000
  C   C5        1.0  0.9110969359125531  0.6528970731679421  0.1316298397875642  1.0000
  C   C6        1.0  0.0006960298467149  0.6313867223623787  0.1219409228839154  1.0000
  C   C7        1.0  0.0219518047792988  0.5558015739865142  0.1108729142960385  1.0000
  C   C8        1.0  0.9545479502552824  0.4993664661276682  0.1095503509188447  1.0000
  C   C9        1.0  0.8647283789392971  0.5215849800689939  0.1183804794274508  1.0000
  C   C10       1.0  0.8433377803469213  0.5971740078986016  0.1292129937275206  1.0000
  C   C11       1.0  0.9769257144546231  0.4188178729017692  0.1019913612561965  1.0000
  C   C12       1.0  0.9184591561355829  0.36651871229346966  0.06715244082689512  1.0000
  C   C13       1.0  0.9405179863257301  0.2905064922426632  0.064657859878352  1.0000
  C   C14       1.0  0.07426703753941412  0.3132048456324838  0.1277796846849313  1.0000
  C   C15       1.0  0.05723901652496719  0.3900326075247449  0.1317484264212041  1.0000
  C   C16       1.0  0.9051367541857617  0.9498427896933773  0.8716821170692555  1.0000
  C   C17       1.0  0.8203412691676988  0.9918876806975234  0.8499011033243207  1.0000
  C   C18       1.0  0.7937965245813385  0.9698937734160534  0.7688982619610413  1.0000
  C   C19       1.0  0.8879460238992536  0.2642412561462848  0.8568813220519473  1.0000
  C   C20       1.0  0.9108671277334608  0.3459094480737406  0.8680387075563161  1.0000
  C   C21       1.0  0.0005372863270735996  0.3690703383468871  0.8771309117171242  1.0000
  C   C22       1.0  0.021995853124174396  0.4451085405942338  0.8875889598277666  1.0000
  C   C23       1.0  0.9546459721821348  0.5003258361782842  0.888842809183835  1.0000
  C   C24       1.0  0.864729138256578  0.47640631983302467  0.8806817402991172  1.0000
  C   C25       1.0  0.843151282022596  0.40038736894538113  0.8705288148415491  1.0000
  C   C26       1.0  0.9769958518132356  0.5813268457628523  0.8960188532194877  1.0000
  C   C27       1.0  0.9186182479553223  0.6323639012849895  0.9312283487016587  1.0000
  C   C28       1.0  0.9403122266340985  0.708820530896311  0.9335454684015688  1.0000
  C   C29       1.0  0.07359353721089688  0.6890605592603548  0.8696650614120998  1.0000
  C   C30       1.0  0.056898023646944296  0.6118387355020117  0.8657617598773726  1.0000
  C   C31       1.0  0.09192356144755821  0.1280279229889345  0.9496365477556026  1.0000
  C   C32       1.0  0.17728752134402007  0.14903724254969566  0.9922769119460924  1.0000
  C   C33       1.0  0.20556798228342638  0.22977159656017676  0.9702829140749074  1.0000
  C   C34       1.0  0.11215469817034317  0.1427019761946866  0.2641153921855945  1.0000
  C   C35       1.0  0.08951304891586183  0.1312978600338894  0.3456408984963844  1.0000
  C   C36       1.0  0.9998143773909618  0.1218987784513104  0.3680515608322494  1.0000
  C   C37       1.0  0.9784622423630509  0.1110375722737089  0.44387769757830847  1.0000
  C   C38       1.0  0.04587240174461019  0.1098065000313753  0.4996900011065292  1.0000
  C   C39       1.0  0.13581849629134268  0.1183084876857521  0.4765468404419834  1.0000
  C   C40       1.0  0.15731501843281137  0.1287759662340306  0.4006787994667036  1.0000
  C   C41       1.0  0.023201567198206898  0.10251947560318088  0.58044747374187  1.0000
  C   C42       1.0  0.0811976519259758  0.0681656177728485  0.6325416072132768  1.0000
  C   C43       1.0  0.058702820386976405  0.0657151693400309  0.7086963778737783  1.0000
  C   C44       1.0  0.9252861599499981  0.12783168056096628  0.6865529854484363  1.0000
  C   C45       1.0  0.9428519845250919  0.1318358198522347  0.6096142057253573  1.0000
  C   C46       1.0  0.0924554473796064  0.8743205916697505  0.04902778936428119  1.0000
  C   C47       1.0  0.1779387542049093  0.854592754203871  0.006643285943660299  1.0000
  C   C48       1.0  0.20566288282548578  0.7743348539078028  0.029019764045898497  1.0000
  C   C49       1.0  0.11401753178168411  0.8572823641742743  0.735793387242687  1.0000
  C   C50       1.0  0.0913482476827383  0.8687094480078913  0.6543542090022356  1.0000
  C   C51       1.0  0.0017567858091496005  0.8782609483726561  0.632384030566719  1.0000
  C   C52       1.0  0.9800767012324911  0.8887482877963108  0.5566363503224281  1.0000
  C   C53       1.0  0.047111230653705094  0.889774231754963  0.5004885181433636  1.0000
  C   C54       1.0  0.136994906256291  0.8813230600040569  0.5232110728665802  1.0000
  C   C55       1.0  0.15882083272164488  0.8709363645201975  0.5989723978374144  1.0000
  C   C56       1.0  0.024235785687146502  0.8968963702656153  0.4197664170745412  1.0000
  C   C57       1.0  0.08274027638552181  0.9316630465083408  0.3676334041636551  1.0000
  C   C58       1.0  0.060144137570354396  0.9341233561348615  0.29150948562026  1.0000
  C   C59       1.0  0.9257792493947787  0.8709758138701531  0.3136665506203826  1.0000
  C   C60       1.0  0.9433612751683853  0.8670595632166211  0.3906225370411036  1.0000
  C   C61       1.0  0.40645018793304627  0.04931036165687891  0.8718610478243887  1.0000
  C   C62       1.0  0.3215078317432755  0.0055972316919082  0.8507816681439095  1.0000
  C   C63       1.0  0.29297665931687783  0.0282104004275112  0.7706312852615653  1.0000
  C   C64       1.0  0.3884145957001194  0.7341412334158475  0.8568048563446098  1.0000
  C   C65       1.0  0.41106860088280667  0.6529144792062664  0.8684125304164424  1.0000
  C   C66       1.0  0.500664175160594  0.6314102752699924  0.8780896183553251  1.0000
  C   C67       1.0  0.5219289028484367  0.5558288109289578  0.8891404579955591  1.0000
  C   C68       1.0  0.4545254762770696  0.49939627186364544  0.890458652224737  1.0000
  C   C69       1.0  0.36469767338444115  0.521612400987415  0.8816375175574435  1.0000
  C   C70       1.0  0.3433028520445802  0.5972023116040787  0.8708266997162325  1.0000
  C   C71       1.0  0.47691078772117373  0.4188516648513243  0.8980193697711625  1.0000
  C   C72       1.0  0.4184435653850684  0.3665561913856407  0.9328520186413273  1.0000
  C   C73       1.0  0.4405044708483032  0.2905464278305345  0.9353458259130675  1.0000
  C   C74       1.0  0.5742666646436874  0.31323773873157984  0.8722533334287235  1.0000
  C   C75       1.0  0.5572331927243679  0.39006405139515016  0.8682798275420752  1.0000
  C   C76       1.0  0.40506965746708806  0.94985318917508  0.12830894912062257  1.0000
  C   C77       1.0  0.3203149990061789  0.9919236414866786  0.1501350079996655  1.0000
  C   C78       1.0  0.29379179481741596  0.9699131512234587  0.2311472228030738  1.0000
  C   C79       1.0  0.38799885425549263  0.2642878292867508  0.1431197760227292  1.0000
  C   C80       1.0  0.41091843089054697  0.34595972222955135  0.13198339170016737  1.0000
  C   C81       1.0  0.5005867577170449  0.36913104760553483  0.1229052822981558  1.0000
  C   C82       1.0  0.5220384325639031  0.44517127883726454  0.11245818010225148  1.0000
  C   C83       1.0  0.45468553546211143  0.5003847132713445  0.11120419512243267  1.0000
  C   C84       1.0  0.3647755237436954  0.4764590377087644  0.11935105670330158  1.0000
  C   C85       1.0  0.3431911538764893  0.40044080139332994  0.1294969988096639  1.0000
  C   C86       1.0  0.477026551692589  0.5813845880825422  0.1040321131851627  1.0000
  C   C87       1.0  0.418634126669957  0.6324104994617271  0.06882563019369309  1.0000
  C   C88       1.0  0.44030796664302574  0.7088719564755195  0.0665138291960545  1.0000
  C   C89       1.0  0.5735909863823777  0.6891470352245433  0.13039270906611478  1.0000
  C   C90       1.0  0.5569216655273835  0.6119182656299742  0.1342867358482422  1.0000
  C   C91       1.0  0.5919364187968696  0.1280316383937858  0.05037007835930749  1.0000
  C   C92       1.0  0.6772924039577148  0.14907287218833423  0.0077283671585348995  1.0000
  C   C93       1.0  0.7055685521552914  0.22980259770918107  0.029752988200350192  1.0000
  C   C94       1.0  0.6121198841271465  0.14268055241620203  0.7358461445748077  1.0000
  C   C95       1.0  0.5894847165196994  0.1312704792799906  0.6543217809176197  1.0000
  C   C96       1.0  0.49978802871510186  0.12187223026369758  0.6318935053287262  1.0000
  C   C97       1.0  0.4784370886695228  0.11100093358729167  0.5560651705597905  1.0000
  C   C98       1.0  0.5458558202295903  0.10976106969712869  0.5002580979700609  1.0000
  C   C99       1.0  0.6357991078582188  0.1182805886204292  0.5234143350398951  1.0000
  C   C100      1.0  0.6572830123609421  0.12875527736071035  0.5992868111345402  1.0000
  C   C101      1.0  0.5231989165595009  0.10247666772458082  0.4194935788393224  1.0000
  C   C102      1.0  0.5812176766903079  0.06814964778396869  0.3673902941493877  1.0000
  C   C103      1.0  0.5587449591532518  0.06570898921103209  0.2912327971754465  1.0000
  C   C104      1.0  0.4253060874446745  0.12779384176370456  0.3133802580659903  1.0000
  C   C105      1.0  0.44285246394115063  0.1317831687002027  0.39032464651618426  1.0000
  C   C106      1.0  0.5924411010397036  0.8743501477088457  0.9509787143351076  1.0000
  C   C107      1.0  0.6779172239470623  0.8546333116134477  0.9933707691078623  1.0000
  C   C108      1.0  0.7056301073107675  0.7743612652606374  0.9709887474298496  1.0000
  C   C109      1.0  0.6139951221530211  0.8573327402411977  0.2641877954712371  1.0000
  C   C110      1.0  0.5913378921964991  0.8687273835942902  0.345628658802525  1.0000
  C   C111      1.0  0.5017455223389645  0.878282190953108  0.36760067739611196  1.0000
  C   C112      1.0  0.4800705289242301  0.888758348364476  0.4433545695840948  1.0000
  C   C113      1.0  0.5471063199612016  0.8897723715002784  0.49950213259289467  1.0000
  C   C114      1.0  0.6369955342488965  0.8813099368892097  0.47676706617145465  1.0000
  C   C115      1.0  0.6588140518389308  0.8709312226657459  0.4010029888350957  1.0000
  C   C116      1.0  0.5242384376971926  0.8968959479422977  0.5802329605521237  1.0000
  C   C117      1.0  0.5827599750258444  0.9316574798186678  0.6323602028765265  1.0000
  C   C118      1.0  0.5601832954395577  0.9341047990779501  0.7084862821733111  1.0000
  C   C119      1.0  0.425803700039438  0.8709699126319491  0.6863246466045182  1.0000
  C   C120      1.0  0.4433668996729238  0.8670631992663616  0.6093731225331425  1.0000
  N   N1        1.0  0.0165970976175487  0.26355214802251936  0.09520239731655519  1.0000
  N   N2        1.0  0.0160384836393774  0.7375040930671021  0.9026016141393995  1.0000
  N   N3        1.0  0.982544790819567  0.0957495874752539  0.7359888374077812  1.0000
  N   N4        1.0  0.9834822623971107  0.9035845299320755  0.264212759075221  1.0000
  N   N5        1.0  0.516587299023101  0.2635890860585022  0.9048120994765512  1.0000
  N   N6        1.0  0.5160211517656349  0.7375790262045855  0.0974606870440056  1.0000
  N   N7        1.0  0.48258674491184905  0.09573425206292542  0.2639427713923084  1.0000
  N   N8        1.0  0.4835243316470823  0.9035659339852555  0.735773064908976  1.0000
  O   O1        1.0  0.9012971156908093  0.11952919542404317  0.1127429774628297  1.0000
  O   O2        1.0  0.9806864490743976  0.014514702222434998  0.1295123126809372  1.0000
  O   O3        1.0  0.8403671971823242  0.927092270733098  0.1434967874134401  1.0000
  O   O4        1.0  0.8043026850268261  0.7500157081030421  0.1449698219886599  1.0000
  O   O5        1.0  0.9524614569622613  0.7813942194070195  0.1501289872597198  1.0000
  O   O6        1.0  0.9003026737710229  0.8793120962152442  0.8864493612705073  1.0000
  O   O7        1.0  0.979105988483667  0.9863584843771847  0.871343701568165  1.0000
  O   O8        1.0  0.8386679599279673  0.07070996333747098  0.8571399720129234  1.0000
  O   O9        1.0  0.8038631162638196  0.24687130715950187  0.8566474932882925  1.0000
  O   O10       1.0  0.9518046875033264  0.21816497437649218  0.8487979602015301  1.0000
  O   O11       1.0  0.096612091340802  0.11340061428359861  0.8791645855269792  1.0000
  O   O12       1.0  0.017878371227261904  0.12884916530067156  0.9854334018578399  1.0000
  O   O13       1.0  0.15921795774328018  0.14202155293835259  0.0710171514396691  1.0000
  O   O14       1.0  0.19610528387495654  0.1424608418050823  0.24711621757428762  1.0000
  O   O15       1.0  0.048128141123647994  0.15141909910913404  0.21781081805278998  1.0000
  O   O16       1.0  0.09681366518879742  0.8891503420391587  0.11949698539329029  1.0000
  O   O17       1.0  0.018573280912477202  0.8722246131852883  0.012950310723219598  1.0000
  O   O18       1.0  0.1604133803041705  0.8613724428591921  0.9278909263213962  1.0000
  O   O19       1.0  0.19781082721062399  0.8531932492513333  0.7524385178686401  1.0000
  O   O20       1.0  0.049632408583100605  0.8527881802052804  0.7825767883414372  1.0000
  O   O21       1.0  0.40130062122075566  0.11953964945128352  0.8872442677008577  1.0000
  O   O22       1.0  0.48070514999250946  0.014537577681465996  0.8704812419047059  1.0000
  O   O23       1.0  0.3403922393303418  0.9270988698197657  0.8564731146268584  1.0000
  O   O24       1.0  0.3042948981579485  0.750033362667338  0.8550505972887307  1.0000
  O   O25       1.0  0.45245216332119736  0.7814013018929625  0.8498808777337529  1.0000
  O   O26       1.0  0.40020779695770864  0.879322977192622  0.1135449581554866  1.0000
  O   O27       1.0  0.47904756467440984  0.9863604593597588  0.1285813448466868  1.0000
  O   O28       1.0  0.33867300272450507  0.0707330925591947  0.14291875946325663  1.0000
  O   O29       1.0  0.30390594620236294  0.2469269049980838  0.1433812765790563  1.0000
  O   O30       1.0  0.45184880566559116  0.2181894637459934  0.1511637611359191  1.0000
  O   O31       1.0  0.596638293790889  0.11339598787237289  0.12083932728793198  1.0000
  O   O32       1.0  0.5178751090491716  0.1288501756530707  0.014585940360191797  1.0000
  O   O33       1.0  0.6591987067625168  0.1420828567205632  0.9289834238556125  1.0000
  O   O34       1.0  0.6960834056491124  0.14241922484289657  0.7528452232228631  1.0000
  O   O35       1.0  0.5481078185009166  0.15142943856901073  0.7821579147166274  1.0000
  O   O36       1.0  0.596825998118483  0.8891527797961771  0.8805055659761294  1.0000
  O   O37       1.0  0.5185556472708653  0.8722635937368323  0.9870539791682305  1.0000
  O   O38       1.0  0.6603934975165302  0.8614375825689038  0.0721228410570944  1.0000
  O   O39       1.0  0.6977600365357687  0.8531562559177812  0.24753152600732878  1.0000
  O   O40       1.0  0.5496037963422464  0.8529493963583975  0.2174077884346488  1.0000
