data_image0
_chemical_formula_structural       Cd2H32C32N16Cl4
_chemical_formula_sum              "Cd2 H32 C32 N16 Cl4"
_cell_length_a       7.534101185864845
_cell_length_b       8.099111522253304
_cell_length_c       16.99438568300787
_cell_angle_alpha    90.00007673155082
_cell_angle_beta     90.00004471596786
_cell_angle_gamma    112.90600095874458

_space_group_name_H-M_alt    "P 1"
_space_group_IT_number       1

loop_
  _space_group_symop_operation_xyz
  'x, y, z'

loop_
  _atom_site_type_symbol
  _atom_site_label
  _atom_site_symmetry_multiplicity
  _atom_site_fract_x
  _atom_site_fract_y
  _atom_site_fract_z
  _atom_site_occupancy
  Cd  Cd1       1.0  0.999999648784751  0.9999989815317393  0.5000003301968904  1.0000
  Cd  Cd2       1.0  9.909544899471856e-07  0.5000002765980227  1.6246568179999994e-07  1.0000
  H   H1        1.0  0.5016052232236204  0.8448385376947626  0.451788977761268  1.0000
  H   H2        1.0  0.49839243064652544  0.6551612117034935  0.9517893368024986  1.0000
  H   H3        1.0  0.4983930132455966  0.15515608355741503  0.5482123620909363  1.0000
  H   H4        1.0  0.5016071346798296  0.3448428070458362  0.04821141462336699  1.0000
  H   H5        1.0  0.19138680659171564  0.6000873234307775  0.4138580826532916  1.0000
  H   H6        1.0  0.8086095803930319  0.8999095932925557  0.9138575308945107  1.0000
  H   H7        1.0  0.8086133222216533  0.39990863078148925  0.5861414919107943  1.0000
  H   H8        1.0  0.19138695623911417  0.10009041172954619  0.0861420436702716  1.0000
  H   H9        1.0  0.1844625994073894  0.3811642655412726  0.4022847764534276  1.0000
  H   H10       1.0  0.8155361187080956  0.11883605794587743  0.9022852212826962  1.0000
  H   H11       1.0  0.8155373415773183  0.6188343768504083  0.5977153865411324  1.0000
  H   H12       1.0  0.1844636344479439  0.8811652726252177  0.0977155301423309  1.0000
  H   H13       1.0  0.5038427334313269  0.5925971577732981  0.2496650851774476  1.0000
  H   H14       1.0  0.49615687317889  0.9074017672901107  0.7496644305096964  1.0000
  H   H15       1.0  0.49615739538305786  0.4073987964401482  0.750335077816267  1.0000
  H   H16       1.0  0.5038426921444312  0.0926022514556806  0.2503345556272905  1.0000
  H   H17       1.0  0.40781475110602367  0.595198463086504  0.1098853772548551  1.0000
  H   H18       1.0  0.5921856986283274  0.9047998947473416  0.6098847540202286  1.0000
  H   H19       1.0  0.5921859458808569  0.4047988315075699  0.8901147857393923  1.0000
  H   H20       1.0  0.4078159468728656  0.09520276878502902  0.3901148205463016  1.0000
  H   H21       1.0  0.8388306788128473  0.47538517388275636  0.1711827151598513  1.0000
  H   H22       1.0  0.1611721650078763  0.0246195707393326  0.671184049903907  1.0000
  H   H23       1.0  0.16117209834886376  0.5246107654943515  0.8288162709750608  1.0000
  H   H24       1.0  0.8388291048359874  0.9753884691518593  0.3288167015235572  1.0000
  H   H25       1.0  0.9077406345600281  0.4545638864282822  0.3136574201691644  1.0000
  H   H26       1.0  0.09225683471588299  0.0454401180883153  0.8136593331030113  1.0000
  H   H27       1.0  0.0922594942523247  0.5454320677828053  0.6863415659653  1.0000
  H   H28       1.0  0.9077398944314437  0.9545666036732285  0.18634141832324502  1.0000
  H   H29       1.0  0.8517338961391657  0.5497911558767044  0.43138279130103285  1.0000
  H   H30       1.0  0.14826501167807743  0.9502085043786721  0.9313832213099431  1.0000
  H   H31       1.0  0.14826736901717644  0.4502074790944519  0.568615606404876  1.0000
  H   H32       1.0  0.8517320931255554  0.049792841022871  0.0686157648257506  1.0000
  C   C1        1.0  0.5588246422592676  0.7449223649628823  0.4367098575855195  1.0000
  C   C2        1.0  0.4411722037141245  0.7550786718417442  0.9367102618215952  1.0000
  C   C3        1.0  0.4411754865571352  0.2550735892529232  0.5632914822674451  1.0000
  C   C4        1.0  0.5588247132638811  0.24492536174274454  0.063291078033437  1.0000
  C   C5        1.0  0.25378513819520515  0.519330873156207  0.3802799190355017  1.0000
  C   C6        1.0  0.746210945401984  0.9806685972672824  0.880279986664128  1.0000
  C   C7        1.0  0.7462155587906663  0.48066642143668764  0.6197196555291242  1.0000
  C   C8        1.0  0.25378540340150124  0.019334095934233596  0.11972017633112128  1.0000
  C   C9        1.0  0.21340945988704615  0.5246355205205546  0.29377546300685964  1.0000
  C   C10       1.0  0.7865882183550709  0.9753649364217409  0.7937767179751276  1.0000
  C   C11       1.0  0.7865914249274866  0.47535908589292575  0.7062235231272993  1.0000
  C   C12       1.0  0.21340737444725016  0.024639104578554297  0.2062240334500558  1.0000
  C   C13       1.0  0.35383899962425147  0.563674722935545  0.23518261997031692  1.0000
  C   C14       1.0  0.6461579087934266  0.9363241589578878  0.7351808589803213  1.0000
  C   C15       1.0  0.6461592368439568  0.4363198983154462  0.764818131452266  1.0000
  C   C16       1.0  0.3538422247034063  0.0636812001697109  0.26481871558682  1.0000
  C   C17       1.0  0.30038493217988094  0.5646793433439184  0.1566084263492939  1.0000
  C   C18       1.0  0.6996207872225925  0.93532186012677  0.6566090368655182  1.0000
  C   C19       1.0  0.6996197373300319  0.4353179289979962  0.843391148216007  1.0000
  C   C20       1.0  0.3003806704509486  0.06468349158618739  0.34339171456110057  1.0000
  C   C21       1.0  0.9835974153493435  0.496568471799712  0.1912511393822456  1.0000
  C   C22       1.0  0.0164036051903977  0.003435020233105501  0.6912529988535213  1.0000
  C   C23       1.0  0.016405929984870154  0.5034288079580164  0.8087478467531994  1.0000
  C   C24       1.0  0.9835936921294246  0.9965730419090592  0.30874775257326087  1.0000
  C   C25       1.0  0.023512427250942405  0.48859394682294527  0.2704959657076103  1.0000
  C   C26       1.0  0.9764869736615366  0.011408529618385897  0.7704975731002577  1.0000
  C   C27       1.0  0.976489025736086  0.5114019999711559  0.7295030204270745  1.0000
  C   C28       1.0  0.023512403835141443  0.9885981773091713  0.2295031783264463  1.0000
  C   C29       1.0  0.7317805765453329  0.5912724129623823  0.4251230697372179  1.0000
  C   C30       1.0  0.2682177415556524  0.9087258818412566  0.9251229257352661  1.0000
  C   C31       1.0  0.2682214446152144  0.40872487421351866  0.5748765048276354  1.0000
  C   C32       1.0  0.7317787950754847  0.09127412317965877  0.0748760603998946  1.0000
  N   N1        1.0  0.5643623841681701  0.4871958611487415  0.3934207725513659  1.0000
  N   N2        1.0  0.4356330869186991  0.012803101290174397  0.8934204290024681  1.0000
  N   N3        1.0  0.4356383128166854  0.5128014334429736  0.6065782135836315  1.0000
  N   N4        1.0  0.5643626937102582  0.987198251528355  0.10657855713299821  1.0000
  N   N5        1.0  0.7348035966110655  0.750944725064933  0.4524109575856627  1.0000
  N   N6        1.0  0.265194627571077  0.7490563672037284  0.952410708776938  1.0000
  N   N7        1.0  0.26519710037581484  0.2490525695291339  0.5475892054085847  1.0000
  N   N8        1.0  0.7348017212313919  0.25094632599660116  0.0475888657886827  1.0000
  N   N9        1.0  0.45601333758964563  0.5877477343655428  0.4014858029815898  1.0000
  N   N10       1.0  0.5439822508136912  0.9122504806047046  0.9014851679625195  1.0000
  N   N11       1.0  0.5439867912247321  0.4122482198479033  0.5985143600121248  1.0000
  N   N12       1.0  0.45601409798878473  0.08775221259563179  0.0985144066031012  1.0000
  N   N13       1.0  0.11859422695388844  0.5322240181179653  0.1347087990847911  1.0000
  N   N14       1.0  0.8814068763837992  0.9677757795148595  0.6347089049680363  1.0000
  N   N15       1.0  0.8814066578616603  0.46777058829669466  0.8652907754789894  1.0000
  N   N16       1.0  0.11859647363591111  0.032230905160552895  0.3652912580297212  1.0000
  Cl  Cl1       1.0  0.8083055967532431  0.19834205796675516  0.46414113528557277  1.0000
  Cl  Cl2       1.0  0.19169219789415584  0.3016558324902476  0.9641408953066063  1.0000
  Cl  Cl3       1.0  0.19169415640481438  0.8016592726066988  0.5358607929986974  1.0000
  Cl  Cl4       1.0  0.8083073627477191  0.6983387813425849  0.0358592676865754  1.0000
