data_image0
_chemical_formula_structural       Ag4H22C24S4N6O12
_chemical_formula_sum              "Ag4 H22 C24 S4 N6 O12"
_cell_length_a       8.214825591187191
_cell_length_b       10.291860284383732
_cell_length_c       11.034350397368812
_cell_angle_alpha    89.21586628990669
_cell_angle_beta     73.33054659158731
_cell_angle_gamma    67.44053098370726

_space_group_name_H-M_alt    "P 1"
_space_group_IT_number       1

loop_
  _space_group_symop_operation_xyz
  'x, y, z'

loop_
  _atom_site_type_symbol
  _atom_site_label
  _atom_site_symmetry_multiplicity
  _atom_site_fract_x
  _atom_site_fract_y
  _atom_site_fract_z
  _atom_site_occupancy
  Ag  Ag1       1.0  0.39612551537253177  0.4472663819406364  0.3492477240695209  1.0000
  Ag  Ag2       1.0  0.6038735879364197  0.5527286508801909  0.6507504043001973  1.0000
  Ag  Ag3       1.0  0.4947282794858835  0.8067549329715861  0.09505323308359695  1.0000
  Ag  Ag4       1.0  0.5052826593972952  0.19324645940927354  0.9049478796096935  1.0000
  H   H1        1.0  0.23000087037394942  0.7453179050238389  0.48294448916427524  1.0000
  H   H2        1.0  0.770001906266387  0.2546824126942155  0.5170501295941962  1.0000
  H   H3        1.0  0.9184715615078004  0.946452533730245  0.5631032544638687  1.0000
  H   H4        1.0  0.08152835630794193  0.053545681928135004  0.4368983065402148  1.0000
  H   H5        1.0  0.6517469028773919  0.9335283243461486  0.5080306417273377  1.0000
  H   H6        1.0  0.3482520365800852  0.0664667245248864  0.4919747706538687  1.0000
  H   H7        1.0  0.012756982944381514  0.510173319126686  0.3251657445294073  1.0000
  H   H8        1.0  0.9872370682507423  0.48982384541857027  0.67483973357151  1.0000
  H   H9        1.0  0.4946897722306787  0.13535096093588814  0.27202523114509364  1.0000
  H   H10       1.0  0.5053085677379912  0.864643017714279  0.7279748738488864  1.0000
  H   H11       1.0  0.7752029137646949  0.9143696278716719  0.18679458171973803  1.0000
  H   H12       1.0  0.2248014463982599  0.08562752052714019  0.8132024629288496  1.0000
  H   H13       1.0  0.08942521312547312  0.9247658493069295  0.13506619733460923  1.0000
  H   H14       1.0  0.9105771482847943  0.07523764749894471  0.864930290548131  1.0000
  H   H15       1.0  0.8098122007267321  0.3701127576069894  0.27027639521524094  1.0000
  H   H16       1.0  0.1901800360486163  0.6298907372888466  0.7297203316068986  1.0000
  H   H17       1.0  0.0004442713406974835  0.628506119516622  0.060800653254865694  1.0000
  H   H18       1.0  0.9995643206795746  0.3714973880128269  0.9392000101725629  1.0000
  H   H19       1.0  0.16693566241922758  0.46747898632057877  0.0897074277150836  1.0000
  H   H20       1.0  0.8330688046789873  0.5325276910537513  0.9102913248077944  1.0000
  H   H21       1.0  0.18984933658979497  0.512576426195217  0.9304619069579091  1.0000
  H   H22       1.0  0.8101578311570847  0.4874249629615407  0.06953815721087146  1.0000
  C   C1        1.0  0.10798493346185009  0.7406367752167071  0.4660440440909995  1.0000
  C   C2        1.0  0.8920135953678143  0.25936672438388086  0.5339541267715263  1.0000
  C   C3        1.0  0.9363670765099315  0.8529850259312539  0.5074362291388965  1.0000
  C   C4        1.0  0.06363072994231794  0.14701741548612554  0.4925620973450224  1.0000
  C   C5        1.0  0.7859043377355661  0.8448036002144265  0.4786375933403237  1.0000
  C   C6        1.0  0.2140922958218782  0.155193559792643  0.5213655487721525  1.0000
  C   C7        1.0  0.8132764950053398  0.7210853195563304  0.41097719065486177  1.0000
  C   C8        1.0  0.18672213162923879  0.27891289837114636  0.5890255383434422  1.0000
  C   C9        1.0  0.9876472935780001  0.6097399064475796  0.3755325311177203  1.0000
  C   C10       1.0  0.012349595960287788  0.3902593621636327  0.6244669152390188  1.0000
  C   C11       1.0  0.6319626083776272  0.13634397550817567  0.25143870731474754  1.0000
  C   C12       1.0  0.3680362742377954  0.8636563510234295  0.7485603259278123  1.0000
  C   C13       1.0  0.7898052545711778  0.0127265376378887  0.20323099495251987  1.0000
  C   C14       1.0  0.21019343350771186  0.987271674270751  0.7967690025414742  1.0000
  C   C15       1.0  0.9628298355065967  0.018727318293549903  0.1742719863234612  1.0000
  C   C16       1.0  0.037166305497294244  0.9812783004681835  0.8257275562760783  1.0000
  C   C17       1.0  0.9715567832002348  0.14879692649708426  0.19686049405741818  1.0000
  C   C18       1.0  0.02843883563832627  0.8512023423769433  0.8031392097921071  1.0000
  C   C19       1.0  0.8087054813548421  0.26783078971454427  0.2475996540121272  1.0000
  C   C20       1.0  0.19129453886807116  0.7321674159124569  0.7523973544847706  1.0000
  C   C21       1.0  0.25757563673514744  0.6310499806520155  0.0450394722113003  1.0000
  C   C22       1.0  0.74244127110164  0.36895672017574543  0.9549685419024031  1.0000
  C   C23       1.0  0.14750139404902293  0.5559358079541495  0.03035019815091288  1.0000
  C   C24       1.0  0.8525027044575351  0.4440666381679818  0.969649572373392  1.0000
  S   S1        1.0  0.633064547127539  0.7053869360451159  0.35978540872748255  1.0000
  S   S2        1.0  0.3669313845339205  0.2946091637724706  0.6402169785049523  1.0000
  S   S3        1.0  0.19016351294003903  0.16297100293414252  0.15678144592666146  1.0000
  S   S4        1.0  0.809834841834515  0.8370303800372128  0.8432167786858571  1.0000
  N   N1        1.0  0.13300168839838014  0.6202351419510992  0.40141060341021273  1.0000
  N   N2        1.0  0.8669969587176353  0.3797630739700963  0.5985912150866569  1.0000
  N   N3        1.0  0.6412277881425725  0.26160257310377233  0.2731290104140101  1.0000
  N   N4        1.0  0.35876787165886276  0.7383966917576928  0.7268688724326396  1.0000
  N   N5        1.0  0.3444318292548373  0.6933960667895533  0.05789510733897884  1.0000
  N   N6        1.0  0.6555660591231457  0.3066063666027219  0.9420995771391959  1.0000
  O   O1        1.0  0.7030757360629781  0.7003585035180037  0.21934519141884587  1.0000
  O   O2        1.0  0.2969249302871546  0.2996333619898479  0.7806562733424302  1.0000
  O   O3        1.0  0.6238394137999494  0.5702277605984065  0.3986037411368884  1.0000
  O   O4        1.0  0.3761571173503243  0.4297694094400414  0.6014039534827662  1.0000
  O   O5        1.0  0.46553331309706175  0.830106791097414  0.41989419073530604  1.0000
  O   O6        1.0  0.534465221408155  0.1698893021757186  0.5801049500072466  1.0000
  O   O7        1.0  0.15726762841757852  0.3011937557824069  0.2148662886524662  1.0000
  O   O8        1.0  0.8427263454540679  0.6988086884296935  0.7851337208112386  1.0000
  O   O9        1.0  0.31052728531458484  0.04333992500933449  0.20732068804127834  1.0000
  O   O10       1.0  0.6894732161107767  0.9566646345179278  0.7926779802085094  1.0000
  O   O11       1.0  0.24803369204405357  0.14922201128329254  0.015870292072506176  1.0000
  O   O12       1.0  0.7519671836485105  0.8507793731687058  0.9841283280558814  1.0000
