data_image0
_chemical_formula_structural       Zn2H24C54N6O20
_chemical_formula_sum              "Zn2 H24 C54 N6 O20"
_cell_length_a       13.807988972700883
_cell_length_b       15.194309897814023
_cell_length_c       19.102077761915144
_cell_angle_alpha    89.72866123820062
_cell_angle_beta     90.66937785228819
_cell_angle_gamma    90.58322626499641

_space_group_name_H-M_alt    "P 1"
_space_group_IT_number       1

loop_
  _space_group_symop_operation_xyz
  'x, y, z'

loop_
  _atom_site_type_symbol
  _atom_site_label
  _atom_site_symmetry_multiplicity
  _atom_site_fract_x
  _atom_site_fract_y
  _atom_site_fract_z
  _atom_site_occupancy
  Zn  Zn1       1.0  0.3975430322714358  0.49614910661117045  0.49790715953163567  1.0000
  Zn  Zn2       1.0  0.5988228763113455  0.4905142403997544  0.49763309967944747  1.0000
  H   H1        1.0  0.3450182989995766  0.5057061357110868  0.7208507612407404  1.0000
  H   H2        1.0  0.6565898241463798  0.5188631282401132  0.27650740249846717  1.0000
  H   H3        1.0  0.34583863512777663  0.5220459227925645  0.2750976467520871  1.0000
  H   H4        1.0  0.6546337396762707  0.5329420802555307  0.718138102384657  1.0000
  H   H5        1.0  0.3450720391457479  0.5421864734501867  0.8487100815340939  1.0000
  H   H6        1.0  0.6569198044395819  0.5553044999971487  0.14830301721007544  1.0000
  H   H7        1.0  0.34527544003325505  0.5575403945330849  0.14668643391357963  1.0000
  H   H8        1.0  0.6559265398730858  0.5667932424243672  0.8466612476532945  1.0000
  H   H9        1.0  0.3571703882379254  0.20992505312331391  0.5568766830196595  1.0000
  H   H10       1.0  0.6406136335089413  0.7773424537638788  0.43916603943713284  1.0000
  H   H11       1.0  0.6998946663393537  0.084220052914354  0.39933970551174985  1.0000
  H   H12       1.0  0.30593451376562086  0.9037597102227295  0.6048161372156073  1.0000
  H   H13       1.0  0.7090040110800828  0.9219776482025636  0.40240059551752694  1.0000
  H   H14       1.0  0.29445187236233034  0.0651741895038569  0.5992342115817237  1.0000
  H   H15       1.0  0.2503882007311802  0.4016011771749246  0.5710386138657668  1.0000
  H   H16       1.0  0.7457103338536938  0.5881733100317136  0.42544667237783074  1.0000
  H   H17       1.0  0.2437668580036174  0.6117735089666709  0.4337163549201364  1.0000
  H   H18       1.0  0.7523403772678632  0.3812294076130982  0.5656012736879462  1.0000
  H   H19       1.0  0.626893122050916  0.3373771907422878  0.3569445179789739  1.0000
  H   H20       1.0  0.374583024318646  0.6764580284253442  0.6657974161931649  1.0000
  H   H21       1.0  0.1860842061630805  0.7824001171422167  0.37139741856913844  1.0000
  H   H22       1.0  0.8018698373763512  0.28569812168984743  0.6947262664389557  1.0000
  H   H23       1.0  0.1950626515401197  0.223463197280438  0.6386557533733495  1.0000
  H   H24       1.0  0.8032837864795894  0.6810301316822915  0.288465260601086  1.0000
  C   C1        1.0  0.5145427403864176  0.6641834952289045  0.4972806972681454  1.0000
  C   C2        1.0  0.482335819749288  0.32342928414161065  0.499228939509358  1.0000
  C   C3        1.0  0.5616870208076604  0.183728306910254  0.46088378563435134  1.0000
  C   C4        1.0  0.4420236100747985  0.8040302201831794  0.5413239665628069  1.0000
  C   C5        1.0  0.5698525916022916  0.09119703871449758  0.4624254472172921  1.0000
  C   C6        1.0  0.43482478326527024  0.8966363341638582  0.540340568758019  1.0000
  C   C7        1.0  0.49907654574806054  0.0406511967629157  0.4999839561146048  1.0000
  C   C8        1.0  0.5049154723759415  0.947157634343  0.5021585417867058  1.0000
  C   C9        1.0  0.4218382467721041  0.0836836232382581  0.5348265584348654  1.0000
  C   C10       1.0  0.5809862038541167  0.9039291741774775  0.4661674573707586  1.0000
  C   C11       1.0  0.645505394071648  0.04564064142466861  0.4271124950773099  1.0000
  C   C12       1.0  0.35965177131483717  0.9421429320099505  0.5762186125457234  1.0000
  C   C13       1.0  0.6507506302854225  0.9559602193371788  0.42903638542484407  1.0000
  C   C14       1.0  0.35319825694884327  0.03160770527953359  0.5728304035888883  1.0000
  C   C15       1.0  0.20402471747413384  0.4461936229216264  0.5413442919392041  1.0000
  C   C16       1.0  0.79223459925079  0.5449575805035991  0.45628447555454  1.0000
  C   C17       1.0  0.20027631381125843  0.5646040089287611  0.4629890861244237  1.0000
  C   C18       1.0  0.7958717682002217  0.428796295116605  0.5368374783263479  1.0000
  C   C19       1.0  0.0985102201709367  0.5655506775529417  0.46064841357507197  1.0000
  C   C20       1.0  0.8973794847197849  0.43158754247706105  0.5427670071557316  1.0000
  C   C21       1.0  0.10286440414545688  0.44069843926443747  0.54372358868563  1.0000
  C   C22       1.0  0.8933319688973212  0.5522816911567149  0.45570966441906086  1.0000
  C   C23       1.0  0.04914321825438608  0.5007650564056689  0.5015945229919084  1.0000
  C   C24       1.0  0.946797169963453  0.49482146140015704  0.5003321154737037  1.0000
  C   C25       1.0  0.04270655183573519  0.6246593909861957  0.41689926887254813  1.0000
  C   C26       1.0  0.9531801912518032  0.37356054771652236  0.5875494013815585  1.0000
  C   C27       1.0  0.05289533217146669  0.37738775062249635  0.5866549392398072  1.0000
  C   C28       1.0  0.9433922079074362  0.6163539660381189  0.4135141093642575  1.0000
  C   C29       1.0  0.4991752035848051  0.5029092877452399  0.6344614133362116  1.0000
  C   C30       1.0  0.5006819362568251  0.49996446986304477  0.3602893047345789  1.0000
  C   C31       1.0  0.41260529924785766  0.5199671318071708  0.7488118303827918  1.0000
  C   C32       1.0  0.5888492523358052  0.5275532560407042  0.24755056170003095  1.0000
  C   C33       1.0  0.4133285764020726  0.5294106747315863  0.24662099324929446  1.0000
  C   C34       1.0  0.5875858579459459  0.5345115847018319  0.7475627279863275  1.0000
  C   C35       1.0  0.4125667954287023  0.539656855445429  0.8198104845497627  1.0000
  C   C36       1.0  0.5891710776895634  0.5477347542225176  0.1765159871681945  1.0000
  C   C37       1.0  0.4130614978901048  0.549062830686438  0.17555205752573502  1.0000
  C   C38       1.0  0.5882225488780718  0.5533976656364816  0.8186568991635357  1.0000
  C   C39       1.0  0.500516942814663  0.5571151580136373  0.8552266924917261  1.0000
  C   C40       1.0  0.5011119545339611  0.5589147698970789  0.1399559154812238  1.0000
  C   C41       1.0  0.4999076011166892  0.5182279296001654  0.7119930536312253  1.0000
  C   C42       1.0  0.501009160880848  0.5185727202103863  0.2832007437095498  1.0000
  C   C43       1.0  0.5009909817993616  0.5787607317131175  0.0648777717975761  1.0000
  C   C44       1.0  0.5006310936763325  0.5777420813843575  0.9300053735968846  1.0000
  C   C45       1.0  0.4159244142208108  0.17563621652192296  0.5311729485212311  1.0000
  C   C46       1.0  0.5842178322698003  0.8117227617503389  0.4673563118232097  1.0000
  C   C47       1.0  0.48524548421413977  0.22502080738536276  0.495619791085268  1.0000
  C   C48       1.0  0.515122503133881  0.7622914097623122  0.5033958919159717  1.0000
  C   C49       1.0  0.6319171700554234  0.24046542646581054  0.4213696066710854  1.0000
  C   C50       1.0  0.37346832257514956  0.7512506386069615  0.5856863358361226  1.0000
  C   C51       1.0  0.08847615430284608  0.6940504986803047  0.371488632329644  1.0000
  C   C52       1.0  0.9083833224203911  0.3068075791426281  0.6356962519353075  1.0000
  C   C53       1.0  0.11344645559938019  0.3221077121390151  0.6359395164394925  1.0000
  C   C54       1.0  0.8827400112720979  0.6784371027890329  0.3698198221534811  1.0000
  N   N1        1.0  0.5862313971169755  0.5921681507786334  0.9635800156823394  1.0000
  N   N2        1.0  0.4152720670649258  0.5903456234206031  0.0311130513050486  1.0000
  N   N3        1.0  0.5865015051891334  0.5931857778375118  0.03246850473245641  1.0000
  N   N4        1.0  0.414959709263769  0.5903622240651812  0.962244707830614  1.0000
  N   N5        1.0  0.24971042821877623  0.5057282032409489  0.5013756701714345  1.0000
  N   N6        1.0  0.7466472205211544  0.48484439133587637  0.49572154049263883  1.0000
  O   O1        1.0  0.4324018535183213  0.6267314979792146  0.5050497929034493  1.0000
  O   O2        1.0  0.5638401574265757  0.36138248986552673  0.5101836852599106  1.0000
  O   O3        1.0  0.40093057437059787  0.3608348031239429  0.4927344803727465  1.0000
  O   O4        1.0  0.5933764242509341  0.6256787263479424  0.4835929400909365  1.0000
  O   O5        1.0  0.4172620442042286  0.4871375123469475  0.605350720037599  1.0000
  O   O6        1.0  0.5814765712024226  0.47991440777720834  0.38926015422647  1.0000
  O   O7        1.0  0.42020153041561764  0.5069335829049492  0.3914488394211801  1.0000
  O   O8        1.0  0.5800789479686799  0.5089247766131422  0.6034046545081395  1.0000
  O   O9        1.0  0.7195942366826171  0.243425556998794  0.4308235912166012  1.0000
  O   O10       1.0  0.5843331992899222  0.28892845842784703  0.37217778682654074  1.0000
  O   O11       1.0  0.28546815508322243  0.7481274189184502  0.5785858628448538  1.0000
  O   O12       1.0  0.4218739615681101  0.7118221727904342  0.6396226786777107  1.0000
  O   O13       1.0  0.0603384677604808  0.7107728390453971  0.3121839168262143  1.0000
  O   O14       1.0  0.16248426194391635  0.7371408012302112  0.4039925266415453  1.0000
  O   O15       1.0  0.945634278610015  0.23644294175694822  0.6499648411871704  1.0000
  O   O16       1.0  0.8238156502356799  0.33352727416637146  0.6638877842650928  1.0000
  O   O17       1.0  0.12582335007248696  0.34055976996379667  0.6973376448509756  1.0000
  O   O18       1.0  0.15774915289661345  0.25532635150406696  0.6027532368473985  1.0000
  O   O19       1.0  0.8680245681984927  0.7546068855718389  0.38557573182028193  1.0000
  O   O20       1.0  0.8418020331693297  0.6371138555844027  0.3140024155033957  1.0000
