data_image0
_chemical_formula_structural       Na4H56C32N4O20
_chemical_formula_sum              "Na4 H56 C32 N4 O20"
_cell_length_a       5.589323333424542
_cell_length_b       6.151743179396183
_cell_length_c       31.790419788178774
_cell_angle_alpha    89.99952040979788
_cell_angle_beta     90.0004107795937
_cell_angle_gamma    108.58018725910748

_space_group_name_H-M_alt    "P 1"
_space_group_IT_number       1

loop_
  _space_group_symop_operation_xyz
  'x, y, z'

loop_
  _atom_site_type_symbol
  _atom_site_label
  _atom_site_symmetry_multiplicity
  _atom_site_fract_x
  _atom_site_fract_y
  _atom_site_fract_z
  _atom_site_occupancy
  Na  Na1       1.0  0.22691727496449243  0.913975246776673  0.4718531825688147  1.0000
  Na  Na2       1.0  0.2730883946567674  0.5860183709443875  0.9718544282037698  1.0000
  Na  Na3       1.0  0.7730829498976632  0.08602689526824044  0.5281456317574325  1.0000
  Na  Na4       1.0  0.7269229380345197  0.413964795240041  0.02814627349872721  1.0000
  H   H1        1.0  0.9697557796095709  0.32052784496331554  0.33346092380702436  1.0000
  H   H2        1.0  0.5302344406228627  0.1794717915609993  0.8334599108545505  1.0000
  H   H3        1.0  0.030254092305156702  0.67948626783722  0.6665378905055308  1.0000
  H   H4        1.0  0.46976511696053075  0.8205234796879565  0.16653638699696677  1.0000
  H   H5        1.0  0.9510865811214517  0.4347591959390797  0.3804866228665702  1.0000
  H   H6        1.0  0.5489038457020357  0.06523318468120463  0.8804855020972155  1.0000
  H   H7        1.0  0.04891481583762678  0.5652412200096395  0.619512506021195  1.0000
  H   H8        1.0  0.45109984120816893  0.9347586231872781  0.11951079575655403  1.0000
  H   H9        1.0  0.4000643381739835  0.31222591959856777  0.3576910135500456  1.0000
  H   H10       1.0  0.09992143186973833  0.18777751007753812  0.8576896358998456  1.0000
  H   H11       1.0  0.5999367160411  0.6877985609658454  0.6423068570743595  1.0000
  H   H12       1.0  0.9000780175700739  0.812207449364351  0.14230697652162416  1.0000
  H   H13       1.0  0.1465241814077984  0.8122709602431614  0.35030189956950153  1.0000
  H   H14       1.0  0.3534766907960432  0.6877374187865825  0.8502981947818571  1.0000
  H   H15       1.0  0.8534727979758687  0.1877621395664235  0.6497047787326551  1.0000
  H   H16       1.0  0.6465262209445015  0.31223720645569847  0.14970124869009283  1.0000
  H   H17       1.0  0.3068040995883905  0.12297858893634132  0.2981147766504081  1.0000
  H   H18       1.0  0.1931836858760789  0.3770167153052881  0.7981133096955306  1.0000
  H   H19       1.0  0.6931844588891211  0.8770459699270108  0.7018915871017272  1.0000
  H   H20       1.0  0.8067942336758662  0.6229580666002762  0.2018880211434961  1.0000
  H   H21       1.0  0.6814754808454425  0.14008796920115435  0.2534707151152986  1.0000
  H   H22       1.0  0.8185058998483826  0.35990377472678153  0.7534704768183931  1.0000
  H   H23       1.0  0.3185030336225124  0.8599435276316852  0.7465315593504871  1.0000
  H   H24       1.0  0.18148345185937842  0.6400829667490342  0.24652959576580005  1.0000
  H   H25       1.0  0.8853668946573094  0.8386389934397301  0.2610087535520904  1.0000
  H   H26       1.0  0.6146202878389675  0.6613576376466881  0.7610052166593988  1.0000
  H   H27       1.0  0.1146198783305081  0.1613855766444203  0.7389906898766299  1.0000
  H   H28       1.0  0.385388249711454  0.3386427335442121  0.23899265398594594  1.0000
  H   H29       1.0  0.7119526912835923  0.5162249937621086  0.31105310847697615  1.0000
  H   H30       1.0  0.7880357042878502  0.9837763819757868  0.8110488763366136  1.0000
  H   H31       1.0  0.2880342441053827  0.4838150440156071  0.6889497950990062  1.0000
  H   H32       1.0  0.2119732841798623  0.0162102364037509  0.18895056712250385  1.0000
  H   H33       1.0  0.7189967918067738  0.6526298157013387  0.4717089249080574  1.0000
  H   H34       1.0  0.7810085175208101  0.8473650008386928  0.9717084142954493  1.0000
  H   H35       1.0  0.28099695965362775  0.34737924190553576  0.5282917767743032  1.0000
  H   H36       1.0  0.21901458999596465  0.15260606030710736  0.028290714614705306  1.0000
  H   H37       1.0  0.7867474101750319  0.6038943639625673  0.5183506786911991  1.0000
  H   H38       1.0  0.7132787080981728  0.8961022631687711  0.018350102714443  1.0000
  H   H39       1.0  0.2132540949870787  0.39611636378776904  0.48164939386732203  1.0000
  H   H40       1.0  0.28674679763221184  0.1038705016929455  0.9816483970731584  1.0000
  H   H41       1.0  0.22626676251809402  0.9146613230124532  0.557170394567436  1.0000
  H   H42       1.0  0.2737461324617598  0.5853355969877042  0.057171634472950913  1.0000
  H   H43       1.0  0.7737394849325626  0.0853476562723188  0.4428271615101664  1.0000
  H   H44       1.0  0.7262634150816895  0.4146475803861805  0.9428293817901476  1.0000
  H   H45       1.0  0.3429436528131121  0.7128502237335896  0.5554694150826124  1.0000
  H   H46       1.0  0.15707443687657743  0.787146677435921  0.05547001654746001  1.0000
  H   H47       1.0  0.6570541738057046  0.2871502145981353  0.4445293992458447  1.0000
  H   H48       1.0  0.8429440905744487  0.21284159988535833  0.9445313142687797  1.0000
  H   H49       1.0  0.8537759749420816  0.825287552796638  0.4078671681515759  1.0000
  H   H50       1.0  0.6462263665388975  0.6747163914540835  0.9078667359967343  1.0000
  H   H51       1.0  0.14623395112618454  0.17473171589993094  0.5921332189569668  1.0000
  H   H52       1.0  0.35379344103372296  0.3252804715889753  0.09213207832967643  1.0000
  H   H53       1.0  0.9824680774542784  0.08945687946156514  0.3911867058619337  1.0000
  H   H54       1.0  0.5175294373183377  0.41054740157670716  0.8911862060101399  1.0000
  H   H55       1.0  0.017542407600537054  0.9105589482375295  0.6088133666895461  1.0000
  H   H56       1.0  0.4824844557201757  0.5894529360417309  0.10881166463391173  1.0000
  C   C1        1.0  0.3983215304181302  0.52772285723826  0.4097435988533675  1.0000
  C   C2        1.0  0.10166755851999192  0.9722713658230545  0.9097416824769697  1.0000
  C   C3        1.0  0.6016637461014867  0.4722725035154411  0.5902577319643854  1.0000
  C   C4        1.0  0.8983583258243897  0.027737490353175104  0.09025807551712012  1.0000
  C   C5        1.0  0.31189370253068205  0.44435043893768983  0.3646005392366548  1.0000
  C   C6        1.0  0.18809138617569943  0.055639189252524104  0.8645993678186273  1.0000
  C   C7        1.0  0.6880946392732242  0.5556534963469631  0.6353982750908358  1.0000
  C   C8        1.0  0.8119153121327971  0.944356037226342  0.13539850283203955  1.0000
  C   C9        1.0  0.4164438346447171  0.6407925048096389  0.3338838412168031  1.0000
  C   C10       1.0  0.08354053752879041  0.8592092352036501  0.8338799456348412  1.0000
  C   C11       1.0  0.5835394222158357  0.3592372435480939  0.6661181186892977  1.0000
  C   C12       1.0  0.9164553416896695  0.14077574661033762  0.16611886870870762  1.0000
  C   C13       1.0  0.30588273136241645  0.8150550178330395  0.33027223844229786  1.0000
  C   C14       1.0  0.1941088909799191  0.6849329559086215  0.8302679885701851  1.0000
  C   C15       1.0  0.6940980192301255  0.18496271499353167  0.6697325525173456  1.0000
  C   C16       1.0  0.8058921815335723  0.3150365246202683  0.1697317694672549  1.0000
  C   C17       1.0  0.3994459291880119  0.9925651999450623  0.3013718314815464  1.0000
  C   C18       1.0  0.10054909295985943  0.5074401732430687  0.80137142358592  1.0000
  C   C19       1.0  0.6005384455564667  0.007457666425892704  0.6986276119493838  1.0000
  C   C20       1.0  0.899443883167379  0.49255170175260343  0.19862896355270016  1.0000
  C   C21       1.0  0.6081707039684261  0.0023446591183641998  0.27627175769321616  1.0000
  C   C22       1.0  0.8918024631775054  0.4976228897750873  0.7762709082224079  1.0000
  C   C23       1.0  0.39180458285867575  0.997662795485873  0.7237305167960956  1.0000
  C   C24       1.0  0.1081777464444755  0.502343284039327  0.22373010806401086  1.0000
  C   C25       1.0  0.7218316901445194  0.8315189409891842  0.280254221294669  1.0000
  C   C26       1.0  0.7781418579755839  0.6684793389332241  0.7802559376509492  1.0000
  C   C27       1.0  0.2781480502617626  0.16851598567212284  0.7197433347649567  1.0000
  C   C28       1.0  0.2218397401196555  0.33150573239095854  0.2197466514181343  1.0000
  C   C29       1.0  0.6252765416888906  0.6514751773152342  0.30860069092211273  1.0000
  C   C30       1.0  0.8747119648305812  0.8485021550604087  0.8085969862314004  1.0000
  C   C31       1.0  0.3747083380966957  0.34853909214312756  0.691401268998213  1.0000
  C   C32       1.0  0.12529329107407253  0.1514690179922198  0.19140245724323532  1.0000
  N   N1        1.0  0.036770857482366616  0.3380432710046223  0.3635620300098381  1.0000
  N   N2        1.0  0.4632171444044459  0.16194978480161382  0.8635608362083576  1.0000
  N   N3        1.0  0.9632263560855421  0.661955452420365  0.6364374134407458  1.0000
  N   N4        1.0  0.536790166910379  0.8380471565880755  0.1364354616396639  1.0000
  O   O1        1.0  0.6284442882563042  0.5473864469553362  0.41832724145083944  1.0000
  O   O2        1.0  0.8715524601155951  0.9526140104202414  0.9183274307969358  1.0000
  O   O3        1.0  0.3715529793908204  0.45261743237250596  0.5816722019948487  1.0000
  O   O4        1.0  0.12847158518009394  0.047389701026233404  0.08167641648473992  1.0000
  O   O5        1.0  0.24186923032252858  0.5700067423527814  0.4340990481820556  1.0000
  O   O6        1.0  0.25812210619076137  0.9299821137662364  0.9340968198759543  1.0000
  O   O7        1.0  0.7581267030643346  0.429983395355876  0.5659016535176562  1.0000
  O   O8        1.0  0.7419060140255241  0.07001297842689522  0.0659001070890213  1.0000
  O   O9        1.0  0.8073501035302969  0.726932443599033  0.4974615597773635  1.0000
  O   O10       1.0  0.692670135652577  0.7730620714570196  0.9974612332975498  1.0000
  O   O11       1.0  0.19264426099587695  0.27307832891320777  0.5025388273430594  1.0000
  O   O12       1.0  0.30735955349871363  0.22691238592571494  0.0025375810475978  1.0000
  O   O13       1.0  0.35417770853604946  0.8608086810854376  0.5424751061898406  1.0000
  O   O14       1.0  0.14582604403235422  0.6391866961024988  0.04247788029805121  1.0000
  O   O15       1.0  0.6458177197353906  0.13919005354262745  0.4575215062195995  1.0000
  O   O16       1.0  0.8541811593915725  0.36079993345695993  0.9575240796428873  1.0000
  O   O17       1.0  0.9787860135305096  0.9753789388315898  0.4143324652136117  1.0000
  O   O18       1.0  0.5212121424419821  0.5246215419719534  0.914331749477654  1.0000
  O   O19       1.0  0.021219675022777603  0.02463348144247851  0.5856672927820982  1.0000
  O   O20       1.0  0.47880705202026524  0.47537360616981783  0.0856664357301753  1.0000
