data_image0
_chemical_formula_structural       Al4H12C32O20F8
_chemical_formula_sum              "Al4 H12 C32 O20 F8"
_cell_length_a       6.682303692291077
_cell_length_b       12.001463751703085
_cell_length_c       17.520738709253195
_cell_angle_alpha    89.93160841440458
_cell_angle_beta     89.49366855632884
_cell_angle_gamma    90.87604940566449

_space_group_name_H-M_alt    "P 1"
_space_group_IT_number       1

loop_
  _space_group_symop_operation_xyz
  'x, y, z'

loop_
  _atom_site_type_symbol
  _atom_site_label
  _atom_site_symmetry_multiplicity
  _atom_site_fract_x
  _atom_site_fract_y
  _atom_site_fract_z
  _atom_site_occupancy
  Al  Al1       1.0  0.0006086136461859987  0.9978702771240366  0.5020693658841753  1.0000
  Al  Al2       1.0  0.500820868020277  0.0018167108987512  0.5008711176913465  1.0000
  Al  Al3       1.0  0.9991816869003853  0.4981935193120251  0.9991345879250417  1.0000
  Al  Al4       1.0  0.49938265577357294  0.5021486032406061  0.9979358231476425  1.0000
  H   H1        1.0  0.25274860006050653  0.8586746555441138  0.47506382979395323  1.0000
  H   H2        1.0  0.761977884630731  0.13824953792601488  0.47045627081919156  1.0000
  H   H3        1.0  0.24725766476855424  0.6413230296040595  0.0249491514152993  1.0000
  H   H4        1.0  0.7380189171891159  0.3617385998029831  0.029538427566535602  1.0000
  H   H5        1.0  0.4439817689405813  0.6597134503774313  0.8045977980049912  1.0000
  H   H6        1.0  0.05600034529060587  0.8402812438308656  0.6953908657700156  1.0000
  H   H7        1.0  0.9375560231565527  0.3328567110115515  0.2020446026284546  1.0000
  H   H8        1.0  0.562506424508946  0.16711584784466993  0.2979471378618328  1.0000
  H   H9        1.0  0.5642209597113987  0.28315139369488657  0.8215482403402135  1.0000
  H   H10       1.0  0.935752575018533  0.21690290563919493  0.6784363760508685  1.0000
  H   H11       1.0  0.43883369209524387  0.6631075426575705  0.20011994651231654  1.0000
  H   H12       1.0  0.061094561003230276  0.8368715191738969  0.2998851849937978  1.0000
  C   C1        1.0  0.752089786457233  0.871781133751469  0.3942706834728753  1.0000
  C   C2        1.0  0.7376327954649324  0.8740788950514682  0.6073192068061957  1.0000
  C   C3        1.0  0.24800823796442015  0.12305692209663022  0.6083561044113142  1.0000
  C   C4        1.0  0.2570447643250232  0.1284342946299333  0.394487904507443  1.0000
  C   C5        1.0  0.7478805889543307  0.6282265383016181  0.1057469194069398  1.0000
  C   C6        1.0  0.7623627877762116  0.6259334638090479  0.8926865480589897  1.0000
  C   C7        1.0  0.25198697627175887  0.37695065957461776  0.8916399126241005  1.0000
  C   C8        1.0  0.24297459321092413  0.3715571328191204  0.10550789625084181  1.0000
  C   C9        1.0  0.7406007357115385  0.8083147644759164  0.6796687569086118  1.0000
  C   C10       1.0  0.7593947097041817  0.6916867633042328  0.8203347201722482  1.0000
  C   C11       1.0  0.5708516244199016  0.7558613422183597  0.7121054135819805  1.0000
  C   C12       1.0  0.9291690840161021  0.7441236219260576  0.7878917499905358  1.0000
  C   C13       1.0  0.5785135910919336  0.6991030831869697  0.7808932928858995  1.0000
  C   C14       1.0  0.9214965391875649  0.8008760067873907  0.7191050328586429  1.0000
  C   C15       1.0  0.24953841057528334  0.19256695948292446  0.3212410127962714  1.0000
  C   C16       1.0  0.2504836915880944  0.3074119753613616  0.1787599259101569  1.0000
  C   C17       1.0  0.07574093041235841  0.24100588956770955  0.2921757840296237  1.0000
  C   C18       1.0  0.4242900836712591  0.25897640404527084  0.2078354116503078  1.0000
  C   C19       1.0  0.0751790025218355  0.29672425835851624  0.22289063146272536  1.0000
  C   C20       1.0  0.42486398968228645  0.2032505899836821  0.277110273711422  1.0000
  C   C21       1.0  0.2529561716016886  0.18787547737266416  0.6810630765507568  1.0000
  C   C22       1.0  0.2470409109196012  0.31214795266124185  0.8189215148253837  1.0000
  C   C23       1.0  0.4274764866671317  0.2075102003297005  0.7233822425755465  1.0000
  C   C24       1.0  0.07253622611129629  0.2925457986541176  0.7765874675190503  1.0000
  C   C25       1.0  0.4260687394594313  0.2684718523265772  0.7904889452203463  1.0000
  C   C26       1.0  0.0739318919218945  0.23157826628177966  0.7094825003560318  1.0000
  C   C27       1.0  0.7466769634019312  0.8074378019204502  0.3211031074062802  1.0000
  C   C28       1.0  0.7532768065520796  0.6925556463305256  0.17890825187951265  1.0000
  C   C29       1.0  0.5737024967839444  0.7566767743466798  0.2909888254292241  1.0000
  C   C30       1.0  0.9262655419355424  0.74327589303568  0.2090293776294629  1.0000
  C   C31       1.0  0.5759633113117457  0.7009587737512532  0.2218109644969317  1.0000
  C   C32       1.0  0.9239793402732558  0.7989987948270569  0.278208991616154  1.0000
  O   O1        1.0  0.9247508614717928  0.9029545753318546  0.4168708337144977  1.0000
  O   O2        1.0  0.570636788209775  0.9103659172856665  0.5851622289746816  1.0000
  O   O3        1.0  0.4118528220987797  0.1093862150904243  0.5725589197979204  1.0000
  O   O4        1.0  0.09237946702570807  0.10935054690847319  0.4292274749332706  1.0000
  O   O5        1.0  0.07678353259544216  0.08773481060916312  0.5872120125642939  1.0000
  O   O6        1.0  0.4292892432249643  0.09709023770925998  0.41560119371379767  1.0000
  O   O7        1.0  0.5863306296481808  0.8914287410905573  0.4273190080053127  1.0000
  O   O8        1.0  0.9055688188173857  0.8900727662285702  0.5737741116364958  1.0000
  O   O9        1.0  0.25012912501698276  0.9316867668387092  0.4986221855440363  1.0000
  O   O10       1.0  0.754060743942439  0.0686508144434939  0.4986105892758843  1.0000
  O   O11       1.0  0.9136663156488037  0.6085706827372166  0.07271967167528712  1.0000
  O   O12       1.0  0.5944144578021663  0.6099053948314931  0.9262156987074804  1.0000
  O   O13       1.0  0.42320984465496975  0.41225942214200734  0.912795999678238  1.0000
  O   O14       1.0  0.0707315840000717  0.4028920373370184  0.0843849059060133  1.0000
  O   O15       1.0  0.08813231243233587  0.3906388358217542  0.9274256910884802  1.0000
  O   O16       1.0  0.4076284020900258  0.39067499807364925  0.0707711833039681  1.0000
  O   O17       1.0  0.5752356746217373  0.5970323278396563  0.08314560985851221  1.0000
  O   O18       1.0  0.9293665425020946  0.5896756228492778  0.9148589097068581  1.0000
  O   O19       1.0  0.24986558537199235  0.5683250539566984  0.0013731152241832  1.0000
  O   O20       1.0  0.7459391237936756  0.4313573170944878  0.0014040711795217998  1.0000
  F   F1        1.0  0.3927181864355019  0.7567956330664743  0.6754384930701393  1.0000
  F   F2        1.0  0.10730693609436055  0.7431783883521348  0.8245569564365596  1.0000
  F   F3        1.0  0.8994421693290559  0.2361394452067742  0.3316475259391467  1.0000
  F   F4        1.0  0.6005919677871816  0.26386214745714653  0.1683716454937425  1.0000
  F   F5        1.0  0.604700858194185  0.16441441277758168  0.7003986333773042  1.0000
  F   F6        1.0  0.8953222796845562  0.33564591767809304  0.7995750517111162  1.0000
  F   F7        1.0  0.39595946974485935  0.7590865911188162  0.32939176142394194  1.0000
  F   F8        1.0  0.10403720087926867  0.740883545860193  0.1706383715387005  1.0000
