data_image0
_chemical_formula_structural       Li8H16C16O24
_chemical_formula_sum              "Li8 H16 C16 O24"
_cell_length_a       4.983938295962197
_cell_length_b       9.26880314864439
_cell_length_c       12.727097106531117
_cell_angle_alpha    90.00962917631475
_cell_angle_beta     89.99852959361364
_cell_angle_gamma    89.99947233441193

_space_group_name_H-M_alt    "P 1"
_space_group_IT_number       1

loop_
  _space_group_symop_operation_xyz
  'x, y, z'

loop_
  _atom_site_type_symbol
  _atom_site_label
  _atom_site_symmetry_multiplicity
  _atom_site_fract_x
  _atom_site_fract_y
  _atom_site_fract_z
  _atom_site_occupancy
  Li  Li1       1.0  0.325702153678165  0.7514862937395533  0.43103817326729643  1.0000
  Li  Li2       1.0  0.8256996935225588  0.748529298793038  0.5689700119205199  1.0000
  Li  Li3       1.0  0.6743186457782856  0.2485110678792067  0.5689605855044277  1.0000
  Li  Li4       1.0  0.1743070576726993  0.2514756330170727  0.4310272272953383  1.0000
  Li  Li5       1.0  0.3258225171288132  0.24883880164215813  0.068826095621759  1.0000
  Li  Li6       1.0  0.8258146003663854  0.2511676609841373  0.9311804156521006  1.0000
  Li  Li7       1.0  0.6741722012727108  0.7511628259625097  0.9311766240052535  1.0000
  Li  Li8       1.0  0.1741600523463873  0.7488329056817876  0.0688207285735771  1.0000
  H   H1        1.0  0.3202922540445599  0.49370803363070354  0.3443002890413922  1.0000
  H   H2        1.0  0.8203053962660292  0.006285996606855801  0.6556991966908825  1.0000
  H   H3        1.0  0.6797265362772649  0.5062915142449995  0.6556961271517635  1.0000
  H   H4        1.0  0.17968731569025206  0.9937156308759825  0.3443035232442213  1.0000
  H   H5        1.0  0.32039358877103297  0.5066886193739464  0.155571619476234  1.0000
  H   H6        1.0  0.8203720851972564  0.9933049034590271  0.8444254859117067  1.0000
  H   H7        1.0  0.6796191819765696  0.493312006981867  0.8444248047374288  1.0000
  H   H8        1.0  0.17960457959993187  0.006693438699798502  0.15558114366466919  1.0000
  H   H9        1.0  0.7850737644447321  0.6179815951595558  0.18626921464222326  1.0000
  H   H10       1.0  0.28509311625192885  0.8820314522792643  0.8137326019585629  1.0000
  H   H11       1.0  0.2149189480104852  0.3820211016063269  0.8137342980821316  1.0000
  H   H12       1.0  0.7148995851196743  0.1179681609504968  0.18625831838859597  1.0000
  H   H13       1.0  0.7851341144283523  0.3824457044295642  0.3136287310795396  1.0000
  H   H14       1.0  0.28514364411591236  0.11756241574425269  0.6863801017174466  1.0000
  H   H15       1.0  0.21488267949021633  0.6175483343459691  0.6863770782570242  1.0000
  H   H16       1.0  0.7148771541698267  0.8824435670765853  0.3136194995170598  1.0000
  C   C1        1.0  0.8207581676443069  0.5904125005661242  0.3808665924104204  1.0000
  C   C2        1.0  0.3207539069677523  0.909590710257774  0.6191359620832841  1.0000
  C   C3        1.0  0.17925862187146183  0.4095848225588412  0.6191353097496304  1.0000
  C   C4        1.0  0.6792367965694694  0.09040986694527929  0.380864393984595  1.0000
  C   C5        1.0  0.9290815391242475  0.5285290927676344  0.19152040433778686  1.0000
  C   C6        1.0  0.42910456992827756  0.9714913213329265  0.8084709070452192  1.0000
  C   C7        1.0  0.0709252122876407  0.4714715332227043  0.8084760208001638  1.0000
  C   C8        1.0  0.5708740882786074  0.02850611422784509  0.19152157265223477  1.0000
  C   C9        1.0  0.8208330442826935  0.4099993696815361  0.11904854942306288  1.0000
  C   C10       1.0  0.3208179886287326  0.09000657268985889  0.8809524240036666  1.0000
  C   C11       1.0  0.17917771973737467  0.5899958814496458  0.8809462682315328  1.0000
  C   C12       1.0  0.6791566603749147  0.90999081481457  0.1190439847751463  1.0000
  C   C13       1.0  0.9291435474773238  0.47195309037946487  0.30836342024276314  1.0000
  C   C14       1.0  0.4291153270709316  0.028066566085669813  0.6916467269706316  1.0000
  C   C15       1.0  0.0708632103111881  0.5280453014194109  0.6916392762470167  1.0000
  C   C16       1.0  0.5708874183260306  0.9719328947525981  0.308356762924589  1.0000
  O   O1        1.0  0.18242980363001493  0.41569708207837414  0.33652993252191976  1.0000
  O   O2        1.0  0.6824220475097319  0.08432362746927421  0.6634901791876401  1.0000
  O   O3        1.0  0.8175910009885711  0.5843002126026134  0.6634743261010385  1.0000
  O   O4        1.0  0.31757668749139617  0.915681179540535  0.33651727527003317  1.0000
  O   O5        1.0  0.5681721235096546  0.6092568985459293  0.3783342856885668  1.0000
  O   O6        1.0  0.0681651152270462  0.8907338864043979  0.6216650269578139  1.0000
  O   O7        1.0  0.4318466629301909  0.3907502299364296  0.6216598230990229  1.0000
  O   O8        1.0  0.931837620626865  0.10927215269525449  0.37832986289134846  1.0000
  O   O9        1.0  0.1824360372863936  0.5847408427524029  0.16340435445036405  1.0000
  O   O10       1.0  0.6824233202639435  0.9152567799504893  0.8366061813045815  1.0000
  O   O11       1.0  0.8175827549654854  0.41525330133288213  0.8365928119547306  1.0000
  O   O12       1.0  0.3175473197749882  0.0847394806520256  0.1633941494593714  1.0000
  O   O13       1.0  0.9791564614027167  0.3351281887826687  0.0631492614136988  1.0000
  O   O14       1.0  0.4791497948385199  0.16487814209427398  0.9368438241270524  1.0000
  O   O15       1.0  0.0208342381649729  0.6648670611302732  0.9368455593218457  1.0000
  O   O16       1.0  0.520822839391336  0.8351236562960267  0.0631447564144025  1.0000
  O   O17       1.0  0.5681338644158557  0.3911849296691017  0.1215519801252611  1.0000
  O   O18       1.0  0.0681075890464413  0.10880090590581663  0.878455166144164  1.0000
  O   O19       1.0  0.431884932260715  0.6088091570409517  0.8784499004380351  1.0000
  O   O20       1.0  0.9318329581959118  0.8911877722626828  0.12154747664678918  1.0000
  O   O21       1.0  0.9791823370224578  0.6651487417504286  0.43679637598572185  1.0000
  O   O22       1.0  0.479201661777708  0.8348698693861535  0.5632069993181545  1.0000
  O   O23       1.0  0.0208344515392298  0.3348528967568356  0.5632055545592038  1.0000
  O   O24       1.0  0.5208111131998335  0.16513823238838654  0.4367957601133127  1.0000
