data_image0
_chemical_formula_structural       Cd2H44C48N8O8
_chemical_formula_sum              "Cd2 H44 C48 N8 O8"
_cell_length_a       9.277740578380454
_cell_length_b       9.577131952387711
_cell_length_c       13.7814
_cell_angle_alpha    87.55286108488534
_cell_angle_beta     72.05470845216809
_cell_angle_gamma    71.71284664851102

_space_group_name_H-M_alt    "P 1"
_space_group_IT_number       1

loop_
  _space_group_symop_operation_xyz
  'x, y, z'

loop_
  _atom_site_type_symbol
  _atom_site_label
  _atom_site_symmetry_multiplicity
  _atom_site_fract_x
  _atom_site_fract_y
  _atom_site_fract_z
  _atom_site_occupancy
  Cd  Cd1       1.0  0.5416679967082061  0.3278369376044097  0.0830266819512957  1.0000
  Cd  Cd2       1.0  0.45833407904169127  0.6721624479987797  0.9169733410941561  1.0000
  H   H1        1.0  0.3597772638124682  0.96188188586828  0.27571175066001524  1.0000
  H   H2        1.0  0.6402210353071851  0.0381186013967465  0.7242882974340645  1.0000
  H   H3        1.0  0.4578801560625011  0.8623511450864926  0.1572475810619521  1.0000
  H   H4        1.0  0.542120408989426  0.1376493421785412  0.8427527226456701  1.0000
  H   H5        1.0  0.483157655921069  0.9455277158230616  0.4073027482049553  1.0000
  H   H6        1.0  0.5168413984328807  0.0544738731038166  0.5926971105491461  1.0000
  H   H7        1.0  0.6719382431516933  0.7862130918587766  0.4909726062292634  1.0000
  H   H8        1.0  0.32806081120225633  0.2137884970680943  0.5090279781405229  1.0000
  H   H9        1.0  0.903101002313946  0.5754067933971072  0.38847228867674477  1.0000
  H   H10       1.0  0.0968969190738704  0.4245947955297638  0.611528530694109  1.0000
  H   H11       1.0  0.9388053568794136  0.5310131261480464  0.20599160550587917  1.0000
  H   H12       1.0  0.061194830440676626  0.4689884627788246  0.7940087438628394  1.0000
  H   H13       1.0  0.8827602058096319  0.6392679270570271  0.049334108682877874  1.0000
  H   H14       1.0  0.11723998151046543  0.3607336618698511  0.9506669663015259  1.0000
  H   H15       1.0  0.6967982263794211  0.7689864056346565  0.054830470751149114  1.0000
  H   H16       1.0  0.3032015834382022  0.2310129799685399  0.9451700222964445  1.0000
  H   H17       1.0  0.48479466197139237  0.3107226208881784  0.33308283336827316  1.0000
  H   H18       1.0  0.5152059030805347  0.6892778663768553  0.6669160191079796  1.0000
  H   H19       1.0  0.29961341159435767  0.5421707572843247  0.4797570765820041  1.0000
  H   H20       1.0  0.7003890418873767  0.4578275266570273  0.5202414495709887  1.0000
  H   H21       1.0  0.23171293145562546  0.6608968540019831  0.19347611289225597  1.0000
  H   H22       1.0  0.7682861228983242  0.339104734924895  0.8065237458618455  1.0000
  H   H23       1.0  0.01295871440009934  0.8075655016813813  0.37324846064713296  1.0000
  H   H24       1.0  0.987041095417524  0.1924338839218152  0.6267513067847759  1.0000
  H   H25       1.0  0.17754699922369355  0.8724621974728208  0.3580299808782357  1.0000
  H   H26       1.0  0.8224516776277895  0.1275371881303684  0.6419700215547479  1.0000
  H   H27       1.0  0.8792939760606586  0.7279010288972643  0.5415848571416646  1.0000
  H   H28       1.0  0.12070470079082443  0.272098356705925  0.45841514529131183  1.0000
  H   H29       1.0  0.8245510543585581  0.7425861812517809  0.7294736402750458  1.0000
  H   H30       1.0  0.17544800022476179  0.2574121026895639  0.27052631649684133  1.0000
  H   H31       1.0  0.23731026458415283  0.8825258783999459  0.687577652961309  1.0000
  H   H32       1.0  0.7626903006971446  0.1174713038795616  0.3124220231484144  1.0000
  H   H33       1.0  0.2876308598019861  0.8730229433504277  0.5000083103169998  1.0000
  H   H34       1.0  0.712367817049504  0.1269764422527686  0.4999916921159837  1.0000
  H   H35       1.0  0.903463707773078  0.7690558103307056  0.87228424084185  1.0000
  H   H36       1.0  0.09653723501068615  0.2309435752724909  0.12771601720467626  1.0000
  H   H37       1.0  0.1030804898518127  0.7642624796559474  0.8543069629391268  1.0000
  H   H38       1.0  0.896919697697648  0.23573580428540453  0.14569203321600804  1.0000
  H   H39       1.0  0.6838635378884421  0.99197708406939  0.9448379388874599  1.0000
  H   H40       1.0  0.31613702716348513  0.0080234031956437  0.05516163920447779  1.0000
  H   H41       1.0  0.9253752988780733  0.3006952948018409  0.9405223738241799  1.0000
  H   H42       1.0  0.07462677687182413  0.6993040908013484  0.059476923605593916  1.0000
  H   H43       1.0  0.14595180506502461  0.03685389360207841  0.8374743276263885  1.0000
  H   H44       1.0  0.8540491377187394  0.963145492001111  0.16252520480445293  1.0000
  C   C1        1.0  0.5096449394309346  0.063312506062573  0.1719421188096462  1.0000
  C   C2        1.0  0.4903544926548521  0.9366879812024536  0.8280584198990439  1.0000
  C   C3        1.0  0.4765442435192428  0.9224842550729165  0.21585904472598116  1.0000
  C   C4        1.0  0.5234563215326844  0.0775162321921172  0.7841405333659565  1.0000
  C   C5        1.0  0.5991374902666778  0.8261119787922766  0.26092553683268693  1.0000
  C   C6        1.0  0.4008608088529756  0.1738885084727499  0.7390745112613927  1.0000
  C   C7        1.0  0.5829361013798718  0.8529330379988168  0.36360050704288227  1.0000
  C   C8        1.0  0.41706295297408497  0.1470685509280614  0.6364008029425887  1.0000
  C   C9        1.0  0.6901068547767794  0.764605096488822  0.41028124133222826  1.0000
  C   C10       1.0  0.30989106661103705  0.2353964924380492  0.5897195780386325  1.0000
  C   C11       1.0  0.8188138811897049  0.6476658952789691  0.3532858010013626  1.0000
  C   C12       1.0  0.181185173164252  0.352335693647909  0.6467147833684236  1.0000
  C   C13       1.0  0.8387630101301511  0.6224576690091936  0.2504611627726164  1.0000
  C   C14       1.0  0.1612360442238057  0.3775439199176773  0.74953942159717  1.0000
  C   C15       1.0  0.7308630322549307  0.7103813006231547  0.20291258179332053  1.0000
  C   C16       1.0  0.269136399830856  0.2896191866418789  0.7970879569153694  1.0000
  C   C17       1.0  0.7544100699977677  0.6744913611328727  0.0923828601805212  1.0000
  C   C18       1.0  0.2455893620880261  0.325509126132161  0.9076176785281687  1.0000
  C   C19       1.0  0.6968394629952073  0.5448367789420843  0.08013280668545524  1.0000
  C   C20       1.0  0.30316299048653406  0.4551615049992677  0.9198678963145921  1.0000
  C   C21       1.0  0.4027095359964362  0.41726543929461  0.3267995158000616  1.0000
  C   C22       1.0  0.5972914067873206  0.5827339463085792  0.6732000166307798  1.0000
  C   C23       1.0  0.3127883315582309  0.5307916921177949  0.39942575550573167  1.0000
  C   C24       1.0  0.6872111005275559  0.46920879514723873  0.6005755088186433  1.0000
  C   C25       1.0  0.2757045639886472  0.594616470936927  0.2503978354582656  1.0000
  C   C26       1.0  0.7242948680971397  0.4053840163281066  0.7496027032504242  1.0000
  C   C27       1.0  0.12238411949274314  0.7892724067941472  0.3940186371640734  1.0000
  C   C28       1.0  0.8776153125930436  0.2107280804708864  0.6059804503132468  1.0000
  C   C29       1.0  0.08582470137193352  0.8017619470974608  0.5080498530809763  1.0000
  C   C30       1.0  0.9141735977477197  0.1982385401675728  0.4919494693974186  1.0000
  C   C31       1.0  0.9565684438579966  0.7640520622441116  0.5733707367727163  1.0000
  C   C32       1.0  0.04343136595962702  0.23594732335907756  0.4266283050435148  1.0000
  C   C33       1.0  0.9262935719674278  0.7713439619766407  0.6790385582521594  1.0000
  C   C34       1.0  0.07370510488405559  0.2286554236265488  0.320962169796509  1.0000
  C   C35       1.0  0.026234312732775326  0.8147538452007481  0.7209926327877767  1.0000
  C   C36       1.0  0.9737654970848483  0.1852455404024411  0.27900786025982427  1.0000
  C   C37       1.0  0.15695795984593988  0.8510326713212778  0.6557441349949327  1.0000
  C   C38       1.0  0.8430418499716836  0.1489667142819115  0.34425563243698315  1.0000
  C   C39       1.0  0.18521602471209053  0.8455750385557651  0.5504532766315435  1.0000
  C   C40       1.0  0.81478378510554  0.1544243470474242  0.44954721641605727  1.0000
  C   C41       1.0  0.9939085017922268  0.8219278671161732  0.8351130005026588  1.0000
  C   C42       1.0  0.006091308025396803  0.1780715184870161  0.1648874925449419  1.0000
  C   C43       1.0  0.7768816896217103  0.0433757317070089  0.9323207560843941  1.0000
  C   C44       1.0  0.22312038612818696  0.9566236538961803  0.06767926696106488  1.0000
  C   C45       1.0  0.9081677582412271  0.1980369360504781  0.9255752585549785  1.0000
  C   C46       1.0  0.09183545047481091  0.8019624495527182  0.07442380387372079  1.0000
  C   C47       1.0  0.017590120123152503  0.0697979893267231  0.874079980681074  1.0000
  C   C48       1.0  0.982411578124278  0.9301991929527845  0.12591946042758206  1.0000
  N   N1        1.0  0.3781277430451839  0.45830124124911015  0.23444880809367413  1.0000
  N   N2        1.0  0.6218716890406029  0.5416992460159236  0.765551004999338  1.0000
  N   N3        1.0  0.23274596161463995  0.6425156261673877  0.34981099168594193  1.0000
  N   N4        1.0  0.7672523375050132  0.357484861097646  0.6501897820238226  1.0000
  N   N5        1.0  0.7589837825300734  0.1803310269250602  0.9614112853292196  1.0000
  N   N6        1.0  0.24101829321983106  0.8196683586781361  0.0385887377162391  1.0000
  N   N7        1.0  0.9317906716634995  0.9734361152676954  0.8794446507940349  1.0000
  N   N8        1.0  0.06820951588596101  0.0265621686736495  0.1205543453611  1.0000
  O   O1        1.0  0.4333710068978078  0.1287357962145208  0.1109657391553398  1.0000
  O   O2        1.0  0.5666284251879858  0.8712646910505129  0.8890347995533502  1.0000
  O   O3        1.0  0.6045014884890422  0.1109604823930539  0.19950777026677705  1.0000
  O   O4        1.0  0.3954983213285814  0.8890389032101353  0.8004919971651387  1.0000
  O   O5        1.0  0.6187527274612208  0.5512253159641247  0.016849153730980525  1.0000
  O   O6        1.0  0.3812519919527944  0.4487729679772201  0.983149628035555  1.0000
  O   O7        1.0  0.729650259398852  0.4346044950266262  0.13192688386766352  1.0000
  O   O8        1.0  0.2703514386192083  0.5653959922384075  0.8680739104545692  1.0000
