data_image0
_chemical_formula_structural       Zn2H38C50N6O12
_chemical_formula_sum              "Zn2 H38 C50 N6 O12"
_cell_length_a       8.629558632999965
_cell_length_b       10.174258447008013
_cell_length_c       14.0421
_cell_angle_alpha    72.74896586176777
_cell_angle_beta     72.30464940569894
_cell_angle_gamma    89.26556296555165

_space_group_name_H-M_alt    "P 1"
_space_group_IT_number       1

loop_
  _space_group_symop_operation_xyz
  'x, y, z'

loop_
  _atom_site_type_symbol
  _atom_site_label
  _atom_site_symmetry_multiplicity
  _atom_site_fract_x
  _atom_site_fract_y
  _atom_site_fract_z
  _atom_site_occupancy
  Zn  Zn1       1.0  0.5345288749981238  0.732600771192871  0.5083518294464824  1.0000
  Zn  Zn2       1.0  0.46547125630406333  0.2673990077650004  0.49164890566698466  1.0000
  H   H1        1.0  0.6377044554445632  0.9727558194831687  0.5493398852110689  1.0000
  H   H2        1.0  0.36229689221604394  0.027243959474695597  0.4506599105476639  1.0000
  H   H3        1.0  0.6290605396381325  0.8351829137190308  0.6426426730290803  1.0000
  H   H4        1.0  0.3709382715568239  0.1648158323316693  0.35735710633005624  1.0000
  H   H5        1.0  0.042430379447445404  0.3633219977762465  0.6587174164865317  1.0000
  H   H6        1.0  0.9575736084276228  0.6366798469959534  0.3412828664924634  1.0000
  H   H7        1.0  0.7499415000702356  0.6827485396154174  0.7450435825423938  1.0000
  H   H8        1.0  0.2500621765583873  0.3172502064352756  0.254957424407209  1.0000
  H   H9        1.0  0.9447303906758293  0.859105043740037  0.5975609038128482  1.0000
  H   H10       1.0  0.055272277092008416  0.1408957681249987  0.4024398477002081  1.0000
  H   H11       1.0  0.7469317099648052  0.5390112438700498  0.895090110260476  1.0000
  H   H12       1.0  0.2530671012301511  0.4609875021806502  0.10491251767544449  1.0000
  H   H13       1.0  0.5392535548434979  0.3796739511597735  0.048249796306194526  1.0000
  H   H14       1.0  0.46074372874659997  0.6203216961694196  0.9517509342340844  1.0000
  H   H15       1.0  0.598096777749312  0.0867063593472821  0.8715885522488875  1.0000
  H   H16       1.0  0.4019048811577335  0.9132965183320892  0.12840624667406797  1.0000
  H   H17       1.0  0.7939403755620091  0.2617562359038246  0.7217782972816595  1.0000
  H   H18       1.0  0.2060613870938468  0.7382476746827109  0.27822124532713133  1.0000
  H   H19       1.0  0.30474072451412576  0.8309955080581872  0.6694254682718326  1.0000
  H   H20       1.0  0.6952595105368715  0.1690053038068484  0.3305750255180939  1.0000
  H   H21       1.0  0.1080084950515072  0.7435537188069787  0.8488704631441237  1.0000
  H   H22       1.0  0.8919928526090929  0.2564460601508927  0.15113075690300812  1.0000
  H   H23       1.0  0.28492491075650156  0.3398419520233347  0.8631769644264369  1.0000
  H   H24       1.0  0.7150777570113362  0.660158859841701  0.1368223627982347  1.0000
  H   H25       1.0  0.47437738937329504  0.44666107975442765  0.6797160624620204  1.0000
  H   H26       1.0  0.5256240620361226  0.5533397321106079  0.3202842041173712  1.0000
  H   H27       1.0  0.0649185064517184  0.3563839603258572  0.007089629860672613  1.0000
  H   H28       1.0  0.9350791921336352  0.6436158186320142  0.9929108475296574  1.0000
  H   H29       1.0  0.4977722671352041  0.8401780527855891  0.2893129004635426  1.0000
  H   H30       1.0  0.5022227912356882  0.1598196603579396  0.7106885139949242  1.0000
  H   H31       1.0  0.6788771305245689  0.9321408767130562  0.10460085005868093  1.0000
  H   H32       1.0  0.3211166077390857  0.0678558035233081  0.8953996086454554  1.0000
  H   H33       1.0  0.0739446079522921  0.9692356718531343  0.22870875146118422  1.0000
  H   H34       1.0  0.9260544107402922  0.030765140011901296  0.7712891209624928  1.0000
  H   H35       1.0  0.8772594607086149  0.8701055050838916  0.40708691496436  1.0000
  H   H36       1.0  0.12273924673752394  0.129892208059637  0.5929131057183171  1.0000
  H   H37       1.0  0.1369161460134052  0.0345414486197058  0.04124651318757341  1.0000
  H   H38       1.0  0.8630768946359026  0.9654603961524941  0.9587515418210233  1.0000
  C   C1        1.0  0.22193987107017682  0.827971155869001  0.4622272746127154  1.0000
  C   C2        1.0  0.7780614765904232  0.1720286230888632  0.5377739454344096  1.0000
  C   C3        1.0  0.2816804028716504  0.5248397575190893  0.4987167176373505  1.0000
  C   C4        1.0  0.7183199359281646  0.4751620872531106  0.5012813983964507  1.0000
  C   C5        1.0  0.10619040735155491  0.7119384961954509  0.5466072964936542  1.0000
  C   C6        1.0  0.8938097239506249  0.2880612827624134  0.45339272647561313  1.0000
  C   C7        1.0  0.1310523165434958  0.5711687427450016  0.5637540839155052  1.0000
  C   C8        1.0  0.8689527839411684  0.428832069120034  0.43624692532068826  1.0000
  C   C9        1.0  0.0187578532080579  0.4714777073832934  0.6464648748946618  1.0000
  C   C10       1.0  0.9812424855917572  0.5285241373889065  0.3535339532833391  1.0000
  C   C11       1.0  0.884005342085274  0.5113499898993012  0.7128607197687984  1.0000
  C   C12       1.0  0.11599732568255662  0.48865082196572734  0.28714145603265  1.0000
  C   C13       1.0  0.857324626020322  0.651353326230776  0.6947057656210377  1.0000
  C   C14       1.0  0.1426780417475157  0.3486474856342596  0.30529498589201864  1.0000
  C   C15       1.0  0.9673736161912814  0.750353346696798  0.6118436340904408  1.0000
  C   C16       1.0  0.0326291553253668  0.249648498075409  0.3881583003874738  1.0000
  C   C17       1.0  0.7032263139044376  0.4404326495287521  0.8930517591393327  1.0000
  C   C18       1.0  0.2967736099001215  0.5595650636147766  0.10694945862120873  1.0000
  C   C19       1.0  0.589206262703044  0.3514146439385044  0.9766137656794314  1.0000
  C   C20       1.0  0.4107945662134895  0.6485799704835173  0.023387236696990554  1.0000
  C   C21       1.0  0.5299968581567285  0.22180751825735  0.971484595444068  1.0000
  C   C22       1.0  0.4700019530382278  0.7781912277933429  0.02851162319409184  1.0000
  C   C23       1.0  0.621681124752982  0.1886873499014143  0.8773166404996999  1.0000
  C   C24       1.0  0.3783227593732689  0.8113134619636213  0.12267961093765935  1.0000
  C   C25       1.0  0.7335925034124529  0.282614763263247  0.7955398418247198  1.0000
  C   C26       1.0  0.2664101643553778  0.7173860486017887  0.20445806111155923  1.0000
  C   C27       1.0  0.2965970854578828  0.7231558680446781  0.7161586262100315  1.0000
  C   C28       1.0  0.7034069024171785  0.2768459767275218  0.2838423689131488  1.0000
  C   C29       1.0  0.1865407714955651  0.6727283071744097  0.8160732769122208  1.0000
  C   C30       1.0  0.8134618962722655  0.327272504690626  0.18392747460083578  1.0000
  C   C31       1.0  0.17641636639670116  0.5313026576720006  0.8714841598174488  1.0000
  C   C32       1.0  0.8235861976223192  0.4686971212858637  0.12851612087494865  1.0000
  C   C33       1.0  0.2857808789538793  0.4495418578471941  0.8230128149009988  1.0000
  C   C34       1.0  0.714221685065141  0.5504579211106702  0.17698675364721345  1.0000
  C   C35       1.0  0.3926449291702383  0.5078112499402394  0.7222074448511651  1.0000
  C   C36       1.0  0.6073589549560126  0.49218956192479624  0.2777937915955563  1.0000
  C   C37       1.0  0.0577220858936585  0.4670517001665431  0.9735656007760838  1.0000
  C   C38       1.0  0.9422792617669414  0.5329480787913212  0.026434907126848397  1.0000
  C   C39       1.0  0.6268794317094332  0.8689434845193986  0.271700750695871  1.0000
  C   C40       1.0  0.3731157304102695  0.1310552615313014  0.7282997102948557  1.0000
  C   C41       1.0  0.7290834621895783  0.9203450768495003  0.16888608211716877  1.0000
  C   C42       1.0  0.2709116999301244  0.0796536692011927  0.8311136667293654  1.0000
  C   C43       1.0  0.8958231140644344  0.9552459771638198  0.14938372323109675  1.0000
  C   C44       1.0  0.10417103919448321  0.0447548347012088  0.8506150580347056  1.0000
  C   C45       1.0  0.9476131504815586  0.9416095367261192  0.23749300143104082  1.0000
  C   C46       1.0  0.0523814177726152  0.0583954067675947  0.7625041023964202  1.0000
  C   C47       1.0  0.8378259749595571  0.8871526049917761  0.3380380231250373  1.0000
  C   C48       1.0  0.1621716198769789  0.11284614105892392  0.661960559156249  1.0000
  C   C49       1.0  0.0149473065934203  0.0005639673139655  0.04452549943489  1.0000
  C   C50       1.0  0.9850445176974746  0.9994378774582344  0.9554734949284339  1.0000
  N   N1        1.0  0.772720255236699  0.4105186250236414  0.8007625490476897  1.0000
  N   N2        1.0  0.22728230878232134  0.5894811539342228  0.19923844378890723  1.0000
  N   N3        1.0  0.39631366882092334  0.6420633591578522  0.6688039337417707  1.0000
  N   N4        1.0  0.6036877825884942  0.3579374527071835  0.33119704498182057  1.0000
  N   N5        1.0  0.6801054688830918  0.8494649211370132  0.355431097197595  1.0000
  N   N6        1.0  0.31989222970226183  0.1505348578208583  0.6445679559043427  1.0000
  O   O1        1.0  0.3400916896518567  0.8704246733989366  0.48828561006321564  1.0000
  O   O2        1.0  0.6599086491479583  0.1295771713732634  0.5117139302589777  1.0000
  O   O3        1.0  0.1914670553134528  0.8836221282900567  0.3787345299853584  1.0000
  O   O4        1.0  0.8085355087055675  0.11637765066780759  0.621265750707046  1.0000
  O   O5        1.0  0.40486870864065583  0.6130035488810393  0.44751304946144915  1.0000
  O   O6        1.0  0.5951327427687618  0.3869972629839893  0.5524865049737502  1.0000
  O   O7        1.0  0.27642254646667663  0.4000036300489498  0.49899411071737626  1.0000
  O   O8        1.0  0.723582657766805  0.5999982147232501  0.5010052329068915  1.0000
  O   O9        1.0  0.40842623455368005  0.1470849478782768  0.04150461403322229  1.0000
  O   O10       1.0  0.5915725766412763  0.8529137981724233  0.9584923167491441  1.0000
  O   O11       1.0  0.6396143565451666  0.867607935550609  0.5685321325911021  1.0000
  O   O12       1.0  0.36038820747385364  0.1323918434072553  0.43146672381290335  1.0000
