data_image0
_chemical_formula_structural       Cd4H28C28N28O4
_chemical_formula_sum              "Cd4 H28 C28 N28 O4"
_cell_length_a       9.158695169784195
_cell_length_b       9.26726799143659
_cell_length_c       13.590720548071763
_cell_angle_alpha    90.00019142565283
_cell_angle_beta     89.9996306076948
_cell_angle_gamma    113.32347136855553

_space_group_name_H-M_alt    "P 1"
_space_group_IT_number       1

loop_
  _space_group_symop_operation_xyz
  'x, y, z'

loop_
  _atom_site_type_symbol
  _atom_site_label
  _atom_site_symmetry_multiplicity
  _atom_site_fract_x
  _atom_site_fract_y
  _atom_site_fract_z
  _atom_site_occupancy
  Cd  Cd1       1.0  0.8800753456640817  0.8993647457631652  0.6032783864884764  1.0000
  Cd  Cd2       1.0  0.38007397835575313  0.8993657297029073  0.896723075897718  1.0000
  Cd  Cd3       1.0  0.1199236890736657  0.10063234521125251  0.39672201341551266  1.0000
  Cd  Cd4       1.0  0.6199275860286945  0.1006348756636299  0.1032765882086224  1.0000
  H   H1        1.0  0.2810014496640107  0.4702433449230767  0.6146214962851176  1.0000
  H   H2        1.0  0.7810046231600082  0.47024270113968225  0.8853764733225732  1.0000
  H   H3        1.0  0.7189958907382489  0.529754942555691  0.38538258260472696  1.0000
  H   H4        1.0  0.2189962083448265  0.5297614508077473  0.11461877601244909  1.0000
  H   H5        1.0  0.34231797271198866  0.2388159641486851  0.665488894656015  1.0000
  H   H6        1.0  0.8423267902928656  0.23881991926256774  0.8345090155309832  1.0000
  H   H7        1.0  0.6576794937984544  0.7611799625156338  0.3345122410462126  1.0000
  H   H8        1.0  0.15767621623061237  0.7611842112255188  0.1654884411877688  1.0000
  H   H9        1.0  0.6259724335646267  0.2777992371677129  0.688398807701823  1.0000
  H   H10       1.0  0.12597919427494017  0.27780475202625604  0.8115971888305041  1.0000
  H   H11       1.0  0.3740239454514194  0.7221967002240247  0.31159791322581754  1.0000
  H   H12       1.0  0.874022850809247  0.7221970283827942  0.18840468266461838  1.0000
  H   H13       1.0  0.839720759019549  0.5466948571571066  0.6611396098726559  1.0000
  H   H14       1.0  0.339728361412547  0.5467003983046937  0.8388604865054177  1.0000
  H   H15       1.0  0.16027622678783615  0.4532998944651965  0.3388600542369531  1.0000
  H   H16       1.0  0.6602769461979465  0.4533013499155985  0.1611450639633816  1.0000
  H   H17       1.0  0.27182776345783566  0.7187161909894897  0.6386506952434274  1.0000
  H   H18       1.0  0.7718275364796411  0.7187120109138121  0.8613478818460294  1.0000
  H   H19       1.0  0.7281705383870403  0.28128444656780965  0.36134823307388325  1.0000
  H   H20       1.0  0.2281723335925392  0.28128979095358636  0.138650310673043  1.0000
  H   H21       1.0  0.27038117328704186  0.6776066485319135  0.5124836837626745  1.0000
  H   H22       1.0  0.7703856007757963  0.677606121985285  0.9875133341082645  1.0000
  H   H23       1.0  0.7296171285545084  0.3223939890258833  0.4875159803507927  1.0000
  H   H24       1.0  0.22961753184259237  0.3223956476903497  0.0124841226075176  1.0000
  H   H25       1.0  0.34057720926472956  0.8779870248535745  0.5511461693209583  1.0000
  H   H26       1.0  0.8405744988879675  0.8779841601062445  0.9488517369504094  1.0000
  H   H27       1.0  0.6594255687189728  0.12201120897159264  0.4488557021685224  1.0000
  H   H28       1.0  0.15942428366992087  0.12201765249157863  0.0511464555710361  1.0000
  C   C1        1.0  0.5288474408155751  0.6276420990823367  0.6106448949063434  1.0000
  C   C2        1.0  0.02884988321398644  0.6276442158645851  0.8893508514141502  1.0000
  C   C3        1.0  0.47114941890021095  0.3723550133519211  0.3893540334100791  1.0000
  C   C4        1.0  0.9711509482809005  0.3723599360843437  0.1106466053093556  1.0000
  C   C5        1.0  0.40310163184509656  0.4824067326179176  0.625263064659805  1.0000
  C   C6        1.0  0.9031068241537312  0.48241077454600395  0.8747321945661142  1.0000
  C   C7        1.0  0.5968958346686648  0.517589194045904  0.3747373352462589  1.0000
  C   C8        1.0  0.09689522094704724  0.5175910058605523  0.1252659979482047  1.0000
  C   C9        1.0  0.43687003133603497  0.3541495659589842  0.6535659798869277  1.0000
  C   C10       1.0  0.93687391063105  0.35415240514468144  0.8464325185426134  1.0000
  C   C11       1.0  0.56312743517109  0.6458463607058319  0.3464358916114634  1.0000
  C   C12       1.0  0.06312644015414284  0.6458505717632335  0.1535649381805939  1.0000
  C   C13       1.0  0.5948014631213424  0.37535403231827763  0.6669645089214455  1.0000
  C   C14       1.0  0.09480489408571197  0.37535724766412676  0.833034053356357  1.0000
  C   C15       1.0  0.4051944351717437  0.624640730034443  0.33303515519053656  1.0000
  C   C16       1.0  0.9051981124278184  0.6246468828254592  0.16696561075087857  1.0000
  C   C17       1.0  0.7143652659372037  0.5244870538043501  0.6517371178356015  1.0000
  C   C18       1.0  0.2143691663954499  0.5244891040562083  0.8482605295622605  1.0000
  C   C19       1.0  0.28563341419239663  0.47550650131560007  0.348261810472799  1.0000
  C   C20       1.0  0.7856328786787827  0.47551267635434885  0.15174354932134554  1.0000
  C   C21       1.0  0.5028235798570221  0.7700416059693538  0.5768742777292317  1.0000
  C   C22       1.0  0.0028240233840079692  0.7700449651156305  0.9231263217926013  1.0000
  C   C23       1.0  0.4971694104847301  0.22995672443160237  0.4231305369662763  1.0000
  C   C24       1.0  0.997176201306274  0.22996037260473653  0.076871134933576  1.0000
  C   C25       1.0  0.337263826041571  0.7619148127258197  0.5698249652826419  1.0000
  C   C26       1.0  0.8372595897853541  0.7619131191152633  0.9301726902470548  1.0000
  C   C27       1.0  0.6627324268629805  0.23808348548087108  0.4301754346287723  1.0000
  C   C28       1.0  0.16273919277584534  0.23808869348205527  0.0698247664782343  1.0000
  N   N1        1.0  0.030552249139667274  0.14966125492219357  0.5507950365280507  1.0000
  N   N2        1.0  0.530553988070153  0.14966660520964584  0.9492047610829815  1.0000
  N   N3        1.0  0.969446304888386  0.8503346610112102  0.44920536337563993  1.0000
  N   N4        1.0  0.46944805702398884  0.8503351751979054  0.0507949030236574  1.0000
  N   N5        1.0  0.003223146534786288  0.2626262643638668  0.573752065167966  1.0000
  N   N6        1.0  0.503225596857689  0.2626221402277338  0.9262488450806856  1.0000
  N   N7        1.0  0.9967775825284946  0.7373696301076934  0.4262468631386511  1.0000
  N   N8        1.0  0.49677609361835096  0.737376104326856  0.07375155481884832  1.0000
  N   N9        1.0  0.9809044583945621  0.3731972166653962  0.5968084465114175  1.0000
  N   N10       1.0  0.4809050816871546  0.37320054874100356  0.9031906398121307  1.0000
  N   N11       1.0  0.019096625280191452  0.6268022136601277  0.4031912175946247  1.0000
  N   N12       1.0  0.5190955212779045  0.6267977065435062  0.0968090242936199  1.0000
  N   N13       1.0  0.050639820536431804  0.8280997579992685  0.6962236715318753  1.0000
  N   N14       1.0  0.5506409480518853  0.8281002106370535  0.8037753811569246  1.0000
  N   N15       1.0  0.9493606563303982  0.17190085809819075  0.30377672837300906  1.0000
  N   N16       1.0  0.44936061633256236  0.1719003947294837  0.19622428294941593  1.0000
  N   N17       1.0  0.17591263855766923  0.9184704180029827  0.7247907884035314  1.0000
  N   N18       1.0  0.675904614324871  0.9184638459861887  0.7752108693488182  1.0000
  N   N19       1.0  0.8240894065331548  0.08153136240507311  0.275209611499271  1.0000
  N   N20       1.0  0.32409743076926395  0.08153793442136249  0.22478879475782068  1.0000
  N   N21       1.0  0.30202375304874346  0.0040012162301224004  0.7545259358480649  1.0000
  N   N22       1.0  0.8020260131166949  0.004000403924770503  0.7454730847026951  1.0000
  N   N23       1.0  0.6979773306260029  0.995998214095401  0.24547372825798416  1.0000
  N   N24       1.0  0.1979750705580584  0.995999026400753  0.254526579403354  1.0000
  N   N25       1.0  0.6814723368583272  0.6469251456482752  0.6238734643671222  1.0000
  N   N26       1.0  0.1814806907227577  0.6469307266697089  0.8761246057052006  1.0000
  N   N27       1.0  0.3185241682360456  0.3530684309335115  0.37612693553835197  1.0000
  N   N28       1.0  0.8185234033050648  0.35307339308945984  0.12387505839966201  1.0000
  O   O1        1.0  0.6188479378327045  0.890691803193299  0.5530748365322609  1.0000
  O   O2        1.0  0.11884454961191426  0.8906916909922202  0.9469203836608172  1.0000
  O   O3        1.0  0.3811542333530226  0.1093076164023046  0.4469255633675644  1.0000
  O   O4        1.0  0.8811583308199714  0.10931480030782131  0.053076337264748495  1.0000
