data_image0
_chemical_formula_structural       K2Cu2P2H28C16N4O14
_chemical_formula_sum              "K2 Cu2 P2 H28 C16 N4 O14"
_cell_length_a       7.970917206622937
_cell_length_b       8.428285284390734
_cell_length_c       11.088997164232346
_cell_angle_alpha    100.48627138761204
_cell_angle_beta     104.31316917618787
_cell_angle_gamma    110.12129569001682

_space_group_name_H-M_alt    "P 1"
_space_group_IT_number       1

loop_
  _space_group_symop_operation_xyz
  'x, y, z'

loop_
  _atom_site_type_symbol
  _atom_site_label
  _atom_site_symmetry_multiplicity
  _atom_site_fract_x
  _atom_site_fract_y
  _atom_site_fract_z
  _atom_site_occupancy
  K   K1        1.0  0.5172959372975326  0.7709286539921862  0.9490853664350923  1.0000
  K   K2        1.0  0.4827029531212403  0.22906959170928332  0.05091501554901611  1.0000
  Cu  Cu1       1.0  0.6222866194097633  0.09881768613622909  0.6729174179888133  1.0000
  Cu  Cu2       1.0  0.3777134333761154  0.9011832013489851  0.3270826316677785  1.0000
  P   P1        1.0  0.8029058669379054  0.19494626263487191  0.46849143936954374  1.0000
  P   P2        1.0  0.19709677339943701  0.8050546204061462  0.5315090704015831  1.0000
  H   H1        1.0  0.04850485092239149  0.1296784520881573  0.5907548652036142  1.0000
  H   H2        1.0  0.9514946205964492  0.8703211135764165  0.4092448995765211  1.0000
  H   H3        1.0  0.10447744177901795  0.35717026307256117  0.649072329313235  1.0000
  H   H4        1.0  0.8955220299068002  0.6428293044495564  0.3509283375473232  1.0000
  H   H5        1.0  0.11180133540579358  0.4348289860816622  0.8681102290165796  1.0000
  H   H6        1.0  0.8881981361130472  0.5651705795829116  0.1318895357635554  1.0000
  H   H7        1.0  0.8956332004040773  0.32278322550745037  0.8969187845211339  1.0000
  H   H8        1.0  0.10436814599056282  0.677217657898119  0.10308059311230276  1.0000
  H   H9        1.0  0.8420299054323692  0.5557971899273185  0.8255689785072989  1.0000
  H   H10       1.0  0.15796827247771714  0.4442023798169004  0.17443145829599163  1.0000
  H   H11       1.0  0.9605613240323477  0.5479039371046638  0.7119736056969685  1.0000
  H   H12       1.0  0.03944060379630801  0.45209826997908936  0.2880269588933403  1.0000
  H   H13       1.0  0.7854962861313338  0.4829414775069126  0.5181638117035732  1.0000
  H   H14       1.0  0.21450447916323864  0.5170580859355526  0.4818361831338295  1.0000
  H   H15       1.0  0.5575616955237093  0.2993898973083802  0.44478742337226146  1.0000
  H   H16       1.0  0.44243906993784066  0.7006096679916354  0.555213473545571  1.0000
  H   H17       1.0  0.39805619734513437  0.3190586570567292  0.5826426383794612  1.0000
  H   H18       1.0  0.6019451487155649  0.6809422226337533  0.4173549350931155  1.0000
  H   H19       1.0  0.5630313455786862  0.5384486118742586  0.6796995415223251  1.0000
  H   H20       1.0  0.4369712947586563  0.4615522711667595  0.32030096824880167  1.0000
  H   H21       1.0  0.08734310259659844  0.14332056858029318  0.8829260623254812  1.0000
  H   H22       1.0  0.9126569503562579  0.8566803207624647  0.11707488941153338  1.0000
  H   H23       1.0  0.03417616633519321  0.0014760203443913004  0.7274863178579524  1.0000
  H   H24       1.0  0.9658233055175883  0.9985235490352693  0.2725152510830356  1.0000
  H   H25       1.0  0.9009913642947251  0.14168423370519176  0.09423438294543726  1.0000
  H   H26       1.0  0.09900868865813077  0.858316655637566  0.9057665687915774  1.0000
  H   H27       1.0  0.8033767211589904  0.15758483501309684  0.19750176737100847  1.0000
  H   H28       1.0  0.19662333179386585  0.8424160543296608  0.8024991843660061  1.0000
  C   C1        1.0  0.9886331165262804  0.22472365603038472  0.6178240751009413  1.0000
  C   C2        1.0  0.011367648768292235  0.7752759074120875  0.3821759197364615  1.0000
  C   C3        1.0  0.9573019321855721  0.3591437786751967  0.8225078524436215  1.0000
  C   C4        1.0  0.04269941420906769  0.6408571047303723  0.17749152518981504  1.0000
  C   C5        1.0  0.8665309149719248  0.4654488636134673  0.7545894980958539  1.0000
  C   C6        1.0  0.1334685565469228  0.5345507020510992  0.24541026668428156  1.0000
  C   C7        1.0  0.6987627673176959  0.3491561126656678  0.5182809430000505  1.0000
  C   C8        1.0  0.3012374167098385  0.650842128956157  0.48171876696090277  1.0000
  C   C9        1.0  0.48295093716063753  0.3512393971146821  0.7881399492829217  1.0000
  C   C10       1.0  0.5170485340242692  0.6487601648347978  0.21185801133636065  1.0000
  C   C11       1.0  0.5264099466679041  0.39676401953903445  0.6681062889281506  1.0000
  C   C12       1.0  0.473590818459698  0.6032355420458942  0.3318928038288291  1.0000
  C   C13       1.0  0.975407233190772  0.0702382530804755  0.7880802035961311  1.0000
  C   C14       1.0  0.024592819595113655  0.9297626344047387  0.21191984606046085  1.0000
  C   C15       1.0  0.8119908419437961  0.9277114452350761  0.8062690360101997  1.0000
  C   C16       1.0  0.1880086295750516  0.0722881204294907  0.19373072876992842  1.0000
  N   N1        1.0  0.9165012202523285  0.1918533020691413  0.7260831802426895  1.0000
  N   N2        1.0  0.08349825126651203  0.8081462635954253  0.27391658453744583  1.0000
  N   N3        1.0  0.6808293962211351  0.3491150954878321  0.6478094111866426  1.0000
  N   N4        1.0  0.31917136907343735  0.65088446795464  0.3521905836507599  1.0000
  O   O1        1.0  0.8926890775699832  0.24235940639813694  0.3677497147515254  1.0000
  O   O2        1.0  0.10731356276736646  0.7576414766428813  0.6322507950196085  1.0000
  O   O3        1.0  0.6538912254636527  0.0066783391305094  0.43811774475025794  1.0000
  O   O4        1.0  0.34611083327271064  0.9933212183747742  0.5618806759835666  1.0000
  O   O5        1.0  0.546284993460972  0.24508031065084177  0.8304824292372645  1.0000
  O   O6        1.0  0.45371059673068  0.7549192616800228  0.16951664537106131  1.0000
  O   O7        1.0  0.3865722574034577  0.4206520873013134  0.8345514169176911  1.0000
  O   O8        1.0  0.6134188696930492  0.5793461643025708  0.16544397640109312  1.0000
  O   O9        1.0  0.8492153288774487  0.8328218512398423  0.8746604419093916  1.0000
  O   O10       1.0  0.15078284886566  0.16717771664682607  0.12533909281346922  1.0000
  O   O11       1.0  0.640783192969181  0.9077464707782853  0.7479761940821987  1.0000
  O   O12       1.0  0.3592162787166372  0.09225309674382491  0.25202447277836637  1.0000
  O   O13       1.0  0.77581325172104  0.12692033993540972  0.10172814501904535  1.0000
  O   O14       1.0  0.22418680123181634  0.8730805494073481  0.8982728067179695  1.0000
