data_image0
_chemical_formula_structural       Cd4H20C16N8Cl4O12
_chemical_formula_sum              "Cd4 H20 C16 N8 Cl4 O12"
_cell_length_a       6.928190539333793
_cell_length_b       10.332158759123331
_cell_length_c       10.536055639951002
_cell_angle_alpha    90.00016476431036
_cell_angle_beta     104.98820725406917
_cell_angle_gamma    90.00046197190791

_space_group_name_H-M_alt    "P 1"
_space_group_IT_number       1

loop_
  _space_group_symop_operation_xyz
  'x, y, z'

loop_
  _atom_site_type_symbol
  _atom_site_label
  _atom_site_symmetry_multiplicity
  _atom_site_fract_x
  _atom_site_fract_y
  _atom_site_fract_z
  _atom_site_occupancy
  Cd  Cd1       1.0  0.19103908203614853  0.13739535520942778  0.9998834318787927  1.0000
  Cd  Cd2       1.0  0.3089673882998554  0.6373949768957488  0.500121344804775  1.0000
  Cd  Cd3       1.0  0.808967558768117  0.8626059774452983  0.00011788775884716602  1.0000
  Cd  Cd4       1.0  0.6910348287665328  0.3626044200394389  0.4998772693132381  1.0000
  H   H1        1.0  0.15799556624489952  0.6379380818111855  0.8582576457409629  1.0000
  H   H2        1.0  0.34200973735808293  0.13793527660676833  0.6417364772126035  1.0000
  H   H3        1.0  0.842009551608527  0.3620651865444557  0.14174434540525743  1.0000
  H   H4        1.0  0.6579834580488324  0.86206315245321  0.3582623899039206  1.0000
  H   H5        1.0  0.39473589069862675  0.6404114187983437  0.11404555499149181  1.0000
  H   H6        1.0  0.10527632582155629  0.14040423187785223  0.3859523440242256  1.0000
  H   H7        1.0  0.6052648324510345  0.3595899138364231  0.8859527866300709  1.0000
  H   H8        1.0  0.8947183635160699  0.8595941971864463  0.6140467955938078  1.0000
  H   H9        1.0  0.595547635861145  0.14744268989834813  0.9807685710176626  1.0000
  H   H10       1.0  0.9044549915552337  0.6474419013699588  0.5192311592342378  1.0000
  H   H11       1.0  0.40445452315798053  0.8525596105953566  0.019231931117992894  1.0000
  H   H12       1.0  0.09554567351920441  0.3525584634155265  0.4807690703948637  1.0000
  H   H13       1.0  0.4013351384101753  0.4000639081090185  0.19064057319774008  1.0000
  H   H14       1.0  0.0986687323080702  0.9000565775960111  0.30936122128733257  1.0000
  H   H15       1.0  0.5986670206299252  0.599941295940539  0.8093599289454899  1.0000
  H   H16       1.0  0.9013304097735855  0.09993991577869107  0.6906396798351935  1.0000
  H   H17       1.0  0.4908208842474693  0.0674047472649164  0.8581662669572907  1.0000
  H   H18       1.0  0.009175814649083205  0.567398382346127  0.6418299012964042  1.0000
  H   H19       1.0  0.5091782578691452  0.9325965853695309  0.1418346341778616  1.0000
  H   H20       1.0  0.9908248214052264  0.43260391814459354  0.3581712723427799  1.0000
  C   C1        1.0  0.013418486078713003  0.3574482972080588  0.7889961769685315  1.0000
  C   C2        1.0  0.4865897562614093  0.857455287711467  0.7110066439538656  1.0000
  C   C3        1.0  0.9865837309806835  0.6425501318751826  0.2110024371469521  1.0000
  C   C4        1.0  0.5134093858412212  0.1425441092190809  0.2889942571762347  1.0000
  C   C5        1.0  0.1431238692534507  0.42618565338050013  0.9032043471380007  1.0000
  C   C6        1.0  0.3568809712734762  0.9261829117997915  0.5967951830670799  1.0000
  C   C7        1.0  0.8568752728561719  0.573814711402001  0.09679655399462211  1.0000
  C   C8        1.0  0.6431136600029107  0.07381648511912432  0.4032058445635371  1.0000
  C   C9        1.0  0.19865999606032858  0.5571874972194664  0.9255037133399142  1.0000
  C   C10       1.0  0.30134850671111474  0.057184277766523885  0.5744945815972002  1.0000
  C   C11       1.0  0.8013436568685393  0.4428118997227131  0.0744970612896623  1.0000
  C   C12       1.0  0.6986446886818244  0.9428122155895551  0.42550428551427905  1.0000
  C   C13       1.0  0.3162830576759603  0.5615428041887326  0.05430830600507618  1.0000
  C   C14       1.0  0.1837191430893625  0.06153911064770058  0.44568471428002704  1.0000
  C   C15       1.0  0.6837191013361802  0.4384585284530261  0.9456921961280501  1.0000
  C   C16       1.0  0.8162785631298136  0.9384573827200027  0.5543140263309284  1.0000
  N   N1        1.0  0.22295852127873417  0.3565185468529748  0.012282421646020197  1.0000
  N   N2        1.0  0.2770508413360774  0.8565165561262874  0.4877155155152195  1.0000
  N   N3        1.0  0.7770436377264146  0.6434818179368378  0.9877180804845836  1.0000
  N   N4        1.0  0.7229467777947391  0.1434818729493301  0.5122860571158868  1.0000
  N   N5        1.0  0.3256853345042003  0.4391541490040041  0.10153551563839609  1.0000
  N   N6        1.0  0.17431930413650323  0.9391474814901739  0.39845987487486667  1.0000
  N   N7        1.0  0.6743168245079403  0.5608471836377547  0.89846498649473  1.0000
  N   N8        1.0  0.8256798960203754  0.060849979733809775  0.6015391382401134  1.0000
  Cl  Cl1       1.0  0.10518883079306819  0.9089500879092042  0.8907709136357411  1.0000
  Cl  Cl2       1.0  0.3948186905931124  0.40895326935110177  0.609230959623531  1.0000
  Cl  Cl3       1.0  0.8948103984258821  0.0910512447212355  0.1092271554843194  1.0000
  Cl  Cl4       1.0  0.6051760858538416  0.5910461275611423  0.3907653479819261  1.0000
  O   O1        1.0  0.4721419716490233  0.1463998821233545  0.9086643377044439  1.0000
  O   O2        1.0  0.027857188119973796  0.6463963676323914  0.5913381794644722  1.0000
  O   O3        1.0  0.5278585772819754  0.8535995148155283  0.09133966794225051  1.0000
  O   O4        1.0  0.9721450870076468  0.35360206144817846  0.40865854664095747  1.0000
  O   O5        1.0  0.9912577896310211  0.23595157896455995  0.7982139938763524  1.0000
  O   O6        1.0  0.5087563996835129  0.7359550696588001  0.7017937699678996  1.0000
  O   O7        1.0  0.008748938254612397  0.7640468501303133  0.20178449373861443  1.0000
  O   O8        1.0  0.4912456722262846  0.26404626298696593  0.2982095641803255  1.0000
  O   O9        1.0  0.9288830046537341  0.4260325356289627  0.6888546174015673  1.0000
  O   O10       1.0  0.5711253733981679  0.9260395838556472  0.811139287646789  1.0000
  O   O11       1.0  0.07111921242663041  0.5739687970101245  0.3111439967214977  1.0000
  O   O12       1.0  0.42887678562795634  0.07396368449000332  0.18886121449138932  1.0000
