data_image0
_chemical_formula_structural       Zn4H46C58N10O22
_chemical_formula_sum              "Zn4 H46 C58 N10 O22"
_cell_length_a       10.713582632224373
_cell_length_b       10.577633665859546
_cell_length_c       13.440848554018064
_cell_angle_alpha    94.41787592161678
_cell_angle_beta     89.9994596014548
_cell_angle_gamma    90.00055477106943

_space_group_name_H-M_alt    "P 1"
_space_group_IT_number       1

loop_
  _space_group_symop_operation_xyz
  'x, y, z'

loop_
  _atom_site_type_symbol
  _atom_site_label
  _atom_site_symmetry_multiplicity
  _atom_site_fract_x
  _atom_site_fract_y
  _atom_site_fract_z
  _atom_site_occupancy
  Zn  Zn1       1.0  0.39409367748398694  0.23842778113987612  0.8927322513109605  1.0000
  Zn  Zn2       1.0  0.8940895517306657  0.7615696787025001  0.10726026727714812  1.0000
  Zn  Zn3       1.0  0.6944485707196008  0.7100024381896121  0.5373058887561869  1.0000
  Zn  Zn4       1.0  0.1944499237001338  0.29000268488671566  0.46269156489143637  1.0000
  H   H1        1.0  0.5940282331377986  0.48003924225504596  0.5335939221292278  1.0000
  H   H2        1.0  0.0940270817019027  0.5199592758405415  0.46640610751122585  1.0000
  H   H3        1.0  0.6555265078623549  0.47920395054203624  0.42581708441851873  1.0000
  H   H4        1.0  0.1555240780655325  0.5207960758397406  0.5741818350103146  1.0000
  H   H5        1.0  0.9270972102328373  0.6350448629901707  0.47041087496383244  1.0000
  H   H6        1.0  0.4270947505509427  0.36496237225745176  0.5295879489244655  1.0000
  H   H7        1.0  0.8750446415717192  0.5782203385774949  0.5732359002230184  1.0000
  H   H8        1.0  0.37505048828145243  0.42178642591816373  0.4267610510182465  1.0000
  H   H9        1.0  0.7795334399055774  0.7341337816745154  0.3412345565676135  1.0000
  H   H10       1.0  0.27952942083953053  0.2658721074463203  0.6587690054454924  1.0000
  H   H11       1.0  0.6390564313510511  0.69033709217409  0.3379116737035234  1.0000
  H   H12       1.0  0.1390555931245814  0.3096722605747003  0.662093148506969  1.0000
  H   H13       1.0  0.8333900399715546  0.5670074498127349  0.8772822926915111  1.0000
  H   H14       1.0  0.3333968231366454  0.4330150477877623  0.12272263007299242  1.0000
  H   H15       1.0  0.6888731901510354  0.1478463977556714  0.903308491459889  1.0000
  H   H16       1.0  0.18887030550291678  0.8521529717544214  0.09670055497191042  1.0000
  H   H17       1.0  0.8046542739179755  0.9407101852167798  0.9119323246659335  1.0000
  H   H18       1.0  0.3046513504786788  0.059289300838848605  0.0880654492995063  1.0000
  H   H19       1.0  0.6831058285332503  0.7397382157971606  0.8960081075191796  1.0000
  H   H20       1.0  0.18310371034456097  0.2602573296878958  0.10398214739900881  1.0000
  H   H21       1.0  0.4524072534818941  0.7471809562234241  0.8745731603843082  1.0000
  H   H22       1.0  0.9524026955340406  0.25281039558506535  0.1254192926803839  1.0000
  H   H23       1.0  0.26547290629900283  0.7690827026446597  0.8386194537874021  1.0000
  H   H24       1.0  0.7654761094735179  0.2309107208962615  0.16139312064525776  1.0000
  H   H25       1.0  0.041297074322443506  0.8110040550574807  0.8144561542722784  1.0000
  H   H26       1.0  0.5412986533717471  0.18898733078496827  0.18555722331191765  1.0000
  H   H27       1.0  0.9638819444870635  0.0374479893434767  0.829963420696906  1.0000
  H   H28       1.0  0.4638755102748674  0.9625443963104344  0.1700453782066731  1.0000
  H   H29       1.0  0.1217571850719921  0.21301350556223753  0.8647151066858854  1.0000
  H   H30       1.0  0.6217455016124019  0.7869824217143769  0.1352830692843199  1.0000
  H   H31       1.0  0.4067585094593724  0.6426412325774747  0.5025969052673461  1.0000
  H   H32       1.0  0.9067579821647556  0.3573535029245605  0.49739088776781415  1.0000
  H   H33       1.0  0.20241347856608635  0.7484544378890234  0.5466020835903224  1.0000
  H   H34       1.0  0.7024171279374941  0.2515261127182029  0.45338636374220453  1.0000
  H   H35       1.0  0.20616072934382862  0.973094513660989  0.6258589588529803  1.0000
  H   H36       1.0  0.7061734361309391  0.026878475199552592  0.37413792478847097  1.0000
  H   H37       1.0  0.4095009301593748  0.0792644724824925  0.6572357890675136  1.0000
  H   H38       1.0  0.909519789188586  0.9207236301909134  0.3427694327094883  1.0000
  H   H39       1.0  0.5804215876362093  0.1554022031230957  0.6779858192187406  1.0000
  H   H40       1.0  0.0804336755930493  0.8445914451610436  0.3220184772313033  1.0000
  H   H41       1.0  0.796817290551104  0.24234469715514714  0.6971476706366817  1.0000
  H   H42       1.0  0.29683250644823284  0.7576584986500093  0.3028608052271693  1.0000
  H   H43       1.0  0.9779831523378065  0.09697572539383967  0.6517361334071765  1.0000
  H   H44       1.0  0.47799175419778095  0.9030376533833788  0.3482701276429837  1.0000
  H   H45       1.0  0.9307920237704437  0.8711885624209968  0.586924479601656  1.0000
  H   H46       1.0  0.4308017560127269  0.1288196444893259  0.41308330427969514  1.0000
  C   C1        1.0  0.49874476992727057  0.3580234095162779  0.7053877069005098  1.0000
  C   C2        1.0  0.9987419273592693  0.6419854280139533  0.2946084488326335  1.0000
  C   C3        1.0  0.5800151104182092  0.3992152093174892  0.79311793508041  1.0000
  C   C4        1.0  0.08001129854059741  0.6007964587996212  0.2068807735045652  1.0000
  C   C5        1.0  0.6860556610071527  0.47650412792842184  0.7895549159553782  1.0000
  C   C6        1.0  0.1860538650694608  0.5235094518347552  0.21044386290662231  1.0000
  C   C7        1.0  0.7501888203951237  0.5077922403733695  0.878797530805386  1.0000
  C   C8        1.0  0.25019245635933623  0.49222571544084553  0.1212010380310033  1.0000
  C   C9        1.0  0.7057631778512459  0.4693948504345967  0.9698002448846453  1.0000
  C   C10       1.0  0.20576453485598023  0.5306065860988695  0.0301939222902021  1.0000
  C   C11       1.0  0.5983440473620831  0.39307877951262776  0.9667894158595305  1.0000
  C   C12       1.0  0.09834423401285619  0.6069207311426013  0.03320617844695311  1.0000
  C   C13       1.0  0.5329108336748831  0.35049511104011793  0.0589046844024423  1.0000
  C   C14       1.0  0.0329183272577751  0.6495028581238743  0.9410898154044105  1.0000
  C   C15       1.0  0.7317676128419138  0.5303181417828214  0.6956064846239017  1.0000
  C   C16       1.0  0.23177071290215423  0.4696968035917807  0.30439054900180207  1.0000
  C   C17       1.0  0.7735546893220403  0.511149029684205  0.0655759036421273  1.0000
  C   C18       1.0  0.2735616541481036  0.4888511209706082  0.9344228870123319  1.0000
  C   C19       1.0  0.6401832048157488  0.056894631155884695  0.8955757558862629  1.0000
  C   C20       1.0  0.1401792339378289  0.9431014560630403  0.10442898843404443  1.0000
  C   C21       1.0  0.7040829544131171  0.9427316496424893  0.9001370253472916  1.0000
  C   C22       1.0  0.20407893733891314  0.05726028100790611  0.0998640114487799  1.0000
  C   C23       1.0  0.6358727903217697  0.8301365838130718  0.8913947924663077  1.0000
  C   C24       1.0  0.13587348308771402  0.1698594752797788  0.10860031025050179  1.0000
  C   C25       1.0  0.5068338866815337  0.8346642640736516  0.8787206177443352  1.0000
  C   C26       1.0  0.0068325179038595  0.16532872347972466  0.12127674711147313  1.0000
  C   C27       1.0  0.44995435309366627  0.9535044073883369  0.8739111539779503  1.0000
  C   C28       1.0  0.9499534075239069  0.04648880834765381  0.12609035968446142  1.0000
  C   C29       1.0  0.3134306162681071  0.9692850408878685  0.8605692840615619  1.0000
  C   C30       1.0  0.8134246930087132  0.0307050352321312  0.1394345434046542  1.0000
  C   C31       1.0  0.23181421133861596  0.8667241671947108  0.842205731221668  1.0000
  C   C32       1.0  0.7318137201216787  0.1332708517700922  0.15780272811431223  1.0000
  C   C33       1.0  0.1050827542069328  0.8905070878428206  0.8290785344773327  1.0000
  C   C34       1.0  0.6050809446539347  0.1094867769846317  0.17093228736703742  1.0000
  C   C35       1.0  0.0624214387486504  0.0154229253020901  0.8375560280590977  1.0000
  C   C36       1.0  0.562418794443225  0.9845696067730781  0.16245205426140066  1.0000
  C   C37       1.0  0.1481568895543788  0.11308011994410797  0.8560689718004968  1.0000
  C   C38       1.0  0.6481451285010776  0.8869122494659153  0.14393325307931093  1.0000
  C   C39       1.0  0.40344239445445845  0.7378966727339106  0.5396492231139121  1.0000
  C   C40       1.0  0.903443262016161  0.26209802666969756  0.4603438004435462  1.0000
  C   C41       1.0  0.2901069659137931  0.7976429353470422  0.563895581055654  1.0000
  C   C42       1.0  0.790115016634637  0.2023478888504613  0.4360980501894432  1.0000
  C   C43       1.0  0.2921542390691698  0.9217144264671829  0.6068776861212514  1.0000
  C   C44       1.0  0.7921672124341794  0.07827166852992211  0.393121591828077  1.0000
  C   C45       1.0  0.40657833241289865  0.9819530742298137  0.6243576851551111  1.0000
  C   C46       1.0  0.9065956032891336  0.018036901675579003  0.375644697297922  1.0000
  C   C47       1.0  0.5166552519569123  0.915571410625205  0.5995526523625331  1.0000
  C   C48       1.0  0.016665642397143205  0.08442924940625568  0.40044734170435703  1.0000
  C   C49       1.0  0.6424704735142869  0.9720471219213136  0.617238578312744  1.0000
  C   C50       1.0  0.1424805330860011  0.02795752683229581  0.38276072191661836  1.0000
  C   C51       1.0  0.6606084248826747  0.09660770340018131  0.6571943153340812  1.0000
  C   C52       1.0  0.16062549593901568  0.9033952088068773  0.34280920709314  1.0000
  C   C53       1.0  0.7815251774968033  0.14372127710066  0.6697268079257271  1.0000
  C   C54       1.0  0.2815456795819387  0.8562836811855662  0.33027742605798244  1.0000
  C   C55       1.0  0.8819423356702674  0.0637933205297401  0.6442220394331744  1.0000
  C   C56       1.0  0.3819586334292637  0.93621634116208  0.3557839659994855  1.0000
  C   C57       1.0  0.8571483347656539  0.939778815215554  0.606843554160683  1.0000
  C   C58       1.0  0.3571595133238645  0.06022778061473132  0.3931587282109207  1.0000
  N   N1        1.0  0.5430407670987164  0.3578591782883791  0.8800220200319232  1.0000
  N   N2        1.0  0.04303652255830309  0.6421445713367289  0.1199735027437043  1.0000
  N   N3        1.0  0.5165804006751812  0.062170696975613296  0.8819207337503274  1.0000
  N   N4        1.0  0.016579016342277  0.9378223690080603  0.11808549122820011  1.0000
  N   N5        1.0  0.2705798205941647  0.09014672190026829  0.8659739327707072  1.0000
  N   N6        1.0  0.7705730648517175  0.9098458168261985  0.13402366932764664  1.0000
  N   N7        1.0  0.5136167268077544  0.7953185556499562  0.5574534947120853  1.0000
  N   N8        1.0  0.0136203016639911  0.20467923719546377  0.44254188221066937  1.0000
  N   N9        1.0  0.7406325643152983  0.896152078857092  0.5926403183546469  1.0000
  N   N10       1.0  0.2406467922121536  0.1038525126437122  0.40735973416816057  1.0000
  O   O1        1.0  0.4113505686668333  0.2793030538809376  0.7202446011687443  1.0000
  O   O2        1.0  0.9113467920801173  0.7207002495865353  0.27975037905911654  1.0000
  O   O3        1.0  0.5217172471044762  0.40014125570522197  0.6214409235855743  1.0000
  O   O4        1.0  0.021713244054019802  0.5998689374717259  0.3785551533851149  1.0000
  O   O5        1.0  0.8175979213974787  0.4715784723351675  0.6467657665079188  1.0000
  O   O6        1.0  0.31760940278745414  0.5284287282023284  0.3532227119306698  1.0000
  O   O7        1.0  0.6806956758832287  0.6347901084684509  0.6766421610805651  1.0000
  O   O8        1.0  0.18068914643048833  0.3652272128143466  0.3233591192273337  1.0000
  O   O9        1.0  0.7527161022419191  0.627950407494062  0.0957484523150924  1.0000
  O   O10       1.0  0.2527195061072334  0.372051450915002  0.9042498545114839  1.0000
  O   O11       1.0  0.8468862568711941  0.4351271236305436  0.10128908907967833  1.0000
  O   O12       1.0  0.346892510742542  0.5648717991449532  0.8987075913034417  1.0000
  O   O13       1.0  0.5670093285509168  0.3969581144242013  0.1425196313377342  1.0000
  O   O14       1.0  0.0670164408270253  0.6030373184885249  0.8574759466012839  1.0000
  O   O15       1.0  0.44286783595549656  0.2698086979710155  0.042459942025104204  1.0000
  O   O16       1.0  0.9428728617326031  0.7301873073244565  0.9575336115298898  1.0000
  O   O17       1.0  0.6112760888431835  0.5321401345424661  0.47652334004796876  1.0000
  O   O18       1.0  0.11127468962970259  0.46785854124518517  0.5234758266126464  1.0000
  O   O19       1.0  0.8803198591280649  0.6559180104473229  0.5343709265310822  1.0000
  O   O20       1.0  0.38031796254274036  0.3440906958494026  0.4656283364739764  1.0000
  O   O21       1.0  0.6960831576407145  0.747686809273212  0.3755095831308353  1.0000
  O   O22       1.0  0.19607941760628486  0.25232116476848176  0.6244954731862296  1.0000
