data_image0
_chemical_formula_structural       Cd4H40C64N24O16
_chemical_formula_sum              "Cd4 H40 C64 N24 O16"
_cell_length_a       11.361464545
_cell_length_b       13.796269005090464
_cell_length_c       13.78
_cell_angle_alpha    103.19438200919522
_cell_angle_beta     90.0
_cell_angle_gamma    114.31590228876014

_space_group_name_H-M_alt    "P 1"
_space_group_IT_number       1

loop_
  _space_group_symop_operation_xyz
  'x, y, z'

loop_
  _atom_site_type_symbol
  _atom_site_label
  _atom_site_symmetry_multiplicity
  _atom_site_fract_x
  _atom_site_fract_y
  _atom_site_fract_z
  _atom_site_occupancy
  Cd  Cd1       1.0  0.04150228195013035  0.4434011850563309  0.36499293904418545  1.0000
  Cd  Cd2       1.0  0.4018674403026666  0.4433617490515047  0.8649744929732106  1.0000
  Cd  Cd3       1.0  0.9584958990046105  0.5565973074202262  0.6350076598454066  1.0000
  Cd  Cd4       1.0  0.5981319730532989  0.5566392081753548  0.13502666917317896  1.0000
  H   H1        1.0  0.08467917913721833  0.3475569048176368  0.7663579147260362  1.0000
  H   H2        1.0  0.2628456937840156  0.3473901233805421  0.26628641930365393  1.0000
  H   H3        1.0  0.9153224639229836  0.6524432308257886  0.23364160828927535  1.0000
  H   H4        1.0  0.7371537781393444  0.6526091906794491  0.7337143673382085  1.0000
  H   H5        1.0  0.862815380479198  0.3067948643252336  0.8309549654415989  1.0000
  H   H6        1.0  0.4437593472776271  0.3064497992829729  0.33093271326396223  1.0000
  H   H7        1.0  0.13718579321319882  0.6932060929016259  0.1690447453259765  1.0000
  H   H8        1.0  0.5562426480155837  0.693552801110755  0.6690688243869544  1.0000
  H   H9        1.0  0.006009642664608397  0.2020503707464698  0.3619899395615177  1.0000
  H   H10       1.0  0.19581832465888746  0.2019772498208496  0.8618934037754042  1.0000
  H   H11       1.0  0.9939915895951901  0.7979489433135214  0.638010847080345  1.0000
  H   H12       1.0  0.8041819688652938  0.7980237074060099  0.13810848406038903  1.0000
  H   H13       1.0  0.8381294501498928  0.0166239192027078  0.3761734350591722  1.0000
  H   H14       1.0  0.17810877826238428  0.0164546730153177  0.8757871528676587  1.0000
  H   H15       1.0  0.16187225147771775  0.9833745732738491  0.623826438141016  1.0000
  H   H16       1.0  0.8218928647978176  0.9835454626281077  0.12421237014765302  1.0000
  H   H17       1.0  0.549115163820595  0.1437376649378521  0.3768280406196566  1.0000
  H   H18       1.0  0.5943331509963486  0.1435955310037826  0.8768224099858271  1.0000
  H   H19       1.0  0.45088530540579097  0.8562583627884024  0.6231705436343375  1.0000
  H   H20       1.0  0.40566843349645865  0.8564062478065112  0.12317676284461498  1.0000
  H   H21       1.0  0.7281909657533917  0.3235757059638331  0.3634712278016464  1.0000
  H   H22       1.0  0.5951744186312952  0.3234220698616781  0.8635065100003982  1.0000
  H   H23       1.0  0.271809034105182  0.6764211433458556  0.6365268185152074  1.0000
  H   H24       1.0  0.40482540552507384  0.6765797089486085  0.1364941142088512  1.0000
  H   H25       1.0  0.5302463179674604  0.7654898250046998  0.37569037298236896  1.0000
  H   H26       1.0  0.23516446044347825  0.7654084882447378  0.8755774458855115  1.0000
  H   H27       1.0  0.4697532125233084  0.2345078458884231  0.6243107638443702  1.0000
  H   H28       1.0  0.7648358330806959  0.2345924689821217  0.12442081350326359  1.0000
  H   H29       1.0  0.36150761444803703  0.581170867929913  0.37734321397566356  1.0000
  H   H30       1.0  0.21955067494556604  0.5810813153356094  0.8771892221282938  1.0000
  H   H31       1.0  0.6384914466749194  0.418827624546644  0.6226581106033393  1.0000
  H   H32       1.0  0.7804492077782046  0.4189188203078089  0.12281030088702488  1.0000
  H   H33       1.0  0.06646324908496844  0.6849007059677419  0.37886736726008496  1.0000
  H   H34       1.0  0.6182824150106826  0.6847552856999286  0.8786062686360621  1.0000
  H   H35       1.0  0.933536633638802  0.3150994296756835  0.6211336071340412  1.0000
  H   H36       1.0  0.3817174677130879  0.3152448499434968  0.1213939800686603  1.0000
  H   H37       1.0  0.22533939634264755  0.8747834260572915  0.36940107894372437  1.0000
  H   H38       1.0  0.64929693855688  0.8746757986274432  0.8692103005233063  1.0000
  H   H39       1.0  0.774660955748935  0.1252158880026997  0.6305989820087345  1.0000
  H   H40       1.0  0.35070341353470263  0.125323515432548  0.13078758336093438  1.0000
  C   C1        1.0  0.04174346243605952  0.375541679745119  0.0425854981175604  1.0000
  C   C2        1.0  0.33377969702826965  0.3755309991604819  0.5425373389056105  1.0000
  C   C3        1.0  0.9582554815520867  0.6244600990651747  0.9574144004022855  1.0000
  C   C4        1.0  0.6662197163276886  0.6244699580663777  0.45746309755137554  1.0000
  C   C5        1.0  0.16564631989074743  0.4094763619013335  0.008031273976904176  1.0000
  C   C6        1.0  0.2437709846654955  0.4094007762254037  0.5079501401009026  1.0000
  C   C7        1.0  0.8343540322008351  0.5905229521586577  0.9919687869755547  1.0000
  C   C8        1.0  0.7562276070896489  0.5905985378345875  0.4920499208515493  1.0000
  C   C9        1.0  0.07068641687637015  0.3568005400330989  0.8456415781570141  1.0000
  C   C10       1.0  0.28605512037624703  0.3566551197652927  0.3455793184299479  1.0000
  C   C11       1.0  0.929313876647811  0.6432004171937606  0.1543588582999718  1.0000
  C   C12       1.0  0.7139456425157392  0.6433450158781326  0.6544216559641781  1.0000
  C   C13       1.0  0.9495486671132201  0.3318786281474146  0.881868652189844  1.0000
  C   C14       1.0  0.3822038385608125  0.3316765186226576  0.3818311734055584  1.0000
  C   C15       1.0  0.05045162641096116  0.6681223290794449  0.11813178426714192  1.0000
  C   C16       1.0  0.6177968657637721  0.6683252601876362  0.6181701764930948  1.0000
  C   C17       1.0  0.029432078810550877  0.3763944833495713  0.15211202502648993  1.0000
  C   C18       1.0  0.34713121568374566  0.3765859122896842  0.6521086014928769  1.0000
  C   C19       1.0  0.9705681561462216  0.6236081170441565  0.8478880612456193  1.0000
  C   C20       1.0  0.6528677868718092  0.6234142233537412  0.3478916472118455  1.0000
  C   C21       1.0  0.28768245672977605  0.4678301468816457  0.0804841280211193  1.0000
  C   C22       1.0  0.1798890584697475  0.4675606675153077  0.5804073058007546  1.0000
  C   C23       1.0  0.712318189027407  0.5321732750955164  0.9195168716926572  1.0000
  C   C24       1.0  0.8201078315163672  0.5324370033778152  0.41959383102597764  1.0000
  C   C25       1.0  0.9039307437254893  0.18558255239621246  0.36614463026284466  1.0000
  C   C26       1.0  0.2814288902941655  0.1854905350516063  0.8660532101369041  1.0000
  C   C27       1.0  0.09607095790212142  0.8144159400803446  0.6338559686267542  1.0000
  C   C28       1.0  0.7185714032300157  0.8145104221752462  0.13394722632007464  1.0000
  C   C29       1.0  0.8120228897497201  0.08370209866822619  0.3734705383860302  1.0000
  C   C30       1.0  0.2713836592078493  0.08355010573294659  0.8732747011691442  1.0000
  C   C31       1.0  0.18797840107747998  0.9162955722248967  0.6265298727513054  1.0000
  C   C32       1.0  0.7286175144845473  0.9164508514939129  0.12672500959843802  1.0000
  C   C33       1.0  0.6821343715112391  0.0673887380035509  0.3766931825363641  1.0000
  C   C34       1.0  0.38494391714584003  0.0672005953971748  0.876522465932453  1.0000
  C   C35       1.0  0.3178673301163713  0.932609754473006  0.6233074163532348  1.0000
  C   C36       1.0  0.6150576673469603  0.9328011834131189  0.1234767068979892  1.0000
  C   C37       1.0  0.6492303017494124  0.1541101557915781  0.37353150439978566  1.0000
  C   C38       1.0  0.50459588721413  0.1539713081912382  0.8735063054716787  1.0000
  C   C39       1.0  0.35077098907779464  0.8458875151015447  0.6264674553587354  1.0000
  C   C40       1.0  0.49540528647826704  0.8460296490356214  0.1264934052959035  1.0000
  C   C41       1.0  0.7478836511695164  0.253425626038748  0.3673610882776969  1.0000
  C   C42       1.0  0.5052991902399669  0.2533138906917287  0.8674110256677992  1.0000
  C   C43       1.0  0.2521176396576905  0.7465720448543749  0.6326378714808242  1.0000
  C   C44       1.0  0.494702805053244  0.7466887097019992  0.132589786293714  1.0000
  C   C45       1.0  0.3896898785546982  0.8339959164784361  0.37309971137101167  1.0000
  C   C46       1.0  0.4441725205337408  0.8339154013019083  0.8730080170191596  1.0000
  C   C47       1.0  0.6103109429046967  0.166002575998121  0.6269008875185875  1.0000
  C   C48       1.0  0.5558277729904405  0.1660855559249512  0.12699024236961517  1.0000
  C   C49       1.0  0.4286304316946855  0.7507111821946566  0.37615125650560793  1.0000
  C   C50       1.0  0.32196500906096764  0.7506010900145057  0.876044820488772  1.0000
  C   C51       1.0  0.5713699789642989  0.2492864886984663  0.6238491546317206  1.0000
  C   C52       1.0  0.6780339934945872  0.24939904562891257  0.12395252545832847  1.0000
  C   C53       1.0  0.33392821989662747  0.6479614931935487  0.3780245314408929  1.0000
  C   C54       1.0  0.3139330796315819  0.6478604384311666  0.8779020184638425  1.0000
  C   C55       1.0  0.6660708412263291  0.3520369992830084  0.6219767931381097  1.0000
  C   C56       1.0  0.6860672138925922  0.35214051879569297  0.12209914368254719  1.0000
  C   C57       1.0  0.16995229206303725  0.7064040091847303  0.376771247635368  1.0000
  C   C58       1.0  0.5363261781647141  0.7062955601714478  0.8765650419851808  1.0000
  C   C59       1.0  0.8300485293963576  0.2935944832918267  0.6232293512542241  1.0000
  C   C60       1.0  0.4636723550230287  0.2937053970554118  0.12343466878240149  1.0000
  C   C61       1.0  0.25739840505410433  0.811017870997496  0.37227826415643506  1.0000
  C   C62       1.0  0.55348898315156  0.8109373558209683  0.8721401256826694  1.0000
  C   C63       1.0  0.7426028272056939  0.1889814430624952  0.6277217967960169  1.0000
  C   C64       1.0  0.4465104887718071  0.18906195823902286  0.12785848389097504  1.0000
  N   N1        1.0  0.933967889986022  0.3382754767642098  0.9792637278984271  1.0000
  N   N2        1.0  0.4042711499687357  0.33819085367051116  0.4792414866575284  1.0000
  N   N3        1.0  0.06603105400212432  0.6617263020460838  0.020736896310822314  1.0000
  N   N4        1.0  0.5957290849880367  0.6618117467232096  0.5207600509933883  1.0000
  N   N5        1.0  0.17825057956763865  0.3957518106370586  0.909585003017291  1.0000
  N   N6        1.0  0.21745549589198995  0.3956647227930574  0.40949253233672767  1.0000
  N   N7        1.0  0.8217493031561319  0.6042483250063668  0.0904159713768351  1.0000
  N   N8        1.0  0.7825439760313772  0.6043345912669338  0.5905075286157312  1.0000
  N   N9        1.0  0.8729095508088563  0.2691252638782515  0.3640613281637782  1.0000
  N   N10       1.0  0.3959917449094662  0.2690258522827449  0.8639732980932917  1.0000
  N   N11       1.0  0.12709085985013502  0.7308724070148712  0.6359390829735502  1.0000
  N   N12       1.0  0.6040089594151185  0.7309759265275488  0.13602805180536143  1.0000
  N   N13       1.0  0.20712830347071085  0.6260276802571667  0.37924287845794413  1.0000
  N   N14       1.0  0.4187954310755729  0.6258954053242931  0.8790326793708871  1.0000
  N   N15       1.0  0.7928716378204612  0.3739708122193903  0.6207577204316548  1.0000
  N   N16       1.0  0.5812031021121697  0.37410555190255923  0.12096703139669528  1.0000
  N   N17       1.0  0.593998144360235  0.962006831323464  0.3844404744801365  1.0000
  N   N18       1.0  0.3677017753462196  0.9617800742956889  0.8841419204573666  1.0000
  N   N19       1.0  0.40600314646697205  0.0379908395696589  0.6155592109677881  1.0000
  N   N20       1.0  0.6322993983461771  0.0382208829311708  0.1158570646208048  1.0000
  N   N21       1.0  0.47565807690103423  0.9413045719545821  0.36750412280977673  1.0000
  N   N22       1.0  0.4655059188686154  0.9412388452798695  0.8675195815836005  1.0000
  N   N23       1.0  0.5243436247265763  0.058693920521975  0.6324957503904114  1.0000
  N   N24       1.0  0.5344939638551552  0.0587612903635559  0.13247776436350017  1.0000
  O   O1        1.0  0.9906715714142682  0.4450106670034586  0.20359441771934425  1.0000
  O   O2        1.0  0.45450344871674997  0.4452949348716047  0.7035273045312703  1.0000
  O   O3        1.0  0.009326081605259216  0.554990290223401  0.7964060187376417  1.0000
  O   O4        1.0  0.5454942043027701  0.5547060223552549  0.2964738576151191  1.0000
  O   O5        1.0  0.05849177762644335  0.3092867268804298  0.18337782880098527  1.0000
  O   O6        1.0  0.25108832034242573  0.3094502219837878  0.6834841319951506  1.0000
  O   O7        1.0  0.9415097482989552  0.6907166950967323  0.8166231709127983  1.0000
  O   O8        1.0  0.7489115623813448  0.6905499136596376  0.31651611670957175  1.0000
  O   O9        1.0  0.28127073290691845  0.5194444829532046  0.1656370534301104  1.0000
  O   O10       1.0  0.23769369257897216  0.5190098653166402  0.6656545684762135  1.0000
  O   O11       1.0  0.7187268615452  0.4805581174405233  0.8343630328419989  1.0000
  O   O12       1.0  0.7623023172389267  0.4809878055764827  0.33434584266111494  1.0000
  O   O13       1.0  0.39034933437192626  0.4618391604812189  0.04544377580653959  1.0000
  O   O14       1.0  0.07125541956767023  0.4615778969492226  0.5453100502670267  1.0000
  O   O15       1.0  0.6096496681836285  0.5381609751621994  0.9545571985875865  1.0000
  O   O16       1.0  0.9287435829878776  0.5384222386942028  0.4546887470588884  1.0000
