data_image0
_chemical_formula_structural       SrZrCdH8C8O20
_chemical_formula_sum              "Sr1 Zr1 Cd1 H8 C8 O20"
_cell_length_a       8.566256925860218
_cell_length_b       9.124588038081658
_cell_length_c       9.124593351030725
_cell_angle_alpha    77.25246242167734
_cell_angle_beta     61.977720657544346
_cell_angle_gamma    61.97770586160017

_space_group_name_H-M_alt    "P 1"
_space_group_IT_number       1

loop_
  _space_group_symop_operation_xyz
  'x, y, z'

loop_
  _atom_site_type_symbol
  _atom_site_label
  _atom_site_symmetry_multiplicity
  _atom_site_fract_x
  _atom_site_fract_y
  _atom_site_fract_z
  _atom_site_occupancy
  Sr  Sr1       1.0  0.5000338295439943  0.9999829912501069  0.9999817965955913  1.0000
  Zr  Zr1       1.0  0.24997791097916897  0.49999641469537426  0.4999952522268884  1.0000
  Cd  Cd1       1.0  0.00018580970068148283  0.9998717378741728  0.9998721741020944  1.0000
  H   H1        1.0  0.5473234419140739  0.7214579513709578  0.2785464516778333  1.0000
  H   H2        1.0  0.17395209094041772  0.278527847271249  0.2785295409392318  1.0000
  H   H3        1.0  0.5473239765552905  0.27854756863425223  0.7214569656125176  1.0000
  H   H4        1.0  0.7311050153235072  0.7214879108171102  0.7214872933210331  1.0000
  H   H5        1.0  0.7224547697586632  0.7709157455540703  0.2290843240688716  1.0000
  H   H6        1.0  0.04831770809724385  0.22906023939940914  0.2290614741851797  1.0000
  H   H7        1.0  0.7224561392194532  0.22908431118722186  0.7709155539417621  1.0000
  H   H8        1.0  0.5064886177348527  0.7709608431537304  0.7709576548882565  1.0000
  C   C1        1.0  0.23447907381912358  0.7222359396480014  0.7222358070020077  1.0000
  C   C2        1.0  0.043310827909387194  0.7225079079169133  0.27773641728654047  1.0000
  C   C3        1.0  0.6790748357174579  0.2774410723377441  0.2774413083224517  1.0000
  C   C4        1.0  0.04331014325116187  0.2777371559880065  0.7225065908879387  1.0000
  C   C5        1.0  0.01952919803247239  0.7678717436399722  0.7678720870595654  1.0000
  C   C6        1.0  0.21266668892474178  0.7680057783655343  0.2322582190250628  1.0000
  C   C7        1.0  0.5551502006119762  0.23203863468710015  0.2320378592279653  1.0000
  C   C8        1.0  0.21266445010125068  0.2322595806487016  0.7680064518752231  1.0000
  O   O1        1.0  0.8856015254380621  0.8752941707748644  0.8752950235251973  1.0000
  O   O2        1.0  0.23929172376629287  0.8753435240499954  0.1248209293677078  1.0000
  O   O3        1.0  0.635993734881808  0.12464611866256085  0.12464739443686311  1.0000
  O   O4        1.0  0.23929006589588628  0.1248241008595983  0.8753449149670942  1.0000
  O   O5        1.0  0.9980497213025427  0.6857610206836852  0.6857630490452706  1.0000
  O   O6        1.0  0.3162053361263802  0.6857683964059047  0.3144337528532049  1.0000
  O   O7        1.0  0.369357131944376  0.31429477526604177  0.3142957335806003  1.0000
  O   O8        1.0  0.31620276126305663  0.3144359144153197  0.6857697295911435  1.0000
  O   O9        1.0  0.27294701680781924  0.7944447708558328  0.7944449951513946  1.0000
  O   O10       1.0  0.932739729497456  0.7946456413448998  0.2053594702287924  1.0000
  O   O11       1.0  0.8620654677020312  0.20517168219638626  0.20517357811710474  1.0000
  O   O12       1.0  0.9327402447593585  0.20535975399233292  0.794644289899601  1.0000
  O   O13       1.0  0.3569685115495814  0.6107606716859734  0.6107613037755044  1.0000
  O   O14       1.0  0.03221197165363783  0.6110579576416555  0.3892169241241347  1.0000
  O   O15       1.0  0.5786391130185818  0.3889173691219481  0.388919041315404  1.0000
  O   O16       1.0  0.032210831182524664  0.3892171662948413  0.6110551622169709  1.0000
  O   O17       1.0  0.6110848569208828  0.7923566572543518  0.2076749131408917  1.0000
  O   O18       1.0  0.18110803384325178  0.20764273630752672  0.20764462701708908  1.0000
  O   O19       1.0  0.6110859110535856  0.20767577880615545  0.7923565171047285  1.0000
  O   O20       1.0  0.596394386353978  0.7923978657009056  0.7923926099040558  1.0000
