data_image0
_chemical_formula_structural       Zn4H40C64S16N16
_chemical_formula_sum              "Zn4 H40 C64 S16 N16"
_cell_length_a       6.837579303119321
_cell_length_b       13.567496506149906
_cell_length_c       19.702830228410345
_cell_angle_alpha    97.73294683822296
_cell_angle_beta     89.9873932551429
_cell_angle_gamma    104.56324989160836

_space_group_name_H-M_alt    "P 1"
_space_group_IT_number       1

loop_
  _space_group_symop_operation_xyz
  'x, y, z'

loop_
  _atom_site_type_symbol
  _atom_site_label
  _atom_site_symmetry_multiplicity
  _atom_site_fract_x
  _atom_site_fract_y
  _atom_site_fract_z
  _atom_site_occupancy
  Zn  Zn1       1.0  0.7578493464657896  0.47692349054505473  0.9637273006144725  1.0000
  Zn  Zn2       1.0  0.28077635959370884  0.5229135872348891  0.5363860266870333  1.0000
  Zn  Zn3       1.0  0.24215947942006014  0.5230599167927893  0.036270675958974215  1.0000
  Zn  Zn4       1.0  0.7192181083958218  0.47709671282363086  0.4636157194457838  1.0000
  H   H1        1.0  0.2857946981831816  0.05507184869281191  0.0172466460021496  1.0000
  H   H2        1.0  0.2308418807263449  0.9450165722144986  0.4821519426587316  1.0000
  H   H3        1.0  0.7141821253631234  0.9449177603865523  0.9827499363433463  1.0000
  H   H4        1.0  0.7691894396123616  0.05498260442969641  0.5178643986620202  1.0000
  H   H5        1.0  0.30328067307259243  0.9156618598042175  0.06597689444948436  1.0000
  H   H6        1.0  0.38781320800701746  0.08458928523739931  0.433462890072434  1.0000
  H   H7        1.0  0.6966977970920425  0.08432226393848914  0.9340236945005388  1.0000
  H   H8        1.0  0.6121866345034095  0.9154171351378655  0.5665399813797904  1.0000
  H   H9        1.0  0.8396827386767782  0.6444217611444786  0.3516058510932539  1.0000
  H   H10       1.0  0.1959101031816459  0.35587042810828257  0.14839088752459165  1.0000
  H   H11       1.0  0.16032201038047592  0.3555915563634714  0.6483987416688137  1.0000
  H   H12       1.0  0.8040873736006732  0.6441283258154231  0.8516101837514543  1.0000
  H   H13       1.0  0.19221296937715257  0.7440032085224931  0.40951190581236585  1.0000
  H   H14       1.0  0.44829501421967416  0.25592452160810103  0.09020560427958911  1.0000
  H   H15       1.0  0.8077929784745449  0.25601250671519443  0.5904888716672048  1.0000
  H   H16       1.0  0.5517162717658836  0.7440726013912669  0.9097993602920839  1.0000
  H   H17       1.0  0.06941521030283579  0.08002826300464247  0.8140712888019837  1.0000
  H   H18       1.0  0.9917936922223877  0.9197366211659247  0.6856455673357333  1.0000
  H   H19       1.0  0.9305796195785447  0.9199651882704956  0.18592568638207754  1.0000
  H   H20       1.0  0.008185438425165602  0.08029275702874374  0.3143647317234155  1.0000
  H   H21       1.0  0.21357092974631095  0.18050280056335316  0.9355351828142988  1.0000
  H   H22       1.0  0.033878761808736585  0.8194572498365178  0.5639125476368181  1.0000
  H   H23       1.0  0.7864084053422149  0.8194859823034836  0.06446385282418284  1.0000
  H   H24       1.0  0.966131989210176  0.18055345269849715  0.43610548225765206  1.0000
  H   H25       1.0  0.42857686576272164  0.8481774601470067  0.3219662954309329  1.0000
  H   H26       1.0  0.5804833530229203  0.15147636877635764  0.17759238313458783  1.0000
  H   H27       1.0  0.5714254290501232  0.15182215307814323  0.6780308029010416  1.0000
  H   H28       1.0  0.41951105842941433  0.8485221124766728  0.8224208426483842  1.0000
  H   H29       1.0  0.2747216785544566  0.5371835893668688  0.1969561134317246  1.0000
  H   H30       1.0  0.737899275974179  0.4628385696924513  0.30302898131883893  1.0000
  H   H31       1.0  0.7252961540541919  0.4628090668995527  0.8030417947543073  1.0000
  H   H32       1.0  0.2621023139499243  0.537177203067266  0.6969692642147224  1.0000
  H   H33       1.0  0.5542571025045008  0.6080979311579144  0.286604588734356  1.0000
  H   H34       1.0  0.9464246467401768  0.3916530970257811  0.2133255110835108  1.0000
  H   H35       1.0  0.44574760103938615  0.3918977231517645  0.713397180082275  1.0000
  H   H36       1.0  0.053607581333189144  0.6083742398087325  0.7866723948077665  1.0000
  H   H37       1.0  0.33174278029217436  0.7508720599408112  0.10464231309224914  1.0000
  H   H38       1.0  0.5809821350080995  0.24956071767309146  0.39503188869831274  1.0000
  H   H39       1.0  0.6682450317948607  0.24910147916767045  0.8953490700990514  1.0000
  H   H40       1.0  0.41901944195019075  0.7504403880464993  0.6049673928804895  1.0000
  C   C1        1.0  0.13888560089263552  0.6609303049055841  0.9488957530048624  1.0000
  C   C2        1.0  0.47840528804565724  0.3390119853648202  0.550956369100007  1.0000
  C   C3        1.0  0.8611108514990917  0.33905174836770874  0.05109396377930151  1.0000
  C   C4        1.0  0.5216009552737474  0.6609984609415777  0.44903879284977694  1.0000
  C   C5        1.0  0.22768901090402946  0.030290161955917914  0.9646343035511933  1.0000
  C   C6        1.0  0.19803529737167475  0.9696777627629843  0.5348614780253413  1.0000
  C   C7        1.0  0.7722975568013625  0.9696955326756224  0.035364923195999216  1.0000
  C   C8        1.0  0.8019863640532138  0.03032842689578531  0.4651515209976367  1.0000
  C   C9        1.0  0.6481164584185635  0.6246842516393728  0.09743990272486512  1.0000
  C   C10       1.0  0.02399419628788022  0.3753595237418069  0.40250110077064966  1.0000
  C   C11       1.0  0.35190100777197847  0.37530766986328257  0.9025564074414447  1.0000
  C   C12       1.0  0.9759968509774029  0.6246439244894976  0.5974968982537734  1.0000
  C   C13       1.0  0.7734681681031079  0.6603641811784586  0.20937804242153396  1.0000
  C   C14       1.0  0.11373976115846317  0.3396340852118485  0.2905550584988674  1.0000
  C   C15       1.0  0.22654125651543927  0.33962921110845923  0.7906214642108298  1.0000
  C   C16       1.0  0.8862409816178813  0.6603663000550954  0.7094421196237592  1.0000
  C   C17       1.0  0.17880949328885282  0.9283123501009316  0.9342652182778863  1.0000
  C   C18       1.0  0.2514963901561131  0.07158150521203051  0.5653075915377387  1.0000
  C   C19       1.0  0.8211848113944954  0.0716741920344077  0.06573054181489371  1.0000
  C   C20       1.0  0.7485098538500524  0.9284348082446174  0.4347008611439165  1.0000
  C   C21       1.0  0.944811174417744  0.7033003231773733  0.2568868036975688  1.0000
  C   C22       1.0  0.24227439543888346  0.29674976092490374  0.24299878370185013  1.0000
  C   C23       1.0  0.05519302860453484  0.2967031117901017  0.7431117011188065  1.0000
  C   C24       1.0  0.7577173052726354  0.703252069645906  0.7570026028262477  1.0000
  C   C25       1.0  0.19054520322179513  0.8375163302714627  0.9635881085633429  1.0000
  C   C26       1.0  0.3537830577783438  0.1624352363309144  0.5360111043130473  1.0000
  C   C27       1.0  0.8094403270533521  0.16247021312062063  0.036407651956039906  1.0000
  C   C28       1.0  0.6462216177442528  0.8375750053677536  0.4639931734813772  1.0000
  C   C29       1.0  0.2596017267649202  0.8433788961247688  0.03174333765296925  1.0000
  C   C30       1.0  0.41646365230774046  0.1567790250476549  0.46779146814096617  1.0000
  C   C31       1.0  0.740382962007544  0.15660303365811504  0.968251950450501  1.0000
  C   C32       1.0  0.5835438979041285  0.8432281859377541  0.5322104688161602  1.0000
  C   C33       1.0  0.961716516609563  0.6905826176371903  0.3251373682205241  1.0000
  C   C34       1.0  0.2717252765942675  0.30955073781832715  0.17475771043010013  1.0000
  C   C35       1.0  0.038289978606158556  0.3094254079725615  0.6748626218043868  1.0000
  C   C36       1.0  0.7282802241941511  0.6904465111849237  0.8252416836754862  1.0000
  C   C37       1.0  0.15075305719656745  0.745447175212931  0.3564239113887595  1.0000
  C   C38       1.0  0.4056854566672072  0.2545796650910931  0.14333299723762852  1.0000
  C   C39       1.0  0.8492531451357195  0.2545631914423368  0.6435747955840725  1.0000
  C   C40       1.0  0.5943108213206756  0.7454166911028821  0.8566718893209214  1.0000
  C   C41       1.0  0.11423016715400541  0.046992238544859816  0.8570222732557936  1.0000
  C   C42       1.0  0.06920049068581598  0.9528493119967936  0.6426566046604449  1.0000
  C   C43       1.0  0.8857691176108419  0.9530042765324539  0.14297552311446546  1.0000
  C   C44       1.0  0.93080003907361  0.047173131158778914  0.3573534911046252  1.0000
  C   C45       1.0  0.1902568636428299  0.09806472107787563  0.9206212449177116  1.0000
  C   C46       1.0  0.09328392570487416  0.9018648610455104  0.5789216291088053  1.0000
  C   C47       1.0  0.8097286757586558  0.9019247729574218  0.07938040131981694  1.0000
  C   C48       1.0  0.9067233264550297  0.09815054675693353  0.4210928219599737  1.0000
  C   C49       1.0  0.2753506202161589  0.8003691858313219  0.3120196451498671  1.0000
  C   C50       1.0  0.47529179437112384  0.19944512247049317  0.1876134777485063  1.0000
  C   C51       1.0  0.7246572137528132  0.19963273346533586  0.6879776891412065  1.0000
  C   C52       1.0  0.5247045220196045  0.8005542412603648  0.812394762368868  1.0000
  C   C53       1.0  0.42847112337277343  0.5733788548210086  0.1834950160494557  1.0000
  C   C54       1.0  0.8555562719965906  0.4266236487662667  0.3164448419766331  1.0000
  C   C55       1.0  0.5715384216228543  0.42661770430505197  0.8165007540956425  1.0000
  C   C56       1.0  0.1444561756357743  0.5733875087086063  0.6835529305721977  1.0000
  C   C57       1.0  0.5823970999473148  0.612728705023791  0.23252690708585533  1.0000
  C   C58       1.0  0.9700826410588519  0.387172517277783  0.2674178294793848  1.0000
  C   C59       1.0  0.41761706658282083  0.38726539864104836  0.7674752102166522  1.0000
  C   C60       1.0  0.029914300070046727  0.6128339490313195  0.7325830163875936  1.0000
  C   C61       1.0  0.27325061629951364  0.752712902191469  0.05355232390153472  1.0000
  C   C62       1.0  0.5207110581862224  0.24754035824884824  0.4461273235107512  1.0000
  C   C63       1.0  0.7267351066321623  0.24726523956638868  0.9464400382797468  1.0000
  C   C64       1.0  0.47929276085204714  0.752462307818668  0.5538711025814892  1.0000
  S   S1        1.0  0.05568717211761517  0.5398905551748215  0.9012644160729623  1.0000
  S   S2        1.0  0.5157004607890201  0.4599121449814661  0.5987835925264805  1.0000
  S   S3        1.0  0.9443056844592305  0.46009308204168786  0.09872343264532903  1.0000
  S   S4        1.0  0.4842999446355166  0.5400983249202229  0.4012105568439851  1.0000
  S   S5        1.0  0.6809240034276416  0.6303831286477151  0.01016953080112873  1.0000
  S   S6        1.0  0.050879189287343335  0.36960279297650106  0.48976758238826795  1.0000
  S   S7        1.0  0.31908932418408403  0.3696034335221654  0.9898252155036076  1.0000
  S   S8        1.0  0.949117945753301  0.6304099159810336  0.5102298419590882  1.0000
  S   S9        1.0  0.1643608225425197  0.7840999179344552  0.23206109191699653  1.0000
  S   S10       1.0  0.3807891124200751  0.2156877701214697  0.2676412544187912  1.0000
  S   S11       1.0  0.8356545720585656  0.21589664035377618  0.7679346779436997  1.0000
  S   S12       1.0  0.6191960533789571  0.7843185499397551  0.7323661756312135  1.0000
  S   S13       1.0  0.0852442541046229  0.9171542305071513  0.8509493965972155  1.0000
  S   S14       1.0  0.1699801445528308  0.08267135379864504  0.6487731228573068  1.0000
  S   S15       1.0  0.9147579346260102  0.0828393107505647  0.1490435267764312  1.0000
  S   S16       1.0  0.8300096758967116  0.9173442840919249  0.35123120042742073  1.0000
  N   N1        1.0  0.13153304293854975  0.7460563358432852  0.922792979028607  1.0000
  N   N2        1.0  0.38638075616176343  0.2537720666670254  0.5769691317191459  1.0000
  N   N3        1.0  0.8684627768438844  0.25393030849119924  0.07719822310630062  1.0000
  N   N4        1.0  0.6136273543799505  0.7462421217305675  0.4230309817380872  1.0000
  N   N5        1.0  0.8034202283248463  0.6678060499838666  0.14217440703170336  1.0000
  N   N6        1.0  0.13635473452446686  0.3322452982566162  0.35776843596811864  1.0000
  N   N7        1.0  0.19658949503243406  0.3321850126362591  0.857825876220879  1.0000
  N   N8        1.0  0.8636315298421027  0.667757358945643  0.6422304974091944  1.0000
  N   N9        1.0  0.21642134403784746  0.6621447974045083  0.012770281940213124  1.0000
  N   N10       1.0  0.5544094032912313  0.33800326566743893  0.48704049030003915  1.0000
  N   N11       1.0  0.7835707270050846  0.33783726787588364  0.9872189286253885  1.0000
  N   N12       1.0  0.44558460390859267  0.662000250417357  0.5129544699910086  1.0000
  N   N13       1.0  0.4589338438300956  0.5782940711552771  0.11633211029329973  1.0000
  N   N14       1.0  0.8811651118302636  0.4217680922467154  0.38361093806713603  1.0000
  N   N15       1.0  0.54108218338029  0.4216978960717699  0.8836621742166528  1.0000
  N   N16       1.0  0.1188308361265484  0.5782422417385505  0.6163892886989899  1.0000
