data_image0
_chemical_formula_structural       HgH20C28Br2N8O2
_chemical_formula_sum              "Hg1 H20 C28 Br2 N8 O2"
_cell_length_a       3.9532435157181043
_cell_length_b       11.854971485575186
_cell_length_c       14.200721785104713
_cell_angle_alpha    97.16044367949469
_cell_angle_beta     92.729281096203
_cell_angle_gamma    90.13985160554445

_space_group_name_H-M_alt    "P 1"
_space_group_IT_number       1

loop_
  _space_group_symop_operation_xyz
  'x, y, z'

loop_
  _atom_site_type_symbol
  _atom_site_label
  _atom_site_symmetry_multiplicity
  _atom_site_fract_x
  _atom_site_fract_y
  _atom_site_fract_z
  _atom_site_occupancy
  Hg  Hg1       1.0  0.4999983556524797  0.5000005250301031  0.4999998991271966  1.0000
  H   H1        1.0  0.939909533166123  0.6253630279302342  0.1527046002759107  1.0000
  H   H2        1.0  0.06008223144738171  0.3746406565814057  0.8472933559396196  1.0000
  H   H3        1.0  0.7844282932851814  0.647316323651893  0.3247935125189159  1.0000
  H   H4        1.0  0.21556600026107023  0.35268646030564815  0.675205767527423  1.0000
  H   H5        1.0  0.28079473457681564  0.3368108210068428  0.2808614336106885  1.0000
  H   H6        1.0  0.7192069278828656  0.6631893602936075  0.719137601445162  1.0000
  H   H7        1.0  0.17878413633038556  0.07971142630449178  0.001187781678183298  1.0000
  H   H8        1.0  0.8212026022684996  0.9202922771227907  0.9988108348602722  1.0000
  H   H9        1.0  0.17896384916728897  0.9241340812386981  0.8641619098204459  1.0000
  H   H10       1.0  0.8210455498104425  0.07586509808766809  0.1358413024790508  1.0000
  H   H11       1.0  0.3660154969536223  0.8575021648095673  0.700213487507476  1.0000
  H   H12       1.0  0.6340036931594993  0.14249444365406558  0.29978739277219546  1.0000
  H   H13       1.0  0.6460907422883013  0.8994789212258568  0.5556769965175974  1.0000
  H   H14       1.0  0.35390567180868254  0.10051961230376352  0.4443210876156556  1.0000
  H   H15       1.0  0.8796340332544476  0.0940969474763946  0.547483605717197  1.0000
  H   H16       1.0  0.12035247630147691  0.9059024407268764  0.4525173074318262  1.0000
  H   H17       1.0  0.8475784957609847  0.24368230023589632  0.6844467656227167  1.0000
  H   H18       1.0  0.15241047009941874  0.756316220415009  0.31555406586281265  1.0000
  H   H19       1.0  0.6265899721931802  0.3528699153885029  0.9902147895197047  1.0000
  H   H20       1.0  0.37340145443494793  0.647129503401736  0.009783355064932726  1.0000
  C   C1        1.0  0.7857707179778971  0.5609820170402031  0.1797367227023727  1.0000
  C   C2        1.0  0.21422595924455126  0.4390199323667119  0.820261070186163  1.0000
  C   C3        1.0  0.7050453718352756  0.5731823949131254  0.2753942979755024  1.0000
  C   C4        1.0  0.2949539114114614  0.4268203866296363  0.724603619000753  1.0000
  C   C5        1.0  0.42386313506539613  0.40217870275476736  0.2518017275761437  1.0000
  C   C6        1.0  0.576136148181334  0.5978240787879939  0.7481961894001117  1.0000
  C   C7        1.0  0.4974240314483183  0.39174035596055745  0.15576869807836863  1.0000
  C   C8        1.0  0.5025726072283662  0.6082607271013815  0.844229694681708  1.0000
  C   C9        1.0  0.3708628960283918  0.28888417887154105  0.09121404194189608  1.0000
  C   C10       1.0  0.6291515764362289  0.7111193792675367  0.9087826996883379  1.0000
  C   C11       1.0  0.4573767232065223  0.1957207396046243  0.9263848436552067  1.0000
  C   C12       1.0  0.5426225918910887  0.8042802597455816  0.07361638130560522  1.0000
  C   C13       1.0  0.2950097195585855  0.09089541273297642  0.9353403670963871  1.0000
  C   C14       1.0  0.7049895955390327  0.9091055866172297  0.0646608578644177  1.0000
  C   C15       1.0  0.29857063256739746  0.0062122523773951045  0.8599652058490292  1.0000
  C   C16       1.0  0.7014362374775801  0.9937878275030628  0.140036682619666  1.0000
  C   C17       1.0  0.45589362862502725  0.0255207383007274  0.7759036288222633  1.0000
  C   C18       1.0  0.5441105605357777  0.9744776595997777  0.22409803268309506  1.0000
  C   C19       1.0  0.4757011153004029  0.9412460463374683  0.6965470880894459  1.0000
  C   C20       1.0  0.524315654822381  0.05875141317765299  0.30345457660087055  1.0000
  C   C21       1.0  0.6287516294825509  0.9652621434646703  0.6160051353808028  1.0000
  C   C22       1.0  0.3712600783114795  0.03473535146696351  0.3839964868852875  1.0000
  C   C23       1.0  0.7614372003778912  0.07525052133465242  0.6115636368282223  1.0000
  C   C24       1.0  0.23857201256589636  0.9247469748043713  0.3884386669729096  1.0000
  C   C25       1.0  0.7460877679514725  0.15902911471560802  0.6878539933715189  1.0000
  C   C26       1.0  0.25391381518505096  0.8409684510490508  0.31214754404611267  1.0000
  C   C27       1.0  0.5993973097858286  0.1360722797528027  0.7725646185405566  1.0000
  C   C28       1.0  0.4006018533603495  0.863926137063345  0.2274377032877339  1.0000
  Br  Br1       1.0  0.9305397716370083  0.6693253448450704  0.5244911028594856  1.0000
  Br  Br2       1.0  0.069459434518194  0.33067570400774565  0.4755080138598586  1.0000
  N   N1        1.0  0.6826894614572298  0.4700977774331604  0.11987192951521308  1.0000
  N   N2        1.0  0.317314732166821  0.5299023861590371  0.8801271267527468  1.0000
  N   N3        1.0  0.5289463154238876  0.49348933872118295  0.3111501938323187  1.0000
  N   N4        1.0  0.4710554604414554  0.5065125587683497  0.688848344227594  1.0000
  N   N5        1.0  0.4837842992360423  0.2841886518003207  0.0015745243147407039  1.0000
  N   N6        1.0  0.5162021376916073  0.7158107694046906  0.9984249833399731  1.0000
  N   N7        1.0  0.6016388612182197  0.21898638033079723  0.8484666579592074  1.0000
  N   N8        1.0  0.3983628353239651  0.7810129016229368  0.15153438246249357  1.0000
  O   O1        1.0  0.18434406951924842  0.218343093304341  0.1208718558665822  1.0000
  O   O2        1.0  0.8156445605874084  0.7816520444710164  0.8791278613693622  1.0000
