data_image0
_chemical_formula_structural       Ni3H18C24N30
_chemical_formula_sum              "Ni3 H18 C24 N30"
_cell_length_a       7.813990262513056
_cell_length_b       10.335099114300126
_cell_length_c       10.86008628387228
_cell_angle_alpha    107.30695474390868
_cell_angle_beta     89.74690950011008
_cell_angle_gamma    101.39166329091552

_space_group_name_H-M_alt    "P 1"
_space_group_IT_number       1

loop_
  _space_group_symop_operation_xyz
  'x, y, z'

loop_
  _atom_site_type_symbol
  _atom_site_label
  _atom_site_symmetry_multiplicity
  _atom_site_fract_x
  _atom_site_fract_y
  _atom_site_fract_z
  _atom_site_occupancy
  Ni  Ni1       1.0  0.49999931224615335  1.635013156000218e-06  0.49999925822176994  1.0000
  Ni  Ni2       1.0  0.8771648854534394  0.9966833236065613  0.8727073831912475  1.0000
  Ni  Ni3       1.0  0.12283438612572443  0.0033169261642101004  0.12729472505132824  1.0000
  H   H1        1.0  0.877812432926959  0.7067205761544244  0.6939818785117706  1.0000
  H   H2        1.0  0.12219094962151901  0.2932807362936103  0.30601868370928287  1.0000
  H   H3        1.0  0.5357945546556593  0.4403649905649302  0.8739762297649563  1.0000
  H   H4        1.0  0.46420499262149667  0.5596362657103314  0.12602155345680896  1.0000
  H   H5        1.0  0.49661485491649426  0.2901057597244048  0.667454600528117  1.0000
  H   H6        1.0  0.5033864809010994  0.7098975804181648  0.3325437608794956  1.0000
  H   H7        1.0  0.8254162241680805  0.2825128604331796  0.9999716071380005  1.0000
  H   H8        1.0  0.17459123349578928  0.7174844197964986  3.704644076655438e-05  1.0000
  H   H9        1.0  0.586781887257601  0.8670038367494753  0.0003758886403844143  1.0000
  H   H10       1.0  0.4132163770091922  0.1329974065941997  0.9996218906809913  1.0000
  H   H11       1.0  0.8492094665347595  0.1121560045432517  0.42014058222557077  1.0000
  H   H12       1.0  0.15079084446291793  0.8878432111058883  0.5798593979092529  1.0000
  H   H13       1.0  0.18522934338804478  0.12396425549957259  0.747895592766916  1.0000
  H   H14       1.0  0.8147732716921399  0.876033962130222  0.2521059528913766  1.0000
  H   H15       1.0  0.015135713238045431  0.5222078866003201  0.6404642085169101  1.0000
  H   H16       1.0  0.9848648596978505  0.47779235293133143  0.3595342138952304  1.0000
  H   H17       1.0  0.22778406175822857  0.5490276205312484  0.8619939636717574  1.0000
  H   H18       1.0  0.772200895233212  0.4509662465677735  0.1379999256816262  1.0000
  C   C1        1.0  0.7859985843700558  0.6860819447185308  0.7652958783052383  1.0000
  C   C2        1.0  0.214004802765011  0.3139193619368257  0.23470376148310376  1.0000
  C   C3        1.0  0.7491206366694173  0.4283449075871956  0.6692576390384487  1.0000
  C   C4        1.0  0.25088043262336873  0.571657414465534  0.3307432025245518  1.0000
  C   C5        1.0  0.026571830697413625  0.43911715238414933  0.9557452451425019  1.0000
  C   C6        1.0  0.9734305216057352  0.5608851826001668  0.0442556003208878  1.0000
  C   C7        1.0  0.5930909167304821  0.5406790977630821  0.8615508898063026  1.0000
  C   C8        1.0  0.40690735212290013  0.45932213978791486  0.13844596708236878  1.0000
  C   C9        1.0  0.7089717224412981  0.5513590494053561  0.7643294106050716  1.0000
  C   C10       1.0  0.2910293560246658  0.44864326106202423  0.23566958609251287  1.0000
  C   C11       1.0  0.6276863397680332  0.30221051404277693  0.6312564170310111  1.0000
  C   C12       1.0  0.372316785428815  0.6977897687300683  0.36874478048002857  1.0000
  C   C13       1.0  0.9421434024611841  0.3040812805033326  0.9484780495473614  1.0000
  C   C14       1.0  0.05786021909255376  0.6959210847905909  0.05152556711453835  1.0000
  C   C15       1.0  0.6248135223256457  0.7755759642415399  0.9362809856162141  1.0000
  C   C16       1.0  0.37518858638564734  0.22442532368955884  0.0637177278390411  1.0000
  C   C17       1.0  0.8225080672008219  0.20330327132653284  0.4926216432814384  1.0000
  C   C18       1.0  0.17749070802145187  0.79669489592316  0.5073780458102632  1.0000
  C   C19       1.0  0.1367164350644288  0.21440313589915408  0.8038891371324507  1.0000
  C   C20       1.0  0.8632877249643374  0.7855961185447455  0.19611085470354075  1.0000
  C   C21       1.0  0.9109200060060376  0.4293658205608182  0.6123316397891683  1.0000
  C   C22       1.0  0.08907954127111854  0.5706354357144364  0.38766614343259675  1.0000
  C   C23       1.0  0.1615509359844935  0.4490964221037146  0.8709246737696147  1.0000
  C   C24       1.0  0.8384468465240005  0.5508975801038288  0.12907017702036677  1.0000
  N   N1        1.0  0.4527020013705255  0.0330595035872605  0.6938460447830791  1.0000
  N   N2        1.0  0.5472947225342751  0.9669406971496458  0.3061523659278933  1.0000
  N   N3        1.0  0.908477527624001  0.9379432820238593  0.6796075942373533  1.0000
  N   N4        1.0  0.09152330266351784  0.06205798718298179  0.3203901928848011  1.0000
  N   N5        1.0  0.8786167320488759  0.0471536668075601  0.08258685712343809  1.0000
  N   N6        1.0  0.12138432890953521  0.952843525593494  0.9174180872225576  1.0000
  N   N7        1.0  0.802063697270512  0.921352878611913  0.595442545737363  1.0000
  N   N8        1.0  0.19793687107879523  0.07864736671240993  0.4045567991074819  1.0000
  N   N9        1.0  0.9986303454626155  0.19297932466663073  0.8754637292051939  1.0000
  N   N10       1.0  0.0013715159090494631  0.8070157807669104  0.12453603259221062  1.0000
  N   N11       1.0  0.7480685140645706  0.7972416066169855  0.8536091309198494  1.0000
  N   N12       1.0  0.25193333729509965  0.20275865163893064  0.14639021782538458  1.0000
  N   N13       1.0  0.66684218184934  0.1897113416025533  0.5458658910019523  1.0000
  N   N14       1.0  0.33315838191337127  0.8102889095144478  0.4541343762755971  1.0000
  N   N15       1.0  0.8234862136035874  0.1450427196774484  0.14802383023768328  1.0000
  N   N16       1.0  0.17651406987454282  0.8549565307277407  0.8519816844933743  1.0000
  N   N17       1.0  0.9462741040466299  0.3188222811078347  0.5226609193429609  1.0000
  N   N18       1.0  0.05372621612422537  0.681176922955956  0.47733721592645395  1.0000
  N   N19       1.0  0.21618479400872564  0.3381667093740007  0.7961390172272188  1.0000
  N   N20       1.0  0.7838134940298361  0.6618293637692715  0.20385640784820672  1.0000
  N   N21       1.0  0.7033340126354519  0.9011011414249737  0.5060901773248644  1.0000
  N   N22       1.0  0.29666141908580107  0.0988990579656885  0.4939100743511274  1.0000
  N   N23       1.0  0.5473585969878344  0.6515229793169368  0.9444670251258387  1.0000
  N   N24       1.0  0.45263915257569937  0.34847620467635926  0.055532024775501995  1.0000
  N   N25       1.0  0.7690187674408053  0.23999544318417074  0.21065696797642627  1.0000
  N   N26       1.0  0.23098023761354375  0.7600037884967535  0.7893476204215374  1.0000
  N   N27       1.0  0.5518106920102144  0.04172403129989279  0.77956056161765  1.0000
  N   N28       1.0  0.4481885795689495  0.9582762184708714  0.22044154662491877  1.0000
  N   N29       1.0  0.6426479776482027  0.053998926260611306  0.8716516457600176  1.0000
  N   N30       1.0  0.3573505256238577  0.9460033699289456  0.1283491880022041  1.0000
