data_image0
_chemical_formula_structural       Cu4H44C36I4N4
_chemical_formula_sum              "Cu4 H44 C36 I4 N4"
_cell_length_a       7.638849703595062
_cell_length_b       8.13127254151072
_cell_length_c       16.6689117830409
_cell_angle_alpha    90.00015560743479
_cell_angle_beta     90.00013391553533
_cell_angle_gamma    110.69412650546246

_space_group_name_H-M_alt    "P 1"
_space_group_IT_number       1

loop_
  _space_group_symop_operation_xyz
  'x, y, z'

loop_
  _atom_site_type_symbol
  _atom_site_label
  _atom_site_symmetry_multiplicity
  _atom_site_fract_x
  _atom_site_fract_y
  _atom_site_fract_z
  _atom_site_occupancy
  Cu  Cu1       1.0  0.8657149375640288  0.027930449849066008  0.025138300962730408  1.0000
  Cu  Cu2       1.0  0.6342885647217785  0.4720723877839745  0.5251381160867368  1.0000
  Cu  Cu3       1.0  0.13429414152449953  0.9720650702403191  0.9748621952323834  1.0000
  Cu  Cu4       1.0  0.3657094176334397  0.52793889823527  0.47486238011279625  1.0000
  H   H1        1.0  0.7077311426427998  0.30080433227850284  0.9769659781541904  1.0000
  H   H2        1.0  0.7922738995091974  0.19919304600890086  0.47696691005830877  1.0000
  H   H3        1.0  0.29227988950773937  0.6991859314911935  0.023032118361747705  1.0000
  H   H4        1.0  0.2077221077794179  0.8008129814510596  0.5230335861366768  1.0000
  H   H5        1.0  0.4724876832433225  0.22961410984073893  0.012649703793528002  1.0000
  H   H6        1.0  0.02751729236339174  0.2703863838821974  0.5126497363283208  1.0000
  H   H7        1.0  0.5275230270610508  0.7703787824587494  0.9873483927239806  1.0000
  H   H8        1.0  0.9724787149227724  0.7296196435752833  0.487350159947475  1.0000
  H   H9        1.0  0.48073811388155724  0.1396993408638636  0.8723884359527363  1.0000
  H   H10       1.0  0.01926127518072464  0.36029887018227674  0.3723892854181302  1.0000
  H   H11       1.0  0.5192678526715825  0.8602948630760708  0.12760966056307413  1.0000
  H   H12       1.0  0.9807373508668321  0.6397071587773767  0.6276112107782694  1.0000
  H   H13       1.0  0.6382647216487599  0.028981467812812398  0.8969557385998004  1.0000
  H   H14       1.0  0.8617344301126549  0.47101524476919115  0.396956505506772  1.0000
  H   H15       1.0  0.36174107297900115  0.9710087929525317  0.10304115807493022  1.0000
  H   H16       1.0  0.13826387408139612  0.5289934127128009  0.6030421909336354  1.0000
  H   H17       1.0  0.5710526997951035  0.25030388518651847  0.1462169784135412  1.0000
  H   H18       1.0  0.9289517904876021  0.24969995532425324  0.6462198179437522  1.0000
  H   H19       1.0  0.4289503261455821  0.7496929457760615  0.8537793183448488  1.0000
  H   H20       1.0  0.07104732932415929  0.750307388272738  0.3537800783346015  1.0000
  H   H21       1.0  0.8035973935474698  0.33480285052746694  0.10823507668011703  1.0000
  H   H22       1.0  0.6964077523356169  0.16519278978762492  0.6082351528988995  1.0000
  H   H23       1.0  0.19640578233112657  0.6651874087481247  0.8917642196699448  1.0000
  H   H24       1.0  0.3035895643275739  0.8348132384172189  0.39176414345842403  1.0000
  H   H25       1.0  0.02125518417596342  0.1556812889591868  0.14742485537317415  1.0000
  H   H26       1.0  0.4787415535948157  0.34431637264994924  0.6474236745984854  1.0000
  H   H27       1.0  0.978740951045964  0.8443076519348055  0.8525762407297606  1.0000
  H   H28       1.0  0.5212549474579974  0.655690969447349  0.35257622167845437  1.0000
  H   H29       1.0  0.12853965535262546  0.031794088851100404  0.265506325088417  1.0000
  H   H30       1.0  0.3714552552715916  0.4682006061339621  0.7655063919158636  1.0000
  H   H31       1.0  0.8714504267459376  0.9681961629409488  0.7344965707696646  1.0000
  H   H32       1.0  0.6285487802216848  0.531809369002147  0.2344959040436407  1.0000
  H   H33       1.0  0.9267888364474786  0.9489211442121784  0.38826102832465653  1.0000
  H   H34       1.0  0.5732071813154962  0.5510738295654961  0.8882602202075631  1.0000
  H   H35       1.0  0.07320240511711522  0.0510756800415493  0.6117448671343412  1.0000
  H   H36       1.0  0.4267988072471314  0.44893088925837793  0.11174147583032831  1.0000
  H   H37       1.0  0.6216558586782671  0.9900093387486919  0.3907667527462807  1.0000
  H   H38       1.0  0.8783434639831711  0.509990915098534  0.8907674205152747  1.0000
  H   H39       1.0  0.37833997669720537  0.009992745549105599  0.6092355432035603  1.0000
  H   H40       1.0  0.12165662136708734  0.4900085429090665  0.10923247575838962  1.0000
  H   H41       1.0  0.5148212292444397  0.11645751585627552  0.2729689850126889  1.0000
  H   H42       1.0  0.9851780702514645  0.3835447422175591  0.7729684630335358  1.0000
  H   H43       1.0  0.4851775467263409  0.8835419414014752  0.7270309112602649  1.0000
  H   H44       1.0  0.014820383863366402  0.6164573435600503  0.2270290335642358  1.0000
  C   C1        1.0  0.5862758420580293  0.1846455709028305  0.9927251126538367  1.0000
  C   C2        1.0  0.9137254005465324  0.3153519356628038  0.49272572986825497  1.0000
  C   C3        1.0  0.4137325713311173  0.8153446913646859  0.007272383941504801  1.0000
  C   C4        1.0  0.08626798798068347  0.6846540902949839  0.507274166406127  1.0000
  C   C5        1.0  0.5220131353694627  0.06746113819782813  0.9199332058878797  1.0000
  C   C6        1.0  0.9779862038826295  0.4325357646987698  0.4199334478391847  1.0000
  C   C7        1.0  0.47799315302984285  0.932530437212307  0.08006489062636042  1.0000
  C   C8        1.0  0.022011112778109583  0.56747026350358  0.580065248598949  1.0000
  C   C9        1.0  0.6931091487361201  0.21465869078328134  0.12966645039090716  1.0000
  C   C10       1.0  0.8068940470327279  0.28533844018394927  0.6296668052392465  1.0000
  C   C11       1.0  0.3068966459014249  0.7853315699920032  0.8703328459605758  1.0000
  C   C12       1.0  0.1930988477253879  0.7146662711315345  0.3703324911148088  1.0000
  C   C13       1.0  0.7584969647833474  0.14031302484819005  0.20144076809933156  1.0000
  C   C14       1.0  0.7415002697538995  0.3596846968566396  0.701440550601923  1.0000
  C   C15       1.0  0.24149622982368174  0.859678543065975  0.7985579283270071  1.0000
  C   C16       1.0  0.2585012968938756  0.6403187050679406  0.2985587457559619  1.0000
  C   C17       1.0  0.931518779815562  0.1162765667513739  0.20040058600454105  1.0000
  C   C18       1.0  0.568481064989811  0.3837211478344429  0.7003996130394654  1.0000
  C   C19       1.0  0.06848046792217856  0.8837136902722024  0.7995981104241994  1.0000
  C   C20       1.0  0.43151592982721354  0.6162875089001929  0.29959968331942133  1.0000
  C   C21       1.0  0.9922943562982808  0.046970111012626596  0.2668200258895014  1.0000
  C   C22       1.0  0.507701114806082  0.45302552217768277  0.7668184789037584  1.0000
  C   C23       1.0  0.007700147712690013  0.953021457676229  0.7331846697294112  1.0000
  C   C24       1.0  0.4923011175337281  0.5469831375613056  0.23318201729633617  1.0000
  C   C25       1.0  0.8800410948074814  0.0006880587098834001  0.3353169074696183  1.0000
  C   C26       1.0  0.6199588633754162  0.49930814408861574  0.8353191428008346  1.0000
  C   C27       1.0  0.11995113426594645  0.9993113947986388  0.6646829887997827  1.0000
  C   C28       1.0  0.38004433450289116  0.500692630060982  0.16468135339457046  1.0000
  C   C29       1.0  0.7082349185044663  0.025057748008336503  0.3370104024373789  1.0000
  C   C30       1.0  0.7917626066470334  0.4749424104751157  0.8370097919665371  1.0000
  C   C31       1.0  0.29176385747366146  0.9749417092568679  0.6629912935931301  1.0000
  C   C32       1.0  0.20823765062370825  0.5250609907021087  0.1629901043098272  1.0000
  C   C33       1.0  0.6481373632682761  0.0951900084204595  0.2706293582938599  1.0000
  C   C34       1.0  0.8518625608284651  0.40480697321473963  0.7706287200929582  1.0000
  C   C35       1.0  0.35186074701536557  0.9048041910278499  0.7293705379752495  1.0000
  C   C36       1.0  0.1481337682940733  0.5951964257030012  0.22936877650452916  1.0000
  I   I1        1.0  0.8782088000414278  0.7199388024472314  0.04796269105310101  1.0000
  I   I2        1.0  0.6217972348981107  0.7800665036383239  0.5479664380004081  1.0000
  I   I3        1.0  0.12181043223670687  0.28005935217071004  0.9520378051492459  1.0000
  I   I4        1.0  0.37818846929233985  0.2199434610098905  0.45203825762591526  1.0000
  N   N1        1.0  0.640563330201296  0.09218806385145231  0.05970016584052471  1.0000
  N   N2        1.0  0.8594407759536155  0.4078124315224514  0.5597007396566341  1.0000
  N   N3        1.0  0.35944607072605106  0.9078048277006802  0.9402985305954559  1.0000
  N   N4        1.0  0.14055572509920475  0.5921949105748538  0.4402991566202986  1.0000
