data_image0
_chemical_formula_structural       Cd4B4H192C180Br8N12
_chemical_formula_sum              "Cd4 B4 H192 C180 Br8 N12"
_cell_length_a       18.21850059698764
_cell_length_b       18.218454837517225
_cell_length_c       19.00997309251346
_cell_angle_alpha    61.3728886219646
_cell_angle_beta     61.37255251343323
_cell_angle_gamma    59.98969977202212

_space_group_name_H-M_alt    "P 1"
_space_group_IT_number       1

loop_
  _space_group_symop_operation_xyz
  'x, y, z'

loop_
  _atom_site_type_symbol
  _atom_site_label
  _atom_site_symmetry_multiplicity
  _atom_site_fract_x
  _atom_site_fract_y
  _atom_site_fract_z
  _atom_site_occupancy
  Cd  Cd1       1.0  0.10168405254003689  0.8983209403871086  0.5000019083406286  1.0000
  Cd  Cd2       1.0  0.5002510132805611  0.1016043717659088  0.500145559486185  1.0000
  Cd  Cd3       1.0  0.8983862060203761  0.49975038215960416  0.4998623381365591  1.0000
  Cd  Cd4       1.0  2.080900153349979e-05  0.9999779074729529  6.30641054179027e-07  1.0000
  B   B1        1.0  0.40012920517055045  0.5998702719452566  1.170133217563944e-07  1.0000
  B   B2        1.0  8.94354368413e-05  0.40012895563574347  2.9256051135503342e-05  1.0000
  B   B3        1.0  0.5998652464902179  0.9999140195844517  0.9999732101240684  1.0000
  B   B4        1.0  0.49992905519671643  0.5000700020476289  0.5000013090155234  1.0000
  H   H1        1.0  0.056194371932520006  0.9359249160008144  0.6725098647470348  1.0000
  H   H2        1.0  0.3353238780494366  0.0561134176767481  0.6723848358515028  1.0000
  H   H3        1.0  0.9355107795921  0.33565198349771197  0.6727307521884567  1.0000
  H   H4        1.0  0.9438952161222858  0.664663345654695  0.32760481404865516  1.0000
  H   H5        1.0  0.6643483643538701  0.06448721264752777  0.3272652023582906  1.0000
  H   H6        1.0  0.0640881125055017  0.943817514656018  0.32748579360310975  1.0000
  H   H7        1.0  0.12227753071829281  0.8715250773003829  0.7870357974612504  1.0000
  H   H8        1.0  0.2190629653552989  0.12218743518645422  0.7869392168547407  1.0000
  H   H9        1.0  0.8712039822065734  0.21946140749633256  0.7872644641900307  1.0000
  H   H10       1.0  0.8778171856780689  0.7809346368276588  0.2130580692152508  1.0000
  H   H11       1.0  0.7805417772248122  0.12879562698919478  0.21273718457777574  1.0000
  H   H12       1.0  0.12847594626990852  0.877722598408958  0.2129666575092485  1.0000
  H   H13       1.0  0.35274438233053473  0.7009557650423873  0.6450227897822528  1.0000
  H   H14       1.0  0.3014729958226567  0.35246714439328014  0.645187362571029  1.0000
  H   H15       1.0  0.7008580304480391  0.3012004231717498  0.6451386136076209  1.0000
  H   H16       1.0  0.6475326783402053  0.698534024511005  0.35480931101446345  1.0000
  H   H17       1.0  0.698794013829051  0.2991401610480723  0.35486529872662936  1.0000
  H   H18       1.0  0.2990415016601062  0.6472551862420842  0.3549851552414295  1.0000
  H   H19       1.0  0.2818963330965261  0.7799691093970933  0.5317614512008504  1.0000
  H   H20       1.0  0.4064770206988372  0.281666104404401  0.5318551220427921  1.0000
  H   H21       1.0  0.7799955908950551  0.4061029506841081  0.5317866437378596  1.0000
  H   H22       1.0  0.7183300183320824  0.5935265160749096  0.46813904403565226  1.0000
  H   H23       1.0  0.5938873987541271  0.22000735946411934  0.46821546164029115  1.0000
  H   H24       1.0  0.2200355186049165  0.718116665389054  0.46823848588049094  1.0000
  H   H25       1.0  0.22480642022518543  0.6328713847862201  0.7809444126221409  1.0000
  H   H26       1.0  0.36142307193665607  0.2243434434227324  0.7810983714130018  1.0000
  H   H27       1.0  0.632737118858799  0.36136796214797323  0.7811445989343822  1.0000
  H   H28       1.0  0.7756585964719634  0.6385787284168102  0.21889963025712683  1.0000
  H   H29       1.0  0.638631130002679  0.3672604250505174  0.21885734349515207  1.0000
  H   H30       1.0  0.36712317178606213  0.7751889539572256  0.2190642445133548  1.0000
  H   H31       1.0  0.21797333741260871  0.5591998926167249  0.885312564898939  1.0000
  H   H32       1.0  0.33749502775171447  0.21761114278855578  0.8854417127555508  1.0000
  H   H33       1.0  0.5589971008560825  0.33761218344119465  0.8854596420683761  1.0000
  H   H34       1.0  0.7823948042367876  0.6624977315469207  0.11455816496397371  1.0000
  H   H35       1.0  0.6623926504034187  0.44100028528446683  0.1145414748356545  1.0000
  H   H36       1.0  0.44079810178174483  0.7820246822180575  0.11469836495187026  1.0000
  H   H37       1.0  0.3177975273040092  0.5357183259691352  0.8020042877019619  1.0000
  H   H38       1.0  0.34467161175948746  0.31735188735576253  0.8020704269927492  1.0000
  H   H39       1.0  0.5355779239253592  0.34451291465548906  0.8021418397203066  1.0000
  H   H40       1.0  0.6826507074972386  0.6553309370610658  0.19792941627686375  1.0000
  H   H41       1.0  0.6554901099409919  0.46442407261680047  0.1978559832168685  1.0000
  H   H42       1.0  0.46427775991961073  0.6821968142306785  0.19800251139762554  1.0000
  H   H43       1.0  0.3830083829412914  0.4722157457749816  0.9968762755858266  1.0000
  H   H44       1.0  0.1479755047554718  0.38284537686158154  0.9968924842715694  1.0000
  H   H45       1.0  0.4720633002998724  0.14788181127475028  0.9969610163508303  1.0000
  H   H46       1.0  0.6171516442981543  0.8520200481683697  0.0031102276410382586  1.0000
  H   H47       1.0  0.8521189345200141  0.5279341708697415  0.003038463665440334  1.0000
  H   H48       1.0  0.5277880203776277  0.616995756989958  0.0031216058586595137  1.0000
  H   H49       1.0  0.3826126060559575  0.4616729956886443  0.9093532573710307  1.0000
  H   H50       1.0  0.24644193397850242  0.3824879487619695  0.9093651525222483  1.0000
  H   H51       1.0  0.4615435685507521  0.24635012759721758  0.9094120981096194  1.0000
  H   H52       1.0  0.6175112158029847  0.7535562562066286  0.0906413830543614  1.0000
  H   H53       1.0  0.7536511153856366  0.5384535226615553  0.09058818595083555  1.0000
  H   H54       1.0  0.5383279753021952  0.6173900322868916  0.09064866397029903  1.0000
  H   H55       1.0  0.2810147338293874  0.4923290995922257  0.9885467675170431  1.0000
  H   H56       1.0  0.23820664939672304  0.2808636234665798  0.9885191762617112  1.0000
  H   H57       1.0  0.4921486965904336  0.23809909759150102  0.9886749134389418  1.0000
  H   H58       1.0  0.7191338917433897  0.7617861070196453  0.011479796224982413  1.0000
  H   H59       1.0  0.761902203186672  0.5078464378150045  0.011325595506548273  1.0000
  H   H60       1.0  0.5076688977068997  0.7189881069397898  0.011456824690213975  1.0000
  H   H61       1.0  0.3964122773085564  0.7575587161623641  0.9489357897596947  1.0000
  H   H62       1.0  0.8970333005386023  0.3964323558805559  0.9488911589096672  1.0000
  H   H63       1.0  0.7575710784886738  0.8970155344642871  0.9488591541013706  1.0000
  H   H64       1.0  0.6035598482522888  0.10296795201201543  0.05111206719410426  1.0000
  H   H65       1.0  0.10298643879936262  0.24242484696135597  0.05114398659367943  1.0000
  H   H66       1.0  0.24243800942898727  0.6035860234480379  0.051068288198337225  1.0000
  H   H67       1.0  0.32628566216403243  0.8570061992340069  0.8949782144173426  1.0000
  H   H68       1.0  0.9217142211655728  0.32634535832834616  0.8948533974110404  1.0000
  H   H69       1.0  0.8570341331434292  0.9216622469936481  0.8948813158876232  1.0000
  H   H70       1.0  0.6736490019793139  0.07829239194727208  0.1051460999219741  1.0000
  H   H71       1.0  0.0783395793341413  0.14296412372060976  0.10511954522726091  1.0000
  H   H72       1.0  0.14299305245845773  0.6737124437293216  0.10502478652500004  1.0000
  H   H73       1.0  0.43672423205823924  0.8051467181802532  0.8379191453664702  1.0000
  H   H74       1.0  0.9202434990309245  0.43676720267763586  0.8378517479361631  1.0000
  H   H75       1.0  0.8050765780370456  0.9203003818664042  0.837798121250536  1.0000
  H   H76       1.0  0.5632279173676553  0.07975075192288003  0.16215234818820073  1.0000
  H   H77       1.0  0.07970173044570572  0.19491976986613213  0.1622046887416317  1.0000
  H   H78       1.0  0.1948520731122585  0.56327406705698  0.16208453605700165  1.0000
  H   H79       1.0  0.2917035649385582  0.8947395969223492  0.6993001335518725  1.0000
  H   H80       1.0  0.11427619287076143  0.29215941516800104  0.6990028229859817  1.0000
  H   H81       1.0  0.8946782639614385  0.11438185911775622  0.6995017240432375  1.0000
  H   H82       1.0  0.7078337144027246  0.8857283537456906  0.3009952761495995  1.0000
  H   H83       1.0  0.8856170160951535  0.10531819471384536  0.30050031775347463  1.0000
  H   H84       1.0  0.1052552771636002  0.708296645985129  0.3007041276144519  1.0000
  H   H85       1.0  0.3671075849726791  0.8853173168999218  0.7395151364619891  1.0000
  H   H86       1.0  0.008105228704430098  0.36751537678412655  0.7392617845092033  1.0000
  H   H87       1.0  0.8854701008351286  0.008123094733470249  0.7396013164316598  1.0000
  H   H88       1.0  0.6324789436834524  0.9918989092415054  0.2607328267187938  1.0000
  H   H89       1.0  0.9918765898340497  0.11452555370094318  0.2603999016005998  1.0000
  H   H90       1.0  0.11468144934529793  0.6328935363697354  0.2604840382356245  1.0000
  H   H91       1.0  0.25023473134999824  0.9238336199915191  0.7910223337270139  1.0000
  H   H92       1.0  0.03486456546210801  0.25063150005198753  0.7905365839316119  1.0000
  H   H93       1.0  0.9237644454523564  0.03505699906916234  0.7912128939734726  1.0000
  H   H94       1.0  0.7493638852038347  0.9651405608408719  0.2094619108665869  1.0000
  H   H95       1.0  0.9649408727836146  0.07623184351304248  0.20878882878932367  1.0000
  H   H96       1.0  0.0761648205527266  0.7497641073370075  0.2089795597499843  1.0000
  H   H97       1.0  0.9058166351588569  0.16758930445205059  0.06296714353596382  1.0000
  H   H98       1.0  0.8636342544358868  0.905938451451689  0.06289208061575398  1.0000
  H   H99       1.0  0.167418116431385  0.8636753304684816  0.06331241175965367  1.0000
  H   H100      1.0  0.09405880466812282  0.13636778894516502  0.9371048629442598  1.0000
  H   H101      1.0  0.13633027066058653  0.8325731062432382  0.9366929153392007  1.0000
  H   H102      1.0  0.8324097212455898  0.09417624915074899  0.9370381714978037  1.0000
  H   H103      1.0  0.7729872713695585  0.3075970803232976  0.06206709022889371  1.0000
  H   H104      1.0  0.8573374637402439  0.7731100983174523  0.06209116954894978  1.0000
  H   H105      1.0  0.3075572905572487  0.8573838575221866  0.06210279547642022  1.0000
  H   H106      1.0  0.2268868217844613  0.14266350880971856  0.9379097151590656  1.0000
  H   H107      1.0  0.14261944038243973  0.6924289952364473  0.9379138164443716  1.0000
  H   H108      1.0  0.6924083593244106  0.2270088118122756  0.9379299209413857  1.0000
  H   H109      1.0  0.4108072261024915  0.3739874639598639  0.20003159111018215  1.0000
  H   H110      1.0  0.015297093125298004  0.41087082857293195  0.20019192973929736  1.0000
  H   H111      1.0  0.37401494502967847  0.015174925464869163  0.1998939995026774  1.0000
  H   H112      1.0  0.5891234506772918  0.9847029057782918  0.7998168037635551  1.0000
  H   H113      1.0  0.9848246780296962  0.6259781345788367  0.8001152724431149  1.0000
  H   H114      1.0  0.6260103316984243  0.5891916314057538  0.7999657968409721  1.0000
  H   H115      1.0  0.3460784084685926  0.4578008209783064  0.13353549104814275  1.0000
  H   H116      1.0  0.0628273700238324  0.346036253924268  0.13375600951871291  1.0000
  H   H117      1.0  0.45792544601528123  0.06243353649369242  0.13340634383463618  1.0000
  H   H118      1.0  0.6539543226326073  0.9371745160412387  0.8662568953053198  1.0000
  H   H119      1.0  0.9375658275022474  0.542067592056142  0.8666061014506427  1.0000
  H   H120      1.0  0.5422010326701853  0.6539210254309605  0.8664623319463656  1.0000
  H   H121      1.0  0.38889492147951193  0.4874303178190542  0.17784771200233954  1.0000
  H   H122      1.0  0.946067356799226  0.38888398191957657  0.17792938112447126  1.0000
  H   H123      1.0  0.4874585355702338  0.9456852241609538  0.17773621480629484  1.0000
  H   H124      1.0  0.6111119533545449  0.05393640766341419  0.8220797580595302  1.0000
  H   H125      1.0  0.05431496641801909  0.5125298511811207  0.822271636292534  1.0000
  H   H126      1.0  0.5125724895561492  0.6111038887760355  0.8221520239459893  1.0000
  H   H127      1.0  0.5130116215607073  0.27821020886502607  0.20375507065137557  1.0000
  H   H128      1.0  0.005083648431615  0.5131604955178518  0.20382306112230705  1.0000
  H   H129      1.0  0.27827708310233135  0.004959833029055002  0.20369762617450243  1.0000
  H   H130      1.0  0.48683687411548254  0.9949207182625698  0.7961826011562817  1.0000
  H   H131      1.0  0.9950400146238325  0.7217223913538999  0.7963067632179128  1.0000
  H   H132      1.0  0.7217850964080839  0.48698690486310864  0.7962424801636557  1.0000
  H   H133      1.0  0.6289633330635951  0.25393368645026004  0.166628661758331  1.0000
  H   H134      1.0  0.9506068878345674  0.6291425894122893  0.16650167422947246  1.0000
  H   H135      1.0  0.25404110355989223  0.9503827272047619  0.16654419721530883  1.0000
  H   H136      1.0  0.37085936859298846  0.049396512828089045  0.833498753653174  1.0000
  H   H137      1.0  0.04961247187187471  0.7459609576201058  0.8334651387363438  1.0000
  H   H138      1.0  0.7460660033331693  0.37103364125181293  0.8333719003058278  1.0000
  H   H139      1.0  0.5836656600703591  0.21868744590378936  0.13011436798944218  1.0000
  H   H140      1.0  0.06769970783690839  0.5836905579089302  0.13015440841832074  1.0000
  H   H141      1.0  0.2186981367345879  0.06744937159321301  0.13011919201880318  1.0000
  H   H142      1.0  0.4163112413386543  0.932301739913015  0.8698474302579059  1.0000
  H   H143      1.0  0.9325462427722329  0.7812938235945309  0.8698946278767963  1.0000
  H   H144      1.0  0.7813149758368994  0.41633787042299986  0.8698788172712711  1.0000
  H   H145      1.0  0.899855452198338  0.9550440707977896  0.5238448360827092  1.0000
  H   H146      1.0  0.6213728862437266  0.8998928967168351  0.5238460425912239  1.0000
  H   H147      1.0  0.9550040929727502  0.621253485916533  0.5237666276045159  1.0000
  H   H148      1.0  0.10010903597576971  0.3786192725487253  0.4761566336709606  1.0000
  H   H149      1.0  0.37874280480777145  0.04500055721582893  0.4762363109343469  1.0000
  H   H150      1.0  0.04495674085415399  0.10017478429858777  0.47615550085135544  1.0000
  H   H151      1.0  0.7605619991508805  0.08994817848268598  0.520368120201354  1.0000
  H   H152      1.0  0.6293615509154051  0.7606724100400651  0.5202624428197922  1.0000
  H   H153      1.0  0.0899166787251957  0.6290862839276413  0.5201930224474438  1.0000
  H   H154      1.0  0.23932853834106277  0.3706265073948882  0.479741586720337  1.0000
  H   H155      1.0  0.37090766506077  0.9100883821055841  0.47980609175748856  1.0000
  H   H156      1.0  0.910049380398185  0.2394640891400568  0.4796302392063793  1.0000
  H   H157      1.0  0.7409302447968001  0.5072865980008316  0.3484064819555711  1.0000
  H   H158      1.0  0.4033364879070831  0.7409886952865461  0.3484404557925915  1.0000
  H   H159      1.0  0.5072537958624751  0.40326158466999096  0.34841924450498146  1.0000
  H   H160      1.0  0.2590095245108088  0.5966579680770323  0.6515662046319477  1.0000
  H   H161      1.0  0.5967280772956088  0.4927538321897627  0.6515834340242677  1.0000
  H   H162      1.0  0.4927174559670036  0.2590663112437213  0.6515916522395101  1.0000
  H   H163      1.0  0.6232057646237764  0.5598272336900434  0.3794226787404256  1.0000
  H   H164      1.0  0.4376757909319339  0.6232615347847099  0.3794035191052101  1.0000
  H   H165      1.0  0.5597363006443744  0.43749895947701106  0.3794019026241314  1.0000
  H   H166      1.0  0.3767401712298622  0.5623163723274728  0.6206047625043495  1.0000
  H   H167      1.0  0.5624996305164203  0.44026451522437066  0.6205992259030779  1.0000
  H   H168      1.0  0.4401760143762132  0.37679279812731165  0.6205743719032738  1.0000
  H   H169      1.0  0.6777987690328616  0.5005284705046334  0.30597688215032554  1.0000
  H   H170      1.0  0.515683471808785  0.6780053535443782  0.3059285873620112  1.0000
  H   H171      1.0  0.5004434772039305  0.5156054078952433  0.30593927767796464  1.0000
  H   H172      1.0  0.3219938849448241  0.4843057481653118  0.6940747353925971  1.0000
  H   H173      1.0  0.4843852901530142  0.49955304006739704  0.6940694266708789  1.0000
  H   H174      1.0  0.49946371231889236  0.32220420812141254  0.6940276003705605  1.0000
  H   H175      1.0  0.8704551129011405  0.27417647556433156  0.3487632880719005  1.0000
  H   H176      1.0  0.5059843934097543  0.8708297991485521  0.34891353379441614  1.0000
  H   H177      1.0  0.2743181431422527  0.5060489793563292  0.34884860565964  1.0000
  H   H178      1.0  0.12916982692416212  0.49401627649984187  0.6510828831147606  1.0000
  H   H179      1.0  0.4939329029249251  0.7256871879045972  0.6511607586669969  1.0000
  H   H180      1.0  0.725827448371618  0.12954820448980772  0.651240702243001  1.0000
  H   H181      1.0  0.868213332690523  0.36791252834196086  0.3576733942107707  1.0000
  H   H182      1.0  0.4056652632498158  0.86825481135736  0.35804259110657444  1.0000
  H   H183      1.0  0.36808430424098765  0.40562932502560045  0.3579867252636859  1.0000
  H   H184      1.0  0.13174185467840263  0.5943351026959789  0.6419592994605381  1.0000
  H   H185      1.0  0.5943490130151972  0.6319223094074076  0.642020979126592  1.0000
  H   H186      1.0  0.6320933984521205  0.13178987099934145  0.6423273933046827  1.0000
  H   H187      1.0  0.8082530353420552  0.3833777953971234  0.2978806457972707  1.0000
  H   H188      1.0  0.5099886334587609  0.8085902296723971  0.2980023188534276  1.0000
  H   H189      1.0  0.38353413086679217  0.5099017262475554  0.2980156922232311  1.0000
  H   H190      1.0  0.1914025436733056  0.49000930071892373  0.7020009152890199  1.0000
  H   H191      1.0  0.49007648517604  0.6164734945357391  0.7019950335847938  1.0000
  H   H192      1.0  0.616623266652809  0.1917517493406391  0.7021234523407215  1.0000
  C   C1        1.0  0.12248239278196138  0.8843641180988441  0.6684113828947105  1.0000
  C   C2        1.0  0.3247290691553602  0.12234423066963268  0.6683924561513022  1.0000
  C   C3        1.0  0.8840881440964808  0.32488534868024027  0.6685780194337809  1.0000
  C   C4        1.0  0.8776595426376447  0.6752632323396666  0.33160258850289626  1.0000
  C   C5        1.0  0.6751101405244099  0.1159123454903365  0.3314191396039803  1.0000
  C   C6        1.0  0.1156466158691032  0.8775309312361015  0.3315806268463035  1.0000
  C   C7        1.0  0.15889043457645607  0.846971947223629  0.7328861355946756  1.0000
  C   C8        1.0  0.2612149733918514  0.15875172357068115  0.7328709507852337  1.0000
  C   C9        1.0  0.846674014164762  0.2614528492547733  0.7330997915776223  1.0000
  C   C10       1.0  0.8412553669886121  0.7387802702101279  0.26712258513104825  1.0000
  C   C11       1.0  0.7385416901641477  0.153330799943511  0.2668978478488242  1.0000
  C   C12       1.0  0.15303258976979356  0.8411108409489712  0.26711610461542534  1.0000
  C   C13       1.0  0.24233265215841027  0.7779406838084025  0.7268008387997253  1.0000
  C   C14       1.0  0.2529354653282638  0.24216931707883288  0.7268042317116467  1.0000
  C   C15       1.0  0.7777555123527692  0.25299028499172493  0.726951321300646  1.0000
  C   C16       1.0  0.7578359675847965  0.7470658065767635  0.273189228798799  1.0000
  C   C17       1.0  0.7470036817820471  0.22224906855711157  0.2730505532175371  1.0000
  C   C18       1.0  0.22205890430102224  0.7576642648893921  0.27320467133080234  1.0000
  C   C19       1.0  0.28702627381635176  0.7529132150807525  0.6535579066133083  1.0000
  C   C20       1.0  0.30658427412416245  0.2868353979523235  0.6536341963690544  1.0000
  C   C21       1.0  0.752802074018291  0.30643711535655865  0.6536600116303362  1.0000
  C   C22       1.0  0.7131663011795056  0.6934176942367214  0.3463610851748626  1.0000
  C   C23       1.0  0.6935543393711969  0.24719839857856823  0.3463456576240914  1.0000
  C   C24       1.0  0.24708801883850381  0.7129766638130305  0.3464465126759962  1.0000
  C   C25       1.0  0.2474733396621076  0.795938091995765  0.5907966959129708  1.0000
  C   C26       1.0  0.36584851888065373  0.24728556592295084  0.5908631205033217  1.0000
  C   C27       1.0  0.7959244195481149  0.3656151017056356  0.5908453132882697  1.0000
  C   C28       1.0  0.7527180537863744  0.6341492200661348  0.40912923479235985  1.0000
  C   C29       1.0  0.6343785018294383  0.20407446189534537  0.40915436313339626  1.0000
  C   C30       1.0  0.20406874454123175  0.7525353156711744  0.4092038454729874  1.0000
  C   C31       1.0  0.28332126772589555  0.7324407208795092  0.7947163832507941  1.0000
  C   C32       1.0  0.189532360675031  0.28323376224511776  0.7946807012460296  1.0000
  C   C33       1.0  0.7322914440217119  0.1895570096140985  0.7948864564059547  1.0000
  C   C34       1.0  0.7167714736960137  0.8104713832552761  0.20531196803438678  1.0000
  C   C35       1.0  0.8104433980977036  0.267705922581335  0.20511571737804254  1.0000
  C   C36       1.0  0.26755756926073093  0.7166729018008693  0.2052875590483085  1.0000
  C   C37       1.0  0.3109136980309231  0.7807003164335099  0.8111687419077497  1.0000
  C   C38       1.0  0.09720130863528452  0.31098558657340897  0.811110201104718  1.0000
  C   C39       1.0  0.780602909240372  0.09724639034765649  0.8112927893812338  1.0000
  C   C40       1.0  0.6890200657572053  0.9028016812108461  0.18888351420006427  1.0000
  C   C41       1.0  0.90275179069301  0.21939417448521664  0.18870905301069024  1.0000
  C   C42       1.0  0.21930022578588657  0.6890822033627086  0.18883133567913296  1.0000
  C   C43       1.0  0.34695600781844155  0.7382259899103686  0.877769792744317  1.0000
  C   C44       1.0  0.0370497359709532  0.3469434879883265  0.8777730850579744  1.0000
  C   C45       1.0  0.7381759576495099  0.03704167455680362  0.877809386076457  1.0000
  C   C46       1.0  0.6530549238481173  0.962954838257822  0.12222561567904924  1.0000
  C   C47       1.0  0.9629587717984975  0.26181884436489583  0.12219188367294716  1.0000
  C   C48       1.0  0.2617728551306585  0.6530464979854571  0.12223043010067158  1.0000
  C   C49       1.0  0.3593297365187453  0.6470475210804661  0.9253701957547662  1.0000
  C   C50       1.0  0.0682867968445748  0.3593105389958423  0.9253571264185678  1.0000
  C   C51       1.0  0.6469722291794825  0.06822654712149749  0.9254042413165422  1.0000
  C   C52       1.0  0.6406921615834875  0.9317143432096268  0.07464059970929098  1.0000
  C   C53       1.0  0.9317746623483955  0.35302464876218653  0.07459978373987758  1.0000
  C   C54       1.0  0.3529527237346031  0.6406736279203074  0.07462815226239179  1.0000
  C   C55       1.0  0.3351683325809347  0.5985947870049555  0.9047151767501305  1.0000
  C   C56       1.0  0.16157783449241953  0.3350701849240492  0.9046764213046997  1.0000
  C   C57       1.0  0.5984774530659395  0.1614956490735792  0.9048219555296911  1.0000
  C   C58       1.0  0.6649331864481454  0.8384236553418769  0.0953183758870396  1.0000
  C   C59       1.0  0.8385072433084134  0.4015188643010956  0.09518146119273047  1.0000
  C   C60       1.0  0.40140167833963153  0.6648363714583354  0.09528631823872054  1.0000
  C   C61       1.0  0.2950509187112189  0.6416289275487654  0.8409050844693765  1.0000
  C   C62       1.0  0.22247122236837674  0.2949015776389102  0.8408868744998585  1.0000
  C   C63       1.0  0.6414521244324478  0.22244564057861263  0.8410765381455221  1.0000
  C   C64       1.0  0.7051057489932617  0.7775280252109056  0.15910946130836112  1.0000
  C   C65       1.0  0.7775555949929756  0.3585463956329631  0.15892247510526392  1.0000
  C   C66       1.0  0.35837136906481964  0.7049458847204447  0.15909747398195856  1.0000
  C   C67       1.0  0.2621438408930956  0.590417218181308  0.8261737950732806  1.0000
  C   C68       1.0  0.32134895676854563  0.26178184103445545  0.8262497760788886  1.0000
  C   C69       1.0  0.5902440435928329  0.3213161667352934  0.826338109875813  1.0000
  C   C70       1.0  0.738222575226672  0.6786484609129029  0.17374885369798704  1.0000
  C   C71       1.0  0.6786866359540015  0.4097510708124542  0.17366430572942457  1.0000
  C   C72       1.0  0.4095792317276335  0.7378529404537415  0.1738331086187516  1.0000
  C   C73       1.0  0.3461911817661517  0.5014654373643593  0.9526691284670504  1.0000
  C   C74       1.0  0.1997503912469085  0.3460679337413524  0.9526407632650659  1.0000
  C   C75       1.0  0.5013223560291352  0.19965977728030265  0.9527559464860856  1.0000
  C   C76       1.0  0.6539317326290829  0.800248163853723  0.04735909438274194  1.0000
  C   C77       1.0  0.8003402431157624  0.49867685912438714  0.04724471398025559  1.0000
  C   C78       1.0  0.49853182304469373  0.6538106342036369  0.047332995361031804  1.0000
  C   C79       1.0  0.3780870385810219  0.7916279677386412  0.8912331165354171  1.0000
  C   C80       1.0  0.9390473337708302  0.3780926825102567  0.8911909301905895  1.0000
  C   C81       1.0  0.7916224324604144  0.9390204598610052  0.8911877520908933  1.0000
  C   C82       1.0  0.6219041778517537  0.06095209662105106  0.1088102890549578  1.0000
  C   C83       1.0  0.06097943890225109  0.20837659518625168  0.10881494244200951  1.0000
  C   C84       1.0  0.20837455684715422  0.6219119433163413  0.10876920699944043  1.0000
  C   C85       1.0  0.3046643353191172  0.8758292196108286  0.757423194592512  1.0000
  C   C86       1.0  0.06208929796969901  0.3049874487049138  0.7571768913604018  1.0000
  C   C87       1.0  0.875799823050066  0.06218816784102901  0.7575878176257331  1.0000
  C   C88       1.0  0.6950101075429416  0.9379150431107628  0.2428194736110287  1.0000
  C   C89       1.0  0.9378102256439362  0.12419669329293727  0.24241536896316526  1.0000
  C   C90       1.0  0.12416850354424011  0.695335356698301  0.2425793770324063  1.0000
  C   C91       1.0  0.8575564998031737  0.18410772089679728  0.03447991904196354  1.0000
  C   C92       1.0  0.9238377599368376  0.8576783544075324  0.03439748905639548  1.0000
  C   C93       1.0  0.18397794205226597  0.9238764875629283  0.03470053521656556  1.0000
  C   C94       1.0  0.1423194119506377  0.07616450440099236  0.9656019460175641  1.0000
  C   C95       1.0  0.07612722546183193  0.8160186170530392  0.9653017682867643  1.0000
  C   C96       1.0  0.815893032767498  0.1424390349183113  0.9655220110271471  1.0000
  C   C97       1.0  0.7827684414086706  0.2616679214833225  0.03461377459721853  1.0000
  C   C98       1.0  0.920945549322319  0.7828604054431874  0.034612510963185496  1.0000
  C   C99       1.0  0.261580935916527  0.9209802021302593  0.03469529751723843  1.0000
  C   C100      1.0  0.2171355725126602  0.07905798867182767  0.9653922012448886  1.0000
  C   C101      1.0  0.0790220616280095  0.7384123394236964  0.9653157658418651  1.0000
  C   C102      1.0  0.7383387491010681  0.21722850206165822  0.9653815838524125  1.0000
  C   C103      1.0  0.720814171969778  0.2791857956617461  0.9999978414045853  1.0000
  C   C104      1.0  0.9999886350252254  0.7208714984045766  1.2759208381182053e-05  1.0000
  C   C105      1.0  0.27912227392415906  1.581832147926039e-05  0.9999942185490694  1.0000
  C   C106      1.0  0.6393395643369644  0.36065974743322465  0.9999989155650651  1.0000
  C   C107      1.0  5.613402171179986e-05  0.6393467951881034  6.518130059166476e-05  1.0000
  C   C108      1.0  0.3606456266486902  0.9999486961127244  0.9999413546360144  1.0000
  C   C109      1.0  0.5645796009308556  0.35930299162914275  0.07346567613341642  1.0000
  C   C110      1.0  0.0028293285225373995  0.5645904259131667  0.07350932737769272  1.0000
  C   C111      1.0  0.3593107417817621  0.002615916168501449  0.07339493049240525  1.0000
  C   C112      1.0  0.43540393296432  0.9971737883636321  0.9264968701945122  1.0000
  C   C113      1.0  0.9973897480847713  0.6406790435496172  0.9266151859202765  1.0000
  C   C114      1.0  0.6406945633778564  0.43541851050954256  0.9265327028870797  1.0000
  C   C115      1.0  0.48761125565476965  0.43698974922042993  0.07362263199425458  1.0000
  C   C116      1.0  0.0020155473285044  0.4875795454076907  0.0736994220571319  1.0000
  C   C117      1.0  0.43702543570643837  0.0017104478679925762  0.07350944587609118  1.0000
  C   C118      1.0  0.5124139274957004  0.9979897745206116  0.9263059399476176  1.0000
  C   C119      1.0  0.9982934824500944  0.5629686745373306  0.9264981933331028  1.0000
  C   C120      1.0  0.5630085077127375  0.5123873236349753  0.9263746301714092  1.0000
  C   C121      1.0  0.4867268172127482  0.5132721095260206  0.9999990301662505  1.0000
  C   C122      1.0  0.00015519540708909988  0.48667404769555117  0.00011499179257171869  1.0000
  C   C123      1.0  0.5133182068551108  0.9998431325788171  0.9998951838973936  1.0000
  C   C124      1.0  0.40482108609075607  0.43846315039929334  0.15012487974161817  1.0000
  C   C125      1.0  0.0068030682448708005  0.4048356119228558  0.1502467666031109  1.0000
  C   C126      1.0  0.43851497283598223  0.006488411672478295  0.15001461259130605  1.0000
  C   C127      1.0  0.5951598761016256  0.9931983986271998  0.8497628534088051  1.0000
  C   C128      1.0  0.9935117897087481  0.5614779452668582  0.8499952889912663  1.0000
  C   C129      1.0  0.5615359881394327  0.5951788848643456  0.8498731765000542  1.0000
  C   C130      1.0  0.5716877927021147  0.2742510564436597  0.1474385575237845  1.0000
  C   C131      1.0  0.006766386670491901  0.571786216630258  0.1474546550443066  1.0000
  C   C132      1.0  0.2742977820124112  0.0065494968347791374  0.14739662525043679  1.0000
  C   C133      1.0  0.42821010894535766  0.993236526738627  0.8525502193793809  1.0000
  C   C134      1.0  0.9934491525966891  0.7256945026046464  0.8526142504741613  1.0000
  C   C135      1.0  0.7257486231339385  0.42831230210310856  0.8525597650182917  1.0000
  C   C136      1.0  0.8989585373115858  0.020275471579189748  0.5122535449194103  1.0000
  C   C137      1.0  0.5686292687455747  0.899033286445096  0.5122290525374066  1.0000
  C   C138      1.0  0.020221621698610203  0.568465088776733  0.5121748110438916  1.0000
  C   C139      1.0  0.10096669089077182  0.4313614194948766  0.4877774538049593  1.0000
  C   C140      1.0  0.43152542997160737  0.9797805345244015  0.48782723021529506  1.0000
  C   C141      1.0  0.9797321205471833  0.10106560510773475  0.4877446880559403  1.0000
  C   C142      1.0  0.8216857015956691  0.09536836101511166  0.5113856647189792  1.0000
  C   C143      1.0  0.5717290452216731  0.8217508718755934  0.5113434674937097  1.0000
  C   C144      1.0  0.09532115101765731  0.5714843733964795  0.5113064579566853  1.0000
  C   C145      1.0  0.1782492579795019  0.4282607024407168  0.4886610507652166  1.0000
  C   C146      1.0  0.42851008960466425  0.9046772485896497  0.48869790826716286  1.0000
  C   C147      1.0  0.9046345608148699  0.17833724689814545  0.4886151899207576  1.0000
  C   C148      1.0  0.8233164659923915  0.176689517360458  0.5000034673590079  1.0000
  C   C149      1.0  0.5001282381606346  0.8233635314166529  0.5000096100785357  1.0000
  C   C150      1.0  0.17663688482432605  0.4998632854114645  0.49999576519414274  1.0000
  C   C151      1.0  0.7421750141620436  0.25782429890880093  0.5000041370336915  1.0000
  C   C152      1.0  0.5001057072808734  0.7422533436986852  0.49999205332195357  1.0000
  C   C153      1.0  0.2577481221173841  0.4998816375105051  0.5000145074134466  1.0000
  C   C154      1.0  0.7456476192062311  0.33774273558229573  0.4325406827868432  1.0000
  C   C155      1.0  0.48399699034845167  0.7457844058149303  0.43259917534216896  1.0000
  C   C156      1.0  0.3377199049011211  0.48384760086043593  0.4325965038691494  1.0000
  C   C157      1.0  0.25421475729973514  0.5159993512774506  0.5674028031689318  1.0000
  C   C158      1.0  0.5161337903317432  0.6622836996358499  0.5674130889047646  1.0000
  C   C159      1.0  0.6622598407713768  0.25435562467675504  0.5674640051568715  1.0000
  C   C160      1.0  0.6694592790010178  0.4160191437644797  0.4354979072218157  1.0000
  C   C161      1.0  0.47903541260691906  0.6695821268121376  0.4355122558864225  1.0000
  C   C162      1.0  0.4159382059492458  0.47897048540546894  0.43549243668953613  1.0000
  C   C163      1.0  0.33041328797736474  0.5209653070799474  0.5644892176167318  1.0000
  C   C164      1.0  0.5210151405971715  0.5840640848560099  0.5645171443623768  1.0000
  C   C165      1.0  0.5839827262269994  0.330543891848478  0.5645039252146659  1.0000
  C   C166      1.0  0.5869791578220572  0.4130211372293145  0.5000004775752204  1.0000
  C   C167      1.0  0.4999567675004499  0.5871171450908714  0.5000414276033284  1.0000
  C   C168      1.0  0.41288261972644597  0.5000406758256162  0.49996187006399134  1.0000
  C   C169      1.0  0.6778051687481863  0.5004767624800334  0.3640693733250303  1.0000
  C   C170      1.0  0.45769061342775075  0.6779096382364853  0.3640759882153974  1.0000
  C   C171      1.0  0.5003861455898218  0.4575866357213626  0.3640550188091254  1.0000
  C   C172      1.0  0.3220893152369443  0.5423024107236711  0.6359295823081438  1.0000
  C   C173      1.0  0.5424034792192958  0.4996172846267296  0.6359485078579395  1.0000
  C   C174      1.0  0.49952675543087116  0.32219460022874097  0.6359292851711658  1.0000
  C   C175      1.0  0.8273918568625904  0.3406290677522817  0.35557643819919343  1.0000
  C   C176      1.0  0.47595237469980134  0.8276117931207309  0.3557574600654192  1.0000
  C   C177      1.0  0.3407340015166937  0.47590480876029756  0.35573053181830977  1.0000
  C   C178      1.0  0.17238580747887514  0.5240468018086728  0.644242631459953  1.0000
  C   C179      1.0  0.5240723918926946  0.6592708547056033  0.6442808987664961  1.0000
  C   C180      1.0  0.6593743823515723  0.17261008116014404  0.644426629422135  1.0000
  Br  Br1       1.0  0.22430309271489796  0.9770374968355636  0.3865649002267092  1.0000
  Br  Br2       1.0  0.41251087211520604  0.2248281154882647  0.3867038395523181  1.0000
  Br  Br3       1.0  0.9767138614642193  0.4120871902272253  0.38638910459682296  1.0000
  Br  Br4       1.0  0.7751354078654773  0.5874485267128118  0.613352085712023  1.0000
  Br  Br5       1.0  0.5878949841336762  0.023270508245836645  0.6136278226047551  1.0000
  Br  Br6       1.0  0.022979973684059  0.7756776815724746  0.6134357399878142  1.0000
  Br  Br7       1.0  0.9426326795465769  0.9424443971232037  0.17163417845574017  1.0000
  Br  Br8       1.0  0.0575539124250568  0.05737120419740898  0.828367623807466  1.0000
  N   N1        1.0  0.1657638430625212  0.8592605987916141  0.5988490924005064  1.0000
  N   N2        1.0  0.37611613116344966  0.16562807589414769  0.5988718578590024  1.0000
  N   N3        1.0  0.8591755188585922  0.3760181187970415  0.5989110772420005  1.0000
  N   N4        1.0  0.8343736686859416  0.6238795892654136  0.40112620813719274  1.0000
  N   N5        1.0  0.62397877277634  0.1408221221856819  0.40108855323452264  1.0000
  N   N6        1.0  0.14074994089988022  0.8342492029670934  0.40114397747444047  1.0000
  N   N7        1.0  0.9767277216276468  0.02329101953016991  0.49999821340625067  1.0000
  N   N8        1.0  0.5000549593561487  0.9767998018055906  0.5000577716248386  1.0000
  N   N9        1.0  0.0232014418341819  0.4999360893555858  0.4999452792297633  1.0000
  N   N10       1.0  0.8742292462868733  0.12576579928519746  4.384865945979427e-06  1.0000
  N   N11       1.0  0.9999866719665391  0.8743551488056125  0.9998066753567015  1.0000
  N   N12       1.0  0.125640220753553  1.5672727720096997e-05  0.00019626917487159222  1.0000
