data_image0
_chemical_formula_structural       Cd2H24C20S4N4O16
_chemical_formula_sum              "Cd2 H24 C20 S4 N4 O16"
_cell_length_a       7.155237358078944
_cell_length_b       7.842979259639387
_cell_length_c       13.139225109045604
_cell_angle_alpha    89.99971412663415
_cell_angle_beta     90.00013999504068
_cell_angle_gamma    97.11320020724496

_space_group_name_H-M_alt    "P 1"
_space_group_IT_number       1

loop_
  _space_group_symop_operation_xyz
  'x, y, z'

loop_
  _atom_site_type_symbol
  _atom_site_label
  _atom_site_symmetry_multiplicity
  _atom_site_fract_x
  _atom_site_fract_y
  _atom_site_fract_z
  _atom_site_occupancy
  Cd  Cd1       1.0  0.5000008217977269  0.9999994257221657  0.499999408299857  1.0000
  Cd  Cd2       1.0  0.9999990957009643  7.936925799534858e-09  2.9187351199999996e-07  1.0000
  H   H1        1.0  0.675247452631716  0.3955800808058214  0.5138589371625528  1.0000
  H   H2        1.0  0.8247547102833083  0.6044206490309209  0.0138627257576971  1.0000
  H   H3        1.0  0.32474984864595063  0.6044225526249464  0.48613985598728254  1.0000
  H   H4        1.0  0.1752452163822085  0.39558070631166936  0.9861383506355139  1.0000
  H   H5        1.0  0.7438030041931116  0.5576567463920058  0.826955591449213  1.0000
  H   H6        1.0  0.7561967150778132  0.4423363536940244  0.3269567282162883  1.0000
  H   H7        1.0  0.2561951830587432  0.44234203571370057  0.1730454849466696  1.0000
  H   H8        1.0  0.24380392686694563  0.557659865428029  0.6730428260253234  1.0000
  H   H9        1.0  0.6382223832674756  0.2502594790848748  0.8784202024399121  1.0000
  H   H10       1.0  0.8617731413650064  0.7497319176522055  0.37842284478193733  1.0000
  H   H11       1.0  0.36177703132831607  0.7497380215350375  0.1215785907190536  1.0000
  H   H12       1.0  0.1382247045095468  0.25026429463234473  0.621578231617562  1.0000
  H   H13       1.0  0.5552934387126172  0.0328675291603417  0.7423135107591962  1.0000
  H   H14       1.0  0.9447075694388901  0.9671275305642978  0.24231865870144287  1.0000
  H   H15       1.0  0.44470860126725137  0.9671286933804524  0.2576852824034788  1.0000
  H   H16       1.0  0.05529464123592482  0.0328699768719787  0.7576839398588648  1.0000
  H   H17       1.0  0.8728545682296913  0.15146997233872378  0.4251746033514578  1.0000
  H   H18       1.0  0.6271440452150828  0.8485326211955596  0.9251739580552113  1.0000
  H   H19       1.0  0.12714290373789083  0.8485339459995985  0.5748249508764616  1.0000
  H   H20       1.0  0.37285308537519773  0.15146872732161404  0.0748255961763249  1.0000
  H   H21       1.0  0.7316521426864712  0.12155759243491099  0.3326135380077417  1.0000
  H   H22       1.0  0.768345823350174  0.8784431654084416  0.8326145174488815  1.0000
  H   H23       1.0  0.26834638593891214  0.8784437595010033  0.6673852551448506  1.0000
  H   H24       1.0  0.23165147793001492  0.1215594680162937  0.1673857978607387  1.0000
  C   C1        1.0  0.6696695177455255  0.36831816836647147  0.5951445897099745  1.0000
  C   C2        1.0  0.8303367666524012  0.6316793571955159  0.09514678203098731  1.0000
  C   C3        1.0  0.3303312948916571  0.631679335657104  0.40485724776949894  1.0000
  C   C4        1.0  0.16966578539593513  0.3683207200709759  0.9048535332860297  1.0000
  C   C5        1.0  0.7172859614374972  0.4972650701190915  0.6670299466335053  1.0000
  C   C6        1.0  0.7827205606321145  0.5027318852978196  0.16703093848001066  1.0000
  C   C7        1.0  0.2827137945368534  0.5027350003189569  0.33296960760173283  1.0000
  C   C8        1.0  0.21728338945132464  0.49726819538742006  0.8329686157580625  1.0000
  C   C9        1.0  0.706880913483559  0.4574841622571953  0.7704873940115676  1.0000
  C   C10       1.0  0.7931184484019768  0.5425081007807292  0.2704905640247759  1.0000
  C   C11       1.0  0.29311867180214785  0.5425146232702787  0.22951216022547533  1.0000
  C   C12       1.0  0.20688236423269762  0.4574894032488785  0.7295097512949198  1.0000
  C   C13       1.0  0.6489020655444478  0.288035869303684  0.7986962735412392  1.0000
  C   C14       1.0  0.85110052705582  0.7119587466563286  0.298698253496184  1.0000
  C   C15       1.0  0.35110294120057267  0.7119616449700957  0.20130480286118768  1.0000
  C   C16       1.0  0.14890151292907922  0.2880374758723931  0.7013035839860464  1.0000
  C   C17       1.0  0.6028083188787222  0.1660276844396051  0.722796210835547  1.0000
  C   C18       1.0  0.8971926247435251  0.8339675300827666  0.2228016932290018  1.0000
  C   C19       1.0  0.39719563120345924  0.8339723962486476  0.2772025823226443  1.0000
  C   C20       1.0  0.1028083585823154  0.16603125885138328  0.7772001442486598  1.0000
  S   S1        1.0  0.7825120204091932  0.7123370667797319  0.6252737816188656  1.0000
  S   S2        1.0  0.7174875441102844  0.2876614876507802  0.1252753293229674  1.0000
  S   S3        1.0  0.21748493949369424  0.28766299682384744  0.37472653369436426  1.0000
  S   S4        1.0  0.28251238255145955  0.7123398677008693  0.8747234638305699  1.0000
  N   N1        1.0  0.6126562395099527  0.2053704893763069  0.6228473420275054  1.0000
  N   N2        1.0  0.887349965794428  0.794625531549741  0.1228506457040979  1.0000
  N   N3        1.0  0.38734771057349354  0.7946295913089332  0.3771522122105679  1.0000
  N   N4        1.0  0.11265241556651522  0.2053732608031567  0.8771504306946198  1.0000
  O   O1        1.0  0.6070671902074736  0.7605806189336732  0.5810944244364578  1.0000
  O   O2        1.0  0.8929318868581221  0.23941571609538673  0.08109178912527432  1.0000
  O   O3        1.0  0.392929599006763  0.23941815975932462  0.4189058908785839  1.0000
  O   O4        1.0  0.10706630038870199  0.7605830660223916  0.9189062429510458  1.0000
  O   O5        1.0  0.9317889840453831  0.7059084020281715  0.5488995259113381  1.0000
  O   O6        1.0  0.5682069872901181  0.294097172467943  0.04889932894457159  1.0000
  O   O7        1.0  0.0682084879221989  0.2940955163101577  0.45110002831658136  1.0000
  O   O8        1.0  0.43179154133526515  0.7059041794679788  0.9510994642080207  1.0000
  O   O9        1.0  0.8466656976162528  0.8118965520975365  0.7157105161604775  1.0000
  O   O10       1.0  0.6533329385581724  0.18810256655729776  0.2157077084669723  1.0000
  O   O11       1.0  0.1533316036639363  0.18810608132719153  0.2842897991491355  1.0000
  O   O12       1.0  0.34666402134093494  0.8118974970553339  0.7842903236065908  1.0000
  O   O13       1.0  0.7619169878682686  0.0744145719283651  0.3997142377609748  1.0000
  O   O14       1.0  0.738079972673326  0.9255869352126566  0.899714273609021  1.0000
  O   O15       1.0  0.2380815407583725  0.9255867800045294  0.6002853164715063  1.0000
  O   O16       1.0  0.2619171579182122  0.07441441330149699  0.1002860417024038  1.0000
