data_image0
_chemical_formula_structural       Mn2H44C60N8O12
_chemical_formula_sum              "Mn2 H44 C60 N8 O12"
_cell_length_a       10.412452515098272
_cell_length_b       10.412472444145392
_cell_length_c       12.653222724801056
_cell_angle_alpha    108.88564160367534
_cell_angle_beta     108.88572881322355
_cell_angle_gamma    92.80288976782177

_space_group_name_H-M_alt    "P 1"
_space_group_IT_number       1

loop_
  _space_group_symop_operation_xyz
  'x, y, z'

loop_
  _atom_site_type_symbol
  _atom_site_label
  _atom_site_symmetry_multiplicity
  _atom_site_fract_x
  _atom_site_fract_y
  _atom_site_fract_z
  _atom_site_occupancy
  Mn  Mn1       1.0  0.5085223360711452  0.49147851421937383  0.24999857289763847  1.0000
  Mn  Mn2       1.0  0.49147609882100335  0.5085164581138245  0.7500021034471516  1.0000
  H   H1        1.0  0.5822470151811032  0.8297812140051594  0.07760276136975372  1.0000
  H   H2        1.0  0.17021932700042436  0.4177525613713939  0.4223986213349065  1.0000
  H   H3        1.0  0.417751076231994  0.1702178647863875  0.9223981081581841  1.0000
  H   H4        1.0  0.8297816348830975  0.5822454996098118  0.5776019420745938  1.0000
  H   H5        1.0  0.33914938175234965  0.9051205360971651  0.3528228003158135  1.0000
  H   H6        1.0  0.09487990520194962  0.6608480502505787  0.1471763050428622  1.0000
  H   H7        1.0  0.6608490263686447  0.0948805796816217  0.6471763133456889  1.0000
  H   H8        1.0  0.9051220649811568  0.33915000964992714  0.8528237312734746  1.0000
  H   H9        1.0  0.16675349136663437  0.052578203214707714  0.38901079590364424  1.0000
  H   H10       1.0  0.9474236842864696  0.8332467453955558  0.11099123631103677  1.0000
  H   H11       1.0  0.8332450868850925  0.9474239428338864  0.6109886315082066  1.0000
  H   H12       1.0  0.0525766017077274  0.16675336935517757  0.8890096872366228  1.0000
  H   H13       1.0  0.0863842724992878  0.19837651672919077  0.2665438580552717  1.0000
  H   H14       1.0  0.8016247788271681  0.9136163646800454  0.23345567487617558  1.0000
  H   H15       1.0  0.9136171683716652  0.8016246036582759  0.7334544687824404  1.0000
  H   H16       1.0  0.19837449886743735  0.08638375115138792  0.7665457757646478  1.0000
  H   H17       1.0  0.17963981135332566  0.19994826655310766  0.11125846419869133  1.0000
  H   H18       1.0  0.8000499430572673  0.8203583904475666  0.38874123800689386  1.0000
  H   H19       1.0  0.8203614907916544  0.8000518549677126  0.8887427267115129  1.0000
  H   H20       1.0  0.1999491645066129  0.17964069511406686  0.6112598988835813  1.0000
  H   H21       1.0  0.8422506033699547  0.14874418400529524  0.33196658996649836  1.0000
  H   H22       1.0  0.8512583284410622  0.15775060004170166  0.1680344777711654  1.0000
  H   H23       1.0  0.15775102333410732  0.8512579823535591  0.6680336395329788  1.0000
  H   H24       1.0  0.14874296585272617  0.8422495136283318  0.8319659186833236  1.0000
  H   H25       1.0  0.7575396024511887  0.08515123837835151  0.47425475736174855  1.0000
  H   H26       1.0  0.914851046549998  0.24246069295657696  0.025746796635786537  1.0000
  H   H27       1.0  0.24245929572601446  0.9148467776595267  0.5257420934998221  1.0000
  H   H28       1.0  0.08515125604337472  0.7575394196327495  0.9742530727255385  1.0000
  H   H29       1.0  0.5582211376559555  0.18733006335087773  0.5201390839367264  1.0000
  H   H30       1.0  0.8126742584421364  0.4417775413920212  0.979861238312111  1.0000
  H   H31       1.0  0.44177403939718113  0.8126638191483054  0.47985650429152565  1.0000
  H   H32       1.0  0.18732821428196897  0.5582236014671126  0.02013894479956242  1.0000
  H   H33       1.0  0.4553496378904284  0.34910506477329056  0.4222544219712248  1.0000
  H   H34       1.0  0.6508972055968697  0.544650042919841  0.07774598156031944  1.0000
  H   H35       1.0  0.5446462432391996  0.6508929623574888  0.57774480462556  1.0000
  H   H36       1.0  0.34910527497842736  0.4553511077900866  0.9222549960070624  1.0000
  H   H37       1.0  0.63109156321957  0.7257617414997456  0.4170971568364763  1.0000
  H   H38       1.0  0.27423690234608966  0.36890886011509155  0.08290321381025485  1.0000
  H   H39       1.0  0.36890990120495093  0.2742394024400881  0.582903553368368  1.0000
  H   H40       1.0  0.7257635459276486  0.6310922770546555  0.9170972290320378  1.0000
  H   H41       1.0  0.7529838470995286  0.6366927100961847  0.4363697142742425  1.0000
  H   H42       1.0  0.3633065020104879  0.24701702666539666  0.06363099554194922  1.0000
  H   H43       1.0  0.24701643104348386  0.3633073968037622  0.5636304148177018  1.0000
  H   H44       1.0  0.6366939462632573  0.7529841105043504  0.9363694473003505  1.0000
  C   C1        1.0  0.468684685917971  0.9910124072169001  0.04299102283827242  1.0000
  C   C2        1.0  0.008987157681446006  0.5313151837744883  0.4570092960319628  1.0000
  C   C3        1.0  0.5313154377966852  0.008986685114820099  0.9570103814147473  1.0000
  C   C4        1.0  0.9910149747812013  0.468683898545038  0.5429902595790068  1.0000
  C   C5        1.0  0.5094329311431735  0.8949004590498079  0.10010349229128218  1.0000
  C   C6        1.0  0.10509960478962202  0.4905674487675215  0.3998963472945078  1.0000
  C   C7        1.0  0.49056650883098024  0.10510067920063902  0.8998974776441813  1.0000
  C   C8        1.0  0.8949013413915168  0.509430596512111  0.6001026272035689  1.0000
  C   C9        1.0  0.45850224703899295  0.885155591117311  0.18570127706926348  1.0000
  C   C10       1.0  0.11484547730162827  0.5414966799783869  0.3142984311058257  1.0000
  C   C11       1.0  0.5414975253454344  0.11484759982197094  0.8142995259111886  1.0000
  C   C12       1.0  0.8851534522803349  0.4585013674626525  0.6857015975785927  1.0000
  C   C13       1.0  0.36013892153955845  0.9683874144394763  0.2117014204666602  1.0000
  C   C14       1.0  0.03161351075824112  0.6398604644599218  0.28829830747616114  1.0000
  C   C15       1.0  0.6398615267341795  0.0316137227302704  0.7882990223756323  1.0000
  C   C16       1.0  0.9683857512339883  0.36013963566993124  0.7117015542532386  1.0000
  C   C17       1.0  0.3039218978374619  0.9691650595892725  0.2999015280167255  1.0000
  C   C18       1.0  0.03083466627872162  0.6960774269810557  0.20009706041412303  1.0000
  C   C19       1.0  0.6960773563035827  0.030835032689800812  0.7000975392569658  1.0000
  C   C20       1.0  0.9691667981457923  0.30392371695878506  0.7999036497907213  1.0000
  C   C21       1.0  0.20820708518817102  0.05153376533363029  0.3199675955781984  1.0000
  C   C22       1.0  0.9484650570448351  0.7917899979164957  0.18003045485774288  1.0000
  C   C23       1.0  0.7917923390835994  0.9484673572152433  0.6800317854458484  1.0000
  C   C24       1.0  0.0515352210981774  0.20821010898344386  0.8199696742342013  1.0000
  C   C25       1.0  0.16230153439331468  0.13371298855831534  0.2503682617155363  1.0000
  C   C26       1.0  0.8662855325213812  0.8376968696249354  0.24963001094962334  1.0000
  C   C27       1.0  0.8376970360072206  0.8662891496394923  0.7496303712405991  1.0000
  C   C28       1.0  0.1337147456216314  0.16230323727501172  0.7503701181423209  1.0000
  C   C29       1.0  0.21447572756975564  0.13492443604339852  0.16339938122010975  1.0000
  C   C30       1.0  0.8650741425441312  0.7855225313236006  0.3366004668615902  1.0000
  C   C31       1.0  0.7855233721429399  0.8650746416674409  0.8366009612146497  1.0000
  C   C32       1.0  0.13492477918664036  0.21447550826664505  0.6633987673671129  1.0000
  C   C33       1.0  0.31716291850923267  0.055445142450039994  0.1437132676428376  1.0000
  C   C34       1.0  0.9445549139103661  0.6828357666577888  0.3562863507114216  1.0000
  C   C35       1.0  0.6828371973542389  0.9445539420308935  0.8562873421544664  1.0000
  C   C36       1.0  0.0554450082688049  0.31716226400096303  0.6437115619684093  1.0000
  C   C37       1.0  0.5087610955092855  0.7899977346254589  0.2525901640467154  1.0000
  C   C38       1.0  0.21000178102161024  0.4912369705554981  0.2474105442118102  1.0000
  C   C39       1.0  0.49123850674440217  0.2100044260440086  0.7474103251833881  1.0000
  C   C40       1.0  0.7899944325182843  0.5087631092641021  0.7525885154299632  1.0000
  C   C41       1.0  0.6866039479040609  0.2748456112759571  0.2949309076524075  1.0000
  C   C42       1.0  0.725156130998755  0.31339890639327456  0.20507029290040182  1.0000
  C   C43       1.0  0.31339870280196175  0.7251565697037777  0.7050703836653299  1.0000
  C   C44       1.0  0.2748454957053069  0.6866032599655726  0.7949299365990754  1.0000
  C   C45       1.0  0.753854022936835  0.18806078470057497  0.3505075170193379  1.0000
  C   C46       1.0  0.8119394219383335  0.2461458849666727  0.14949177494487734  1.0000
  C   C47       1.0  0.2461482953589211  0.8119393435903323  0.649493941253411  1.0000
  C   C48       1.0  0.18806102633540434  0.7538552522030815  0.8505086678974224  1.0000
  C   C49       1.0  0.7081744915860994  0.15468288172705513  0.43193229747077305  1.0000
  C   C50       1.0  0.8453179250922032  0.2918244084703048  0.06806767404120248  1.0000
  C   C51       1.0  0.29182560072380437  0.8453161792015041  0.5680659289593991  1.0000
  C   C52       1.0  0.1546842152216357  0.7081746817000081  0.9319326760254826  1.0000
  C   C53       1.0  0.5986534539292167  0.21099735988629229  0.45809325794711964  1.0000
  C   C54       1.0  0.7890061671090861  0.4013454056686286  0.04190893735427893  1.0000
  C   C55       1.0  0.4013446296327032  0.7890017110544606  0.5419068171250955  1.0000
  C   C56       1.0  0.2109959810559374  0.598653692352471  0.9580922071681215  1.0000
  C   C57       1.0  0.5394719754371521  0.30038662732503246  0.40253925624000436  1.0000
  C   C58       1.0  0.6996149864226239  0.46052858197116125  0.09746125069914771  1.0000
  C   C59       1.0  0.4605259536964111  0.6996114290474935  0.5974620939932862  1.0000
  C   C60       1.0  0.30038648585308886  0.5394725698194665  0.902540253961405  1.0000
  N   N1        1.0  0.37446939558513737  0.06838221549607232  0.06380298340347682  1.0000
  N   N2        1.0  0.9316169663340049  0.6255277083139891  0.43619442770688027  1.0000
  N   N3        1.0  0.6255300443890163  0.9316189227543814  0.9361979865319866  1.0000
  N   N4        1.0  0.068382963696358  0.37447033019554965  0.563804279428652  1.0000
  N   N5        1.0  0.581194922363366  0.3302257428205166  0.32218165557022627  1.0000
  N   N6        1.0  0.6697757448082413  0.4188059531548093  0.17781811530545621  1.0000
  N   N7        1.0  0.4188029753654376  0.6697722821488554  0.677816516840224  1.0000
  N   N8        1.0  0.33022792204856444  0.581196234595005  0.8221834433748186  1.0000
  O   O1        1.0  0.48755668862558116  0.6621537061457661  0.19002931577014698  1.0000
  O   O2        1.0  0.33784636570549503  0.5124391989453445  0.3099717956770789  1.0000
  O   O3        1.0  0.512441727346605  0.3378474174838075  0.8099705923470637  1.0000
  O   O4        1.0  0.66215188798715  0.48756090226521576  0.6900285931454916  1.0000
  O   O5        1.0  0.568081795728297  0.8452883262877156  0.3651728150512526  1.0000
  O   O6        1.0  0.15471417956710098  0.4319163861992835  0.13482791608733893  1.0000
  O   O7        1.0  0.43191798450731506  0.15471487250235336  0.6348287823849149  1.0000
  O   O8        1.0  0.8452850745739438  0.5680837060797899  0.8651711511863525  1.0000
  O   O9        1.0  0.6547979925119735  0.6375146799772651  0.42910517245903174  1.0000
  O   O10       1.0  0.3624807664646283  0.345200049545646  0.07089456912440542  1.0000
  O   O11       1.0  0.34520230133341556  0.3624854426242551  0.5708965455443362  1.0000
  O   O12       1.0  0.6375181552661431  0.6547979900445998  0.9291046651042976  1.0000
