data_image0
_chemical_formula_structural       Zn2Mo2H36C36N12O8
_chemical_formula_sum              "Zn2 Mo2 H36 C36 N12 O8"
_cell_length_a       9.01801786500329
_cell_length_b       11.71476289445051
_cell_length_c       11.714747713004165
_cell_angle_alpha    119.999939899595
_cell_angle_beta     89.99990489039723
_cell_angle_gamma    90.00002787860917

_space_group_name_H-M_alt    "P 1"
_space_group_IT_number       1

loop_
  _space_group_symop_operation_xyz
  'x, y, z'

loop_
  _atom_site_type_symbol
  _atom_site_label
  _atom_site_symmetry_multiplicity
  _atom_site_fract_x
  _atom_site_fract_y
  _atom_site_fract_z
  _atom_site_occupancy
  Zn  Zn1       1.0  0.994365348707596  0.3333347638371649  0.6666689346499907  1.0000
  Zn  Zn2       1.0  0.0056352380069882  0.6666651273437908  0.33333076612051116  1.0000
  Mo  Mo1       1.0  0.5823313457141667  0.33333286607032864  0.6666665418868687  1.0000
  Mo  Mo2       1.0  0.41766924100041075  0.6666670251106197  0.33333315888363296  1.0000
  H   H1        1.0  0.8512575043552957  0.5675864096789526  0.6430517107990709  1.0000
  H   H2        1.0  0.8512582427276384  0.3569486637654363  0.9245376100759087  1.0000
  H   H3        1.0  0.8512586833640654  0.0754653520291768  0.43241582447647187  1.0000
  H   H4        1.0  0.14874308235674497  0.4324124958223263  0.3569500580063404  1.0000
  H   H5        1.0  0.14873790842264603  0.643050241737086  0.07546159785834303  1.0000
  H   H6        1.0  0.1487385766752993  0.9245345391520702  0.5675855835460408  1.0000
  H   H7        1.0  0.019558122287996596  0.7901963066753837  0.6971514912647264  1.0000
  H   H8        1.0  0.019563053545972795  0.3028479766530482  0.09304623878966112  1.0000
  H   H9        1.0  0.0195609025210359  0.9069560196359557  0.20980639194337397  1.0000
  H   H10       1.0  0.9804413555347508  0.2098025988263927  0.3028485702918999  1.0000
  H   H11       1.0  0.9804397509492943  0.6971548715650329  0.9069557941224742  1.0000
  H   H12       1.0  0.9804419019758012  0.0930438715446016  0.7901933088255149  1.0000
  H   H13       1.0  0.2999821652714516  0.5099459411527647  0.714116189756602  1.0000
  H   H14       1.0  0.2999831146645207  0.28588524914456304  0.7958305488843606  1.0000
  H   H15       1.0  0.299982309265907  0.2041715019172585  0.49005547544818023  1.0000
  H   H16       1.0  0.7000206392251727  0.49005493570701475  0.2858840038517698  1.0000
  H   H17       1.0  0.7000152542678109  0.7141146420367831  0.20416915188775409  1.0000
  H   H18       1.0  0.7000171685547868  0.795828389263448  0.5099467861975169  1.0000
  H   H19       1.0  0.3400853534614611  0.7810264806000973  0.6638862861397996  1.0000
  H   H20       1.0  0.3400880186494746  0.3361106491775487  0.11713804721696158  1.0000
  H   H21       1.0  0.34008253875033734  0.8828620157665409  0.2189734735493116  1.0000
  H   H22       1.0  0.6599152332540399  0.21897341058100042  0.3361125610059048  1.0000
  H   H23       1.0  0.659913676957373  0.6638882563241282  0.8828603070884565  1.0000
  H   H24       1.0  0.6599158301840475  0.11713688973588181  0.7810240271337248  1.0000
  H   H25       1.0  0.41773423396202247  0.7006876750648133  0.7438816172143703  1.0000
  H   H26       1.0  0.417733862755064  0.2561166993138144  0.9568057302805073  1.0000
  H   H27       1.0  0.41773450347496066  0.04319431202596749  0.29931263789119805  1.0000
  H   H28       1.0  0.582267461643468  0.299313201795158  0.2561185763948046  1.0000
  H   H29       1.0  0.5822667239595205  0.7438831918671412  0.043193970489994585  1.0000
  H   H30       1.0  0.5822671921332371  0.956802622117415  0.7006838771104495  1.0000
  H   H31       1.0  0.3126831590450719  0.0126204438792996  0.794519056275412  1.0000
  H   H32       1.0  0.3126838417531133  0.2054815147359363  0.21810195665974416  1.0000
  H   H33       1.0  0.31267986977060497  0.7818997411155523  0.9873798269345001  1.0000
  H   H34       1.0  0.6873163187777391  0.9873824043395204  0.20548212301434893  1.0000
  H   H35       1.0  0.6873156360701244  0.7945193621244397  0.7818982369510437  1.0000
  H   H36       1.0  0.6873173902724331  0.21810015006629163  0.012618166588836695  1.0000
  C   C1        1.0  0.9682787677630383  0.588376332903124  0.6652530804926399  1.0000
  C   C2        1.0  0.9682795178780735  0.3347491737133623  0.9231264354182896  1.0000
  C   C3        1.0  0.9682777691443646  0.07687584183495491  0.411625866532752  1.0000
  C   C4        1.0  0.03172181894878181  0.41162355827738395  0.33474918115225444  1.0000
  C   C5        1.0  0.0317199599453843  0.6652507174677851  0.07687326535302215  1.0000
  C   C6        1.0  0.031721708678169605  0.9231240493460505  0.5883746878633502  1.0000
  C   C7        1.0  0.04931297454442779  0.6980954133754838  0.6915944405574733  1.0000
  C   C8        1.0  0.04931580643573599  0.30840721768923623  0.006503386737826069  1.0000
  C   C9        1.0  0.049312379809030894  0.9934996273161474  0.30190636173167457  1.0000
  C   C10       1.0  0.950687612169453  0.30190349212609396  0.30840562099833585  1.0000
  C   C11       1.0  0.9506858891693283  0.6915956305291857  0.9934977925503219  1.0000
  C   C12       1.0  0.950688206904637  0.006500263864659  0.6980941926636247  1.0000
  C   C13       1.0  0.1969772954464304  0.5518452178214801  0.7014322149576698  1.0000
  C   C14       1.0  0.19697816302872437  0.29856996507827205  0.850414726975842  1.0000
  C   C15       1.0  0.19697633127547218  0.14958756450629093  0.448157204522225  1.0000
  C   C16       1.0  0.8030244001581436  0.44815565903834903  0.29856883227630243  1.0000
  C   C17       1.0  0.8030213147945133  0.7014309117820973  0.14958546663495295  1.0000
  C   C18       1.0  0.803025364329315  0.8504123266743165  0.5518433498722642  1.0000
  C   C19       1.0  0.32237405094327437  0.7595711882756078  0.7442276234030771  1.0000
  C   C20       1.0  0.32237800254343796  0.25577090660307533  0.015343311043501727  1.0000
  C   C21       1.0  0.3223791012267298  0.9846560744743301  0.2404281255708155  1.0000
  C   C22       1.0  0.6776265357722266  0.2404287029054899  0.25577122374262723  1.0000
  C   C23       1.0  0.6776225841727735  0.7442299702573933  0.9846551753168882  1.0000
  C   C24       1.0  0.6776192677046851  0.015343816706867101  0.7595724288260969  1.0000
  C   C25       1.0  0.3086869050714824  0.884119633872146  0.8763471329104887  1.0000
  C   C26       1.0  0.3086875987212139  0.12365341282706768  0.007771551718569481  1.0000
  C   C27       1.0  0.308685541332494  0.9922261156685364  0.11588089814799203  1.0000
  C   C28       1.0  0.691312572752409  0.11587828595055778  0.12365158218185707  1.0000
  C   C29       1.0  0.6913118791042975  0.8763454926751564  0.9922259489636643  1.0000
  C   C30       1.0  0.691311718710544  0.0077737755133072  0.8841170953753376  1.0000
  C   C31       1.0  0.30787047245605936  0.007094710829669299  0.8848320349304187  1.0000
  C   C32       1.0  0.3078691109740177  0.11516669421614271  0.1222614381589651  1.0000
  C   C33       1.0  0.3078684157664071  0.8777373402263178  0.9929050451557014  1.0000
  C   C34       1.0  0.692129005368045  0.9929022233138127  0.11516618732244417  1.0000
  C   C35       1.0  0.6921292579592304  0.8848331969653529  0.8777374089883594  1.0000
  C   C36       1.0  0.6921288442768514  0.12226156527630389  0.007092455528145095  1.0000
  N   N1        1.0  0.06163382104697489  0.498324831953198  0.6722290411151163  1.0000
  N   N2        1.0  0.0616336008448144  0.32777271436673777  0.8260977192357615  1.0000
  N   N3        1.0  0.0616327925367131  0.1739042879259927  0.5016780426828688  1.0000
  N   N4        1.0  0.9383689834468851  0.5016760449061337  0.327773713367641  1.0000
  N   N5        1.0  0.938365876979077  0.6722252054559661  0.17390099585658447  1.0000
  N   N6        1.0  0.9383700119592076  0.8260956032544157  0.49832251171081754  1.0000
  N   N7        1.0  0.19320709139347506  0.6727782108528828  0.7132839081534427  1.0000
  N   N8        1.0  0.1932100296373491  0.286717153094358  0.9594963501178311  1.0000
  N   N9        1.0  0.1932084147830508  0.04050541411985619  0.3272220571172753  1.0000
  N   N10       1.0  0.8067946042124489  0.32722069464864495  0.286715299776766  1.0000
  N   N11       1.0  0.8067905570768017  0.7132847094450411  0.04050433633163649  1.0000
  N   N12       1.0  0.8067932808205993  0.9594954627398237  0.6727798437414946  1.0000
  O   O1        1.0  0.7837126278524238  0.33333381578185584  0.6666668880207424  1.0000
  O   O2        1.0  0.21628906775307397  0.6666670610781225  0.33333330558843227  1.0000
  O   O3        1.0  0.5152567179818845  0.49649926200828515  0.7346037143292533  1.0000
  O   O4        1.0  0.5152588326725648  0.2653949151204316  0.7618963031514951  1.0000
  O   O5        1.0  0.5152568846712812  0.238103471342079  0.5035001155544592  1.0000
  O   O6        1.0  0.4847427598422768  0.5035016148522331  0.26539562565674396  1.0000
  O   O7        1.0  0.48474286293152596  0.7346039903808047  0.23810461202830865  1.0000
  O   O8        1.0  0.48474148426126346  0.7618954341600456  0.4964990923781797  1.0000
