data_image0
_chemical_formula_structural       V8Zn4H56C40N16O24
_chemical_formula_sum              "V8 Zn4 H56 C40 N16 O24"
_cell_length_a       9.184513782479964
_cell_length_b       10.559076993404327
_cell_length_c       18.41111291240708
_cell_angle_alpha    97.20158541293023
_cell_angle_beta     89.98544072292678
_cell_angle_gamma    115.78784275239643

_space_group_name_H-M_alt    "P 1"
_space_group_IT_number       1

loop_
  _space_group_symop_operation_xyz
  'x, y, z'

loop_
  _atom_site_type_symbol
  _atom_site_label
  _atom_site_symmetry_multiplicity
  _atom_site_fract_x
  _atom_site_fract_y
  _atom_site_fract_z
  _atom_site_occupancy
  V   V1        1.0  0.9185579060685852  0.8530177207430397  0.3345880794568359  1.0000
  V   V2        1.0  0.9343273114728134  0.8530923283399547  0.8344778656358758  1.0000
  V   V3        1.0  0.22447918397636366  0.7612630714160105  0.388576011113237  1.0000
  V   V4        1.0  0.5367046285184713  0.7613474106037188  0.8885281039954196  1.0000
  V   V5        1.0  0.310407516774454  0.4956151898926109  0.3190848135878781  1.0000
  V   V6        1.0  0.18509828769666825  0.4956489015085167  0.8193250857042785  1.0000
  V   V7        1.0  0.6039298775271503  0.694162961940215  0.22438136625191873  1.0000
  V   V8        1.0  0.09048754734685367  0.6941500675403133  0.7245039425829631  1.0000
  Zn  Zn1       1.0  0.25996169950579434  0.781892898817638  0.5686857583782583  1.0000
  Zn  Zn2       1.0  0.5220151641220951  0.781822126466693  0.0686510223784325  1.0000
  Zn  Zn3       1.0  0.994751118024979  0.201084767193656  0.3532788583148304  1.0000
  Zn  Zn4       1.0  0.2062777749073206  0.2011314825152652  0.8533522984834578  1.0000
  H   H1        1.0  0.13028926306741792  0.4686802393583847  0.48133172610193514  1.0000
  H   H2        1.0  0.33862367429870943  0.4687279159200842  0.9813823885274147  1.0000
  H   H3        1.0  0.07463154654848843  0.4246298266594124  0.6268897841049326  1.0000
  H   H4        1.0  0.3499310765288399  0.42465462003993076  0.1269639556246247  1.0000
  H   H5        1.0  0.9209572035957121  0.026772609570173193  0.4919132484186762  1.0000
  H   H6        1.0  0.10594937127888929  0.0268353356526632  0.991950355366534  1.0000
  H   H7        1.0  0.012697492589104816  0.20140521997083027  0.689909413558681  1.0000
  H   H8        1.0  0.188795088306442  0.20158426220001496  0.1899716340030295  1.0000
  H   H9        1.0  0.9438947132995069  0.0348226308290904  0.6343994758310105  1.0000
  H   H10       1.0  0.09096247337418359  0.03493450705983751  0.13451674036385702  1.0000
  H   H11       1.0  0.7398901334950025  0.20118380535537028  0.6609428053946759  1.0000
  H   H12       1.0  0.4613879024190196  0.2013892999391729  0.16093075566102044  1.0000
  H   H13       1.0  0.6761872843650352  0.03225070585860831  0.6087143750980674  1.0000
  H   H14       1.0  0.35615011425157656  0.03246529237982539  0.1086914524163873  1.0000
  H   H15       1.0  0.5691163455308939  0.9695559047029009  0.7232067379634446  1.0000
  H   H16       1.0  0.40077392396889194  0.9698428769891054  0.22316885912540133  1.0000
  H   H17       1.0  0.7513449174812051  0.9541915229413074  0.7284328703311544  1.0000
  H   H18       1.0  0.20303902558313078  0.9541715562152717  0.2283768175042269  1.0000
  H   H19       1.0  0.7410478913999866  0.07361062158925342  0.8434223314019534  1.0000
  H   H20       1.0  0.33232614043645003  0.0736086155883129  0.3433825804448247  1.0000
  H   H21       1.0  0.8802838932168767  0.2130718173818735  0.7986998338177786  1.0000
  H   H22       1.0  0.33263492823679996  0.21308312459779438  0.2986795571542444  1.0000
  H   H23       1.0  0.8090585904456589  0.4175254482378747  0.7831041806732275  1.0000
  H   H24       1.0  0.6085217958640213  0.41767539512080987  0.2832018058545317  1.0000
  H   H25       1.0  0.530273139744608  0.45707339927227497  0.808057898551418  1.0000
  H   H26       1.0  0.9267794789533638  0.4571974226961828  0.3081980092856896  1.0000
  H   H27       1.0  0.43531981266037423  0.03771503646233039  0.8387674155949443  1.0000
  H   H28       1.0  0.602172403302795  0.03784817580277179  0.3388504332054012  1.0000
  H   H29       1.0  0.2527839102902334  0.019672885801156798  0.6966384797052427  1.0000
  H   H30       1.0  0.766359890578421  0.0196395760969992  0.1966349423170826  1.0000
  H   H31       1.0  0.3574347000119147  0.29938886648277213  0.6705980429421885  1.0000
  H   H32       1.0  0.9415414381809627  0.29934046546431153  0.17058412330813166  1.0000
  H   H33       1.0  0.4123322927500154  0.0527351046156639  0.48140333570501787  1.0000
  H   H34       1.0  0.6402291304869507  0.05260885698356792  0.981372955329313  1.0000
  H   H35       1.0  0.4396251441694545  0.4180599238418381  0.5569088789298391  1.0000
  H   H36       1.0  0.978325953663493  0.4179350372115067  0.0569306143147656  1.0000
  H   H37       1.0  0.422077269178999  0.3136057355094408  0.4720727790562975  1.0000
  H   H38       1.0  0.8916494437005369  0.3135100844829282  0.9720797246155327  1.0000
  H   H39       1.0  0.6877416799031552  0.31170579966250495  0.5000459158856998  1.0000
  H   H40       1.0  0.6240479363280683  0.3116997393696793  0.9998846890138537  1.0000
  H   H41       1.0  0.7121550034708832  0.4181992412778044  0.5849962452663748  1.0000
  H   H42       1.0  0.7058921909442121  0.41812743785371254  0.0848697744065419  1.0000
  H   H43       1.0  0.8548054752556451  0.5336757391652611  0.46778858497294357  1.0000
  H   H44       1.0  0.6795176203860435  0.5337137244442758  0.9676015828145595  1.0000
  H   H45       1.0  0.6636358749505646  0.523009754710081  0.44300655101855574  1.0000
  H   H46       1.0  0.8601012983596377  0.522963583783195  0.9429928757985807  1.0000
  H   H47       1.0  0.8760480843683423  0.6811176412028317  0.584141315419842  1.0000
  H   H48       1.0  0.8051160090804784  0.680950975080627  0.0840298191486042  1.0000
  H   H49       1.0  0.8518779149337875  0.757249905540043  0.5065464681976694  1.0000
  H   H50       1.0  0.905560437337897  0.7571931050210593  0.006487301748052186  1.0000
  H   H51       1.0  0.5590876261328789  0.7495684574689534  0.48358843477581104  1.0000
  H   H52       1.0  0.19097801203425754  0.7500564041043488  0.9837062442867508  1.0000
  H   H53       1.0  0.4044784394814798  0.6856942662303851  0.6987278347215451  1.0000
  H   H54       1.0  0.2812595357328789  0.6859198125229183  0.1988224884770204  1.0000
  H   H55       1.0  0.6792603384210805  0.640330025222191  0.6810797357346274  1.0000
  H   H56       1.0  0.9610952327381811  0.6405189893419346  0.18110064332996254  1.0000
  C   C1        1.0  0.07943259981878732  0.37049851580194115  0.5050806285084803  1.0000
  C   C2        1.0  0.291260941019047  0.37055116810011407  0.005135736246650389  1.0000
  C   C3        1.0  0.053518861371372926  0.3506098012809176  0.5771047385267638  1.0000
  C   C4        1.0  0.2971657249935262  0.3506728300763768  0.07716126047787242  1.0000
  C   C5        1.0  0.973066695088775  0.1411338232864097  0.5084087066666285  1.0000
  C   C6        1.0  0.16821995701677386  0.14118512935302618  0.008465009373189496  1.0000
  C   C7        1.0  0.9304634290245488  0.13396052636884548  0.642796013704782  1.0000
  C   C8        1.0  0.20355648339312174  0.13408349372145514  0.1428702192945579  1.0000
  C   C9        1.0  0.7543285254115089  0.10224598060496252  0.6564440570746586  1.0000
  C   C10       1.0  0.3480147166985503  0.102430321232255  0.15644352989885854  1.0000
  C   C11       1.0  0.7014692244460007  0.0310783406946271  0.725574752480732  1.0000
  C   C12       1.0  0.3297794405961554  0.0312071119516162  0.22555084909367912  1.0000
  C   C13       1.0  0.7537361951772185  0.13358986988197327  0.797388014901003  1.0000
  C   C14       1.0  0.37973746714715867  0.1336475522602569  0.2973751410280485  1.0000
  C   C15       1.0  0.6895365615141315  0.34617663192553033  0.7977312296560228  1.0000
  C   C16       1.0  0.6566219704810834  0.34632625283646945  0.2978627714735111  1.0000
  C   C17       1.0  0.552050600325387  0.3645371534445658  0.8104025804183552  1.0000
  C   C18       1.0  0.8124485564369834  0.364685288294254  0.3105638129761559  1.0000
  C   C19       1.0  0.4963558515613684  0.14701665297815228  0.8277989999987484  1.0000
  C   C20       1.0  0.6505046111205671  0.1471479374749123  0.32787834867479404  1.0000
  C   C21       1.0  0.30095371400338417  0.0683900671249305  0.6481235286064405  1.0000
  C   C22       1.0  0.7669760829650085  0.06834003176037129  0.14810936037148545  1.0000
  C   C23       1.0  0.3527905810567233  0.20674246298321458  0.6358969978746175  1.0000
  C   C24       1.0  0.8535508017311172  0.2066924932199399  0.13589421638261004  1.0000
  C   C25       1.0  0.3824559824109315  0.08115487560465338  0.5363265701706226  1.0000
  C   C26       1.0  0.6984934816936955  0.08106605495882489  0.0362920727529499  1.0000
  C   C27       1.0  0.476054974014879  0.339861651210569  0.5284046629438636  1.0000
  C   C28       1.0  0.8637487966427813  0.3397529158529479  0.02839197151833159  1.0000
  C   C29       1.0  0.6605534929756515  0.3965206429258287  0.5282118096128556  1.0000
  C   C30       1.0  0.7360100481516483  0.3964603153472978  0.02810920116775859  1.0000
  C   C31       1.0  0.7418027701946032  0.5292116191059008  0.48989329055389425  1.0000
  C   C32       1.0  0.787919736585806  0.5291768481551529  0.9898029980242031  1.0000
  C   C33       1.0  0.7915276124724142  0.6706439650710434  0.5391948380748772  1.0000
  C   C34       1.0  0.8794133407368961  0.6706306738298977  0.0391446356034564  1.0000
  C   C35       1.0  0.5512479378062592  0.7264364860420544  0.5396555248621766  1.0000
  C   C36       1.0  0.175570686713165  0.726899985710581  0.039768316899262884  1.0000
  C   C37       1.0  0.4737675983420573  0.688924304205301  0.6508041892771886  1.0000
  C   C38       1.0  0.21530737711074724  0.689216094460903  0.150891835041044  1.0000
  C   C39       1.0  0.6086954307942989  0.6651349548384573  0.6428990017722357  1.0000
  C   C40       1.0  0.056584032378204134  0.6654281974653459  0.1429558895792127  1.0000
  N   N1        1.0  0.02937510200764145  0.23900129753315014  0.46273787566340735  1.0000
  N   N2        1.0  0.20986845760035067  0.23904319597534135  0.9627964209984512  1.0000
  N   N3        1.0  0.9869059713238926  0.2054745111576395  0.5781134081706156  1.0000
  N   N4        1.0  0.21860434390610103  0.2055365029023122  0.07817356316676441  1.0000
  N   N5        1.0  0.6521681397108878  0.2086938499455897  0.8092776965472127  1.0000
  N   N6        1.0  0.5564180609344331  0.20883182396640618  0.3093684183293632  1.0000
  N   N7        1.0  0.43274453047189343  0.23933403633003536  0.829070841960885  1.0000
  N   N8        1.0  0.8064819608841843  0.23945122547060285  0.3291961728715762  1.0000
  N   N9        1.0  0.31990513859825853  0.9909441972859765  0.58539053898825  1.0000
  N   N10       1.0  0.670710537753969  0.9908915825506385  0.08537207396905441  1.0000
  N   N11       1.0  0.4029352268187695  0.21256200519782453  0.5650229645068593  1.0000
  N   N12       1.0  0.8094005519221171  0.2124744110359913  0.06500075682405541  1.0000
  N   N13       1.0  0.65581639970884  0.6892458626198702  0.5725803417460896  1.0000
  N   N14       1.0  0.03370774118977254  0.6895498175499811  0.0726347854552287  1.0000
  N   N15       1.0  0.43942629682319273  0.7278236890949045  0.5861506985912827  1.0000
  N   N16       1.0  0.28867299239132654  0.7282038128010555  0.08626148128384872  1.0000
  O   O1        1.0  0.7998480702753524  0.7203236081358992  0.2584998004465575  1.0000
  O   O2        1.0  0.9206459769856394  0.7205453287464961  0.7583750947081144  1.0000
  O   O3        1.0  0.5658790214694989  0.8252790108385212  0.2588994350618279  1.0000
  O   O4        1.0  0.25970076415166693  0.8252725698347874  0.7589897922243766  1.0000
  O   O5        1.0  0.451690496462838  0.5282390478492403  0.24739593390479803  1.0000
  O   O6        1.0  0.07630995521564907  0.5282829688176208  0.7477564634973037  1.0000
  O   O7        1.0  0.16070520901107696  0.3288017859303735  0.296268209212613  1.0000
  O   O8        1.0  0.16775570489691202  0.3287940491142861  0.7964766324031842  1.0000
  O   O9        1.0  0.40019690256733753  0.5077829431224359  0.39753460111411  1.0000
  O   O10       1.0  0.10788726316247482  0.5080132033547073  0.8978955768519229  1.0000
  O   O11       1.0  0.2186166396038089  0.6155063584063285  0.32419937264830884  1.0000
  O   O12       1.0  0.39680483738870015  0.6154542321162992  0.8242184920083346  1.0000
  O   O13       1.0  0.4073641530848919  0.8903193958849088  0.40246836323670726  1.0000
  O   O14       1.0  0.4827674166015326  0.8903043906202012  0.902542693505673  1.0000
  O   O15       1.0  0.09441397685352376  0.8266047835112003  0.3514417896749364  1.0000
  O   O16       1.0  0.7320014102817679  0.826726415868066  0.8512406133354633  1.0000
  O   O17       1.0  0.15980419000606358  0.7029906179399458  0.46952166043124793  1.0000
  O   O18       1.0  0.5433131607188316  0.7030628637360863  0.9694456044123784  1.0000
  O   O19       1.0  0.9785823807545314  0.017805919369287392  0.3112346033875398  1.0000
  O   O20       1.0  0.0393924194285802  0.017887653798453595  0.8111722328222584  1.0000
  O   O21       1.0  0.8166692951449405  0.8387705808424639  0.4080706456225301  1.0000
  O   O22       1.0  0.02164568283449606  0.8386428013753431  0.9079734040321698  1.0000
  O   O23       1.0  0.08719745539152518  0.6824026237894499  0.63171571839775  1.0000
  O   O24       1.0  0.5959620968381357  0.68267629182737  0.1315939146085654  1.0000
