data_image0
_chemical_formula_structural       Nd2H42C54O12
_chemical_formula_sum              "Nd2 H42 C54 O12"
_cell_length_a       7.731083849619504
_cell_length_b       13.306035026748926
_cell_length_c       13.3389
_cell_angle_alpha    116.33786600790108
_cell_angle_beta     101.43030708194424
_cell_angle_gamma    101.02187109861705

_space_group_name_H-M_alt    "P 1"
_space_group_IT_number       1

loop_
  _space_group_symop_operation_xyz
  'x, y, z'

loop_
  _atom_site_type_symbol
  _atom_site_label
  _atom_site_symmetry_multiplicity
  _atom_site_fract_x
  _atom_site_fract_y
  _atom_site_fract_z
  _atom_site_occupancy
  Nd  Nd1       1.0  0.0031074318389769998  3.36080312238e-05  0.00038154132476359996  1.0000
  Nd  Nd2       1.0  0.5030640351523344  0.9999910495621904  0.0003449769555174346  1.0000
  H   H1        1.0  0.43350576805042346  0.6490276859910864  0.8245051874497662  1.0000
  H   H2        1.0  0.7851297492420173  0.1751739029732633  0.350267295276538  1.0000
  H   H3        1.0  0.6083251802725229  0.1753056818325476  0.8242301549074753  1.0000
  H   H4        1.0  0.11006078103942221  0.8251302319324623  0.1755086214052285  1.0000
  H   H5        1.0  0.9331907971362553  0.824608423026568  0.6486877121264814  1.0000
  H   H6        1.0  0.2842193798761983  0.3507015746962807  0.17555789601439645  1.0000
  H   H7        1.0  0.7622826528180581  0.6154957150453981  0.9659427070467502  1.0000
  H   H8        1.0  0.1460943766763663  0.3505361878057727  0.38472959708283844  1.0000
  H   H9        1.0  0.7957926298248807  0.0341563727890062  0.6507233627093143  1.0000
  H   H10       1.0  0.2954037288936746  0.6497290325374792  0.034362241905931484  1.0000
  H   H11       1.0  0.26187170508696767  0.9657692295544749  0.6163943258160105  1.0000
  H   H12       1.0  0.6468177923130438  0.3844997566261625  0.35044386057456484  1.0000
  H   H13       1.0  0.2704034852793953  0.4567773654670689  0.7416398529920586  1.0000
  H   H14       1.0  0.8141012114433864  0.2846732908198248  0.5424155681889077  1.0000
  H   H15       1.0  0.5285373341016281  0.2581220617287059  0.7147499420998147  1.0000
  H   H16       1.0  0.029024437736545422  0.7152337386643027  0.2577905034096021  1.0000
  H   H17       1.0  0.770558832421109  0.741964505395913  0.45660357765811455  1.0000
  H   H18       1.0  0.3136569732835  0.5430765987045874  0.2847062547877073  1.0000
  H   H19       1.0  0.07110572456682718  0.2676782400815085  0.7055532766285781  1.0000
  H   H20       1.0  0.8044150151977901  0.4375677223552827  0.7315576330469613  1.0000
  H   H21       1.0  0.3653317338059096  0.2943692078287796  0.5614360950762318  1.0000
  H   H22       1.0  0.8665544424309954  0.5621473875820939  0.2938355312135954  1.0000
  H   H23       1.0  0.5709730373525304  0.7057721934520558  0.2671234860664527  1.0000
  H   H24       1.0  0.3033724261727357  0.7322332115119821  0.43759521991263756  1.0000
  H   H25       1.0  0.1783542700736973  0.17704976176884907  0.8250571762975343  1.0000
  H   H26       1.0  0.001556232865347258  0.647764731554453  0.8227320532962282  1.0000
  H   H27       1.0  0.3529812500763256  0.1751915914107514  0.3517669433977631  1.0000
  H   H28       1.0  0.8537636006345365  0.3520326296172414  0.17465860355822835  1.0000
  H   H29       1.0  0.6776947894164351  0.8248737495888889  0.17653838341514233  1.0000
  H   H30       1.0  0.5010400375815749  0.8229377501058436  0.6477845728603812  1.0000
  H   H31       1.0  0.4906043455994933  0.2779384182463289  0.9793711834142586  1.0000
  H   H32       1.0  0.21161556576051047  0.7014013805488162  0.7223747224325551  1.0000
  H   H33       1.0  0.5109561417650498  0.0211925169541729  0.2991829181078672  1.0000
  H   H34       1.0  0.010477900776926714  0.2986966840601752  0.02079558578607534  1.0000
  H   H35       1.0  0.9897067038480712  0.9788153366236259  0.2778388691368435  1.0000
  H   H36       1.0  0.7123607254913793  0.7221145408470662  0.7013779987372076  1.0000
  H   H37       1.0  0.6925123673967732  0.4666996944758708  0.014724172887547094  1.0000
  H   H38       1.0  0.2246315430635164  0.5481195722323662  0.5337480496176213  1.0000
  H   H39       1.0  0.6775790216699774  0.985710289556387  0.4528749286451585  1.0000
  H   H40       1.0  0.17674175304302508  0.45219163804834756  0.9857168122447322  1.0000
  H   H41       1.0  0.1920602333021932  0.014202930880856  0.4669338399010741  1.0000
  H   H42       1.0  0.7255503399291996  0.5333178877425482  0.5481101329167545  1.0000
  C   C1        1.0  0.7117819268322947  0.7782682544959414  0.9150081493558562  1.0000
  C   C2        1.0  0.9340321581929913  0.1367953001559101  0.22162633585558214  1.0000
  C   C3        1.0  0.7958610245654612  0.0846948919573691  0.863617531959676  1.0000
  C   C4        1.0  0.2970529149244924  0.8634071262342573  0.08504517980713194  1.0000
  C   C5        1.0  0.2112706782502797  0.9152165596361215  0.7787750824837404  1.0000
  C   C6        1.0  0.4334966666138341  0.2216016292694505  0.13674441182605795  1.0000
  C   C7        1.0  0.5740678880650023  0.6650728676363045  0.8760040640740673  1.0000
  C   C8        1.0  0.9092630071285085  0.2108461748549786  0.33456315918711976  1.0000
  C   C9        1.0  0.697241002197643  0.1237721880554901  0.7892232348337843  1.0000
  C   C10       1.0  0.19842152595955298  0.7894385027695137  0.12406180595019119  1.0000
  C   C11       1.0  0.07363053959640092  0.8761259972098827  0.6652508993132927  1.0000
  C   C12       1.0  0.4088325001982724  0.3347306844885196  0.21099401931271444  1.0000
  C   C13       1.0  0.6194762325153249  0.5887888277043984  0.9092013539602634  1.0000
  C   C14       1.0  0.03037758360357398  0.3204189697171103  0.41113991620074597  1.0000
  C   C15       1.0  0.7096607074727146  0.0908035938437948  0.6801791237266244  1.0000
  C   C16       1.0  0.20984126792387056  0.6798267933449011  0.09092970752285384  1.0000
  C   C17       1.0  0.11910237117471201  0.9091388125153016  0.5891993495362656  1.0000
  C   C18       1.0  0.5305941052815866  0.411112895248479  0.32041590807097736  1.0000
  C   C19       1.0  0.4959162423673717  0.4762178426880723  0.8819247508367811  1.0000
  C   C20       1.0  0.019393517964679967  0.4056232886741284  0.5235904624528018  1.0000
  C   C21       1.0  0.6137643423023036  0.1181835262312134  0.5946218897244934  1.0000
  C   C22       1.0  0.11365340322600291  0.5945216502942046  0.11805777568929436  1.0000
  C   C23       1.0  0.9957952979651381  0.8817880660497436  0.4762913157478367  1.0000
  C   C24       1.0  0.5196027540795994  0.5237006842804135  0.4056733947062341  1.0000
  C   C25       1.0  0.3191023494667106  0.4183651546184919  0.7944807507306494  1.0000
  C   C26       1.0  0.9009432547616569  0.3759588945851604  0.5810692515872091  1.0000
  C   C27       1.0  0.5244363057052297  0.205504266733648  0.6237216495233824  1.0000
  C   C28       1.0  0.024785775430075308  0.6240003157895515  0.20515634495875193  1.0000
  C   C29       1.0  0.8190556079123252  0.794574340594103  0.41816634877292824  1.0000
  C   C30       1.0  0.40065281033395905  0.58151003567815  0.37598406682743507  1.0000
  C   C31       1.0  0.2068868812762759  0.311419977145178  0.7739267791615846  1.0000
  C   C32       1.0  0.8959281650593097  0.4622324795883159  0.6880333979099335  1.0000
  C   C33       1.0  0.4328039566010559  0.22613871348508502  0.5371891955684376  1.0000
  C   C34       1.0  0.9335055259336256  0.537594067505232  0.22569337173626283  1.0000
  C   C35       1.0  0.7067114302472957  0.7739575822801611  0.3110388404851464  1.0000
  C   C36       1.0  0.3953391699823213  0.6884826302295721  0.46228737765658684  1.0000
  C   C37       1.0  0.2670761009546396  0.260236714430377  0.8405050816796305  1.0000
  C   C38       1.0  0.006952064968416528  0.5800675436010181  0.7395867600149871  1.0000
  C   C39       1.0  0.4263651206517308  0.1597663894994881  0.4196744374373155  1.0000
  C   C40       1.0  0.9268609636052928  0.41981737533624397  0.15931432212590832  1.0000
  C   C41       1.0  0.7665869423630411  0.8403166399376403  0.25986448356081854  1.0000
  C   C42       1.0  0.5066100358548127  0.7397428376474409  0.5800886441513242  1.0000
  C   C43       1.0  0.44201398528952746  0.3169608801882404  0.9273466047458001  1.0000
  C   C44       1.0  0.12438430120704418  0.6103112340177148  0.6831368477980534  1.0000
  C   C45       1.0  0.5145035857651266  0.0730647443091215  0.3900350686750542  1.0000
  C   C46       1.0  0.014236617226686097  0.3897514537163005  0.07270629674776796  1.0000
  C   C47       1.0  0.9414608839999516  0.9269554911749225  0.3168572542186539  1.0000
  C   C48       1.0  0.6247870022616482  0.6830611241395559  0.6103254393249744  1.0000
  C   C49       1.0  0.555857915751389  0.42307735436524757  0.9471870857211189  1.0000
  C   C50       1.0  0.13203102440496647  0.5241305133113698  0.5770903317064439  1.0000
  C   C51       1.0  0.6085370755961108  0.0531917847915366  0.4764913684751805  1.0000
  C   C52       1.0  0.10801175189910586  0.4760692598131797  0.05299350125108052  1.0000
  C   C53       1.0  0.05550126482364695  0.9467789230675407  0.4231354759108827  1.0000
  C   C54       1.0  0.6325714929897615  0.576928730368806  0.5241117661918083  1.0000
  O   O1        1.0  0.8834952401701415  0.800271786308933  0.965824939875816  1.0000
  O   O2        1.0  0.0829697989371496  0.1660785084170158  0.19972843003196067  1.0000
  O   O3        1.0  0.9160014371221549  0.0334338001176278  0.834829845170951  1.0000
  O   O4        1.0  0.4166627724646189  0.8341071139575362  0.03383677108533335  1.0000
  O   O5        1.0  0.382673423662446  0.9665254102570842  0.8013425632030435  1.0000
  O   O6        1.0  0.583215242205476  0.1996113637845767  0.1656147479474583  1.0000
  O   O7        1.0  0.6587810664774095  0.857340876597803  0.896214560257221  1.0000
  O   O8        1.0  0.802795898822147  0.0384369746610602  0.14266047329637394  1.0000
  O   O9        1.0  0.7628345999516739  0.10388065567855159  0.9614959962699388  1.0000
  O   O10       1.0  0.2640330677702991  0.9616858537604145  0.10426631234513915  1.0000
  O   O11       1.0  0.15889510985429203  0.8959529667899985  0.8573845560238312  1.0000
  O   O12       1.0  0.3015526924776779  0.1425829569019257  0.03878413942727123  1.0000
