data_image0
_chemical_formula_structural       Ag4H32C40N12O24
_chemical_formula_sum              "Ag4 H32 C40 N12 O24"
_cell_length_a       7.387303291516821
_cell_length_b       9.189564494154231
_cell_length_c       18.051812901045004
_cell_angle_alpha    89.99975151853944
_cell_angle_beta     90.00003188035433
_cell_angle_gamma    110.18939643669185

_space_group_name_H-M_alt    "P 1"
_space_group_IT_number       1

loop_
  _space_group_symop_operation_xyz
  'x, y, z'

loop_
  _atom_site_type_symbol
  _atom_site_label
  _atom_site_symmetry_multiplicity
  _atom_site_fract_x
  _atom_site_fract_y
  _atom_site_fract_z
  _atom_site_occupancy
  Ag  Ag1       1.0  0.5483192673187887  0.16834075070963186  0.8254726438399373  1.0000
  Ag  Ag2       1.0  0.45168190696174554  0.3316621558627516  0.3254739193605758  1.0000
  Ag  Ag3       1.0  0.45168120579247517  0.8316587017534758  0.1745267580490406  1.0000
  Ag  Ag4       1.0  0.5483137895996394  0.6683419348480582  0.6745288062886914  1.0000
  H   H1        1.0  0.6113381121971457  0.37112985285769173  0.950932403104595  1.0000
  H   H2        1.0  0.3886631016797323  0.12886957234210428  0.45093466458542514  1.0000
  H   H3        1.0  0.38866592390031235  0.6288684398569657  0.0490653369030909  1.0000
  H   H4        1.0  0.6113368735310941  0.871128720680943  0.5490669531487029  1.0000
  H   H5        1.0  0.5384592257002722  0.3915834964725633  0.08425930870917848  1.0000
  H   H6        1.0  0.4615449875523153  0.10841468795729266  0.5842603620977157  1.0000
  H   H7        1.0  0.46154124741239844  0.6084159559956746  0.9157389852578389  1.0000
  H   H8        1.0  0.5384571970160578  0.8915824454209584  0.4157407016769382  1.0000
  H   H9        1.0  0.30549798799049915  0.1601856624717328  0.1481378866890779  1.0000
  H   H10       1.0  0.6945028580747347  0.3398107708874036  0.6481423593396227  1.0000
  H   H11       1.0  0.6945011314977448  0.8398137901155565  0.8518581914338623  1.0000
  H   H12       1.0  0.3054984707605257  0.6601875220165923  0.3518614742385822  1.0000
  H   H13       1.0  0.07976324978490375  0.896178457088844  0.1410230871900495  1.0000
  H   H14       1.0  0.9202367472018408  0.6038213300622387  0.6410253567766089  1.0000
  H   H15       1.0  0.9202363675988678  0.10382215492053598  0.8589746528146234  1.0000
  H   H16       1.0  0.07976273011136205  0.3961758035310153  0.3589762609587409  1.0000
  H   H17       1.0  0.9837381815316135  0.6505635414421959  0.9321107577109942  1.0000
  H   H18       1.0  0.016262212960349038  0.8494393460098449  0.43211190097716917  1.0000
  H   H19       1.0  0.016262291581064355  0.34943591102604177  0.06788753625601629  1.0000
  H   H20       1.0  0.983734697163328  0.15056126619658272  0.5678902707150684  1.0000
  H   H21       1.0  0.9919136896786538  0.6490312283999058  0.1804881905908502  1.0000
  H   H22       1.0  0.008090408149946757  0.850971671172388  0.6804908299201315  1.0000
  H   H23       1.0  0.008087779231381322  0.3509705429356201  0.8195084414907824  1.0000
  H   H24       1.0  0.9919115586513951  0.1490312595698384  0.319510787809115  1.0000
  H   H25       1.0  0.7649202342900382  0.5038584271249815  0.1622203544530834  1.0000
  H   H26       1.0  0.235080346893426  0.996145801463527  0.6622216155328147  1.0000
  H   H27       1.0  0.23508223041174853  0.4961456630573052  0.837779047431013  1.0000
  H   H28       1.0  0.7649165632309476  0.0038548107454659  0.3377800021984427  1.0000
  H   H29       1.0  0.7857705294131139  0.7051372319194796  0.1621974232009364  1.0000
  H   H30       1.0  0.2142282003052074  0.7948658375661495  0.6621974601025755  1.0000
  H   H31       1.0  0.21423414464621968  0.29486569861801115  0.8378014247236933  1.0000
  H   H32       1.0  0.7857697056158345  0.20513709350755957  0.3378030497042772  1.0000
  C   C1        1.0  0.5036538586764507  0.2746820833575113  0.9790454633885446  1.0000
  C   C2        1.0  0.49634877758419543  0.2253205596642474  0.47904698207960905  1.0000
  C   C3        1.0  0.49634967952126624  0.7253150499196509  0.0209539385033111  1.0000
  C   C4        1.0  0.5036511976259276  0.7746777333562275  0.5209551896154991  1.0000
  C   C5        1.0  0.4634997518693283  0.28492191460796323  0.05448290714309679  1.0000
  C   C6        1.0  0.5364991224023825  0.21507654613481716  0.5544848501849984  1.0000
  C   C7        1.0  0.5365034284978236  0.715077537642699  0.945515386824205  1.0000
  C   C8        1.0  0.4635003549108133  0.7849205874584299  0.44551676755035163  1.0000
  C   C9        1.0  0.33572331983194204  0.157665138072737  0.0891870268799408  1.0000
  C   C10       1.0  0.664278671562208  0.3423341603404992  0.5891898256377032  1.0000
  C   C11       1.0  0.6642771532821358  0.8423343144006381  0.9108101591651162  1.0000
  C   C12       1.0  0.3357203078519574  0.6576618138178246  0.4108129000208294  1.0000
  C   C13       1.0  0.1122095958547788  0.8883392632985119  0.08269543956526348  1.0000
  C   C14       1.0  0.8877872038628639  0.6116564266472082  0.5826993468727224  1.0000
  C   C15       1.0  0.8877903793616684  0.1116590297450628  0.9173017464810155  1.0000
  C   C16       1.0  0.1122122734482289  0.38834070693834377  0.4173039327455753  1.0000
  C   C17       1.0  0.02203253873339853  0.7545253308586837  0.042147848862121896  1.0000
  C   C18       1.0  0.9779651418664415  0.7454788510004136  0.5421498196190484  1.0000
  C   C19       1.0  0.9779670786489661  0.24547528114556622  0.9578509990645115  1.0000
  C   C20       1.0  0.022032266154866417  0.25452292063580734  0.4578523520719672  1.0000
  C   C21       1.0  0.058690347876797916  0.7530177546181136  0.965220794061551  1.0000
  C   C22       1.0  0.9413136656792387  0.7469871447055495  0.4652223604030182  1.0000
  C   C23       1.0  0.941314684015218  0.24698285695356498  0.03477749990468479  1.0000
  C   C24       1.0  0.05868509597070221  0.25301462682701736  0.5347787033661787  1.0000
  C   C25       1.0  0.18147163137204103  0.8834170948249279  0.9307210819406603  1.0000
  C   C26       1.0  0.8185318317297713  0.6165834863109507  0.43072346242605863  1.0000
  C   C27       1.0  0.8185310511009831  0.11658119800877383  0.0692744422229623  1.0000
  C   C28       1.0  0.18146507839460918  0.3834171258980418  0.5692781553051915  1.0000
  C   C29       1.0  0.28378983091776183  0.022931360954146395  0.9700266776324112  1.0000
  C   C30       1.0  0.7162140417788693  0.47706788711285936  0.4700299061903904  1.0000
  C   C31       1.0  0.7162155588083364  0.9770669316568572  0.029969954453456203  1.0000
  C   C32       1.0  0.2837850777016513  0.5229315654461927  0.5299722655033533  1.0000
  C   C33       1.0  0.2427211404785155  0.021338865490982097  0.047799633785395194  1.0000
  C   C34       1.0  0.7572823095228287  0.4786608162687711  0.5478032608921453  1.0000
  C   C35       1.0  0.7572828956189426  0.9786594272236755  0.9521981062222976  1.0000
  C   C36       1.0  0.2427185214155045  0.5213363172079964  0.4522000187262877  1.0000
  C   C37       1.0  0.8575173601023778  0.6218097084742097  0.1488359835222894  1.0000
  C   C38       1.0  0.1424814035052862  0.8781934847974069  0.6488380378573948  1.0000
  C   C39       1.0  0.1424863181616942  0.37819090320368787  0.8511628644047775  1.0000
  C   C40       1.0  0.8575160045153182  0.12180828683624158  0.3511646877946006  1.0000
  N   N1        1.0  0.4181254129116425  0.14909885668701858  0.9378098446028316  1.0000
  N   N2        1.0  0.5818736248942215  0.3509018497417102  0.4378122136453229  1.0000
  N   N3        1.0  0.5818791210827429  0.850900595454867  0.06218844936461919  1.0000
  N   N4        1.0  0.4181217915358602  0.649095284172759  0.562190512011554  1.0000
  N   N5        1.0  0.19450273282213698  0.8729974248991038  0.8502006502148092  1.0000
  N   N6        1.0  0.805506349030985  0.6270039018280329  0.3502041129428477  1.0000
  N   N7        1.0  0.8054958887670763  0.1270008682532549  0.1497965358313138  1.0000
  N   N8        1.0  0.194493766243383  0.3729978695854824  0.6497991666704265  1.0000
  N   N9        1.0  0.6983530141196681  0.0234500180757635  0.7054815465955571  1.0000
  N   N10       1.0  0.30164561720547317  0.47655052205461607  0.2054813637875696  1.0000
  N   N11       1.0  0.30165180000460623  0.9765563908573257  0.2945178552862515  1.0000
  N   N12       1.0  0.6983474498077414  0.5234442931295787  0.7945169301837466  1.0000
  O   O1        1.0  0.8952848773026929  0.6222070543527848  0.07026326937493368  1.0000
  O   O2        1.0  0.10470853103434055  0.8777933889439781  0.5702647625402406  1.0000
  O   O3        1.0  0.10471338645172779  0.377793557757684  0.9297361325125308  1.0000
  O   O4        1.0  0.8952873832940752  0.12220490440285661  0.42973740915443404  1.0000
  O   O5        1.0  0.20009123620108935  0.7512342209882305  0.8228700115920942  1.0000
  O   O6        1.0  0.7999177749149454  0.7487638805738756  0.3228709897956036  1.0000
  O   O7        1.0  0.7998992636261093  0.24876407282197022  0.1771260665312013  1.0000
  O   O8        1.0  0.20008084666864784  0.25123441255795587  0.6771306279383822  1.0000
  O   O9        1.0  0.19792054681759189  0.9895634580432853  0.8134834347028246  1.0000
  O   O10       1.0  0.8020876323748424  0.5104358900124666  0.31348715277217554  1.0000
  O   O11       1.0  0.802083629344814  0.010438313066970299  0.18651485926203995  1.0000
  O   O12       1.0  0.19791383652606234  0.4895658812896995  0.686516680802221  1.0000
  O   O13       1.0  0.7515056099443099  0.16278955152065314  0.7307425739708859  1.0000
  O   O14       1.0  0.2484965202887962  0.3372095948057775  0.23074268588683816  1.0000
  O   O15       1.0  0.24849685475606978  0.8372145386565036  0.2692579358351779  1.0000
  O   O16       1.0  0.7515016033985732  0.6627875389013909  0.7692578239264022  1.0000
  O   O17       1.0  0.5651274954248818  0.9181179082951444  0.7391397728615559  1.0000
  O   O18       1.0  0.43486562461657036  0.581884448745008  0.23913993160855535  1.0000
  O   O19       1.0  0.4348741135494052  0.08188734143342198  0.2608579671382358  1.0000
  O   O20       1.0  0.5651258710044829  0.4181161639196489  0.7608572544342634  1.0000
  O   O21       1.0  0.7770320936312344  0.9938610549544716  0.6486518478318785  1.0000
  O   O22       1.0  0.2229687397383414  0.5061375019910057  0.1486510196952366  1.0000
  O   O23       1.0  0.22297741933733312  0.006149991477656199  0.35134810800631294  1.0000
  O   O24       1.0  0.7770263965667608  0.4938526751502294  0.8513467203204141  1.0000
