data_image0
_chemical_formula_structural       Zn8Te8H64C24N8
_chemical_formula_sum              "Zn8 Te8 H64 C24 N8"
_cell_length_a       6.872216715076998
_cell_length_b       6.93831213600562
_cell_length_c       26.876055102321043
_cell_angle_alpha    89.99986698277763
_cell_angle_beta     89.99946489781367
_cell_angle_gamma    90.00010015363402

_space_group_name_H-M_alt    "P 1"
_space_group_IT_number       1

loop_
  _space_group_symop_operation_xyz
  'x, y, z'

loop_
  _atom_site_type_symbol
  _atom_site_label
  _atom_site_symmetry_multiplicity
  _atom_site_fract_x
  _atom_site_fract_y
  _atom_site_fract_z
  _atom_site_occupancy
  Zn  Zn1       1.0  0.1894318287649384  0.40906213881140024  0.2837064889353513  1.0000
  Zn  Zn2       1.0  0.810562571722578  0.09093658226501589  0.7837033165703886  1.0000
  Zn  Zn3       1.0  0.6894363691017276  0.5909342679911804  0.2162960313673139  1.0000
  Zn  Zn4       1.0  0.31056426078623633  0.9090677390446302  0.7162968657614499  1.0000
  Zn  Zn5       1.0  0.8105685967098283  0.5909432697057895  0.716294118220361  1.0000
  Zn  Zn6       1.0  0.1894305781545569  0.9090688262671949  0.21629319773139602  1.0000
  Zn  Zn7       1.0  0.3105655114673525  0.40906393415390596  0.7837064361805305  1.0000
  Zn  Zn8       1.0  0.689431799237056  0.090937669454874  0.2837063459483531  1.0000
  Te  Te1       1.0  0.8139854837790779  0.4456320259573659  0.300706372950394  1.0000
  Te  Te2       1.0  0.18601120274365712  0.05437228081900259  0.8007065627179131  1.0000
  Te  Te3       1.0  0.3139886534147891  0.5543746947576979  0.1992962235528708  1.0000
  Te  Te4       1.0  0.6860126007180014  0.9456346980352706  0.6992935434066467  1.0000
  Te  Te5       1.0  0.18601639677559237  0.5543733825454354  0.6992972108309132  1.0000
  Te  Te6       1.0  0.8139834021563033  0.9456302451376714  0.19929590483750556  1.0000
  Te  Te7       1.0  0.6860132272081927  0.44563071376472857  0.8007036394442792  1.0000
  Te  Te8       1.0  0.3139849145398657  0.054367827949555206  0.30070408712590785  1.0000
  H   H1        1.0  0.4727646710448425  0.5524341831241203  0.3323509047886546  1.0000
  H   H2        1.0  0.5272389733774503  0.9475579517192758  0.8323515774817665  1.0000
  H   H3        1.0  0.9727620246190511  0.4475598529762265  0.16764945415303603  1.0000
  H   H4        1.0  0.027241002448640507  0.05243721013511049  0.6676481616511651  1.0000
  H   H5        1.0  0.527240119862121  0.44757266667758  0.6676482140478583  1.0000
  H   H6        1.0  0.4727570867297715  0.052441691714868496  0.16764679721006104  1.0000
  H   H7        1.0  0.0272384008520632  0.5524412317228027  0.8323511530037493  1.0000
  H   H8        1.0  0.9727608781823849  0.9475696396619995  0.33235132926721184  1.0000
  H   H9        1.0  0.29150290640054527  0.7038137335523659  0.3403321645955302  1.0000
  H   H10       1.0  0.7085019001422097  0.7961739932689299  0.840330993390296  1.0000
  H   H11       1.0  0.7915017525217111  0.2961684449037777  0.159671229483088  1.0000
  H   H12       1.0  0.20850302263707482  0.20382149603679522  0.6596683151540219  1.0000
  H   H13       1.0  0.7085004293111298  0.2961859098687256  0.6596699308718144  1.0000
  H   H14       1.0  0.2915014356065271  0.2038371803417647  0.1596696137605349  1.0000
  H   H15       1.0  0.20849721777704394  0.7038283159659642  0.8403312380685719  1.0000
  H   H16       1.0  0.791503223396397  0.796183912491543  0.3403311757595305  1.0000
  H   H17       1.0  0.3193645961787298  0.3228851188861412  0.3896341042512219  1.0000
  H   H18       1.0  0.6806302803655485  0.17710671938531425  0.8896334303156125  1.0000
  H   H19       1.0  0.8193688059286475  0.6770956686520365  0.11036587493025961  1.0000
  H   H20       1.0  0.18063280308837187  0.8228930433916161  0.6103655723565282  1.0000
  H   H21       1.0  0.6806503806716009  0.6771073182014933  0.6103642704199288  1.0000
  H   H22       1.0  0.31935559383367723  0.8229087780454378  0.110363828149147  1.0000
  H   H23       1.0  0.1806272541383365  0.3228967684086967  0.8896343601554407  1.0000
  H   H24       1.0  0.8193603466938839  0.17710515875148047  0.3896357789664435  1.0000
  H   H25       1.0  0.14922288684080343  0.5061412765216744  0.4035994801116161  1.0000
  H   H26       1.0  0.8507781416551552  0.9938573129193884  0.9035963846699744  1.0000
  H   H27       1.0  0.6492185690864503  0.49384785126189  0.0964049961116871  1.0000
  H   H28       1.0  0.3507856187159391  0.0061398746893246  0.5964022138111104  1.0000
  H   H29       1.0  0.8507950002091108  0.49384971927624116  0.5964026153405868  1.0000
  H   H30       1.0  0.14920918762641117  0.006161067042405901  0.0964038504196694  1.0000
  H   H31       1.0  0.35077458066726314  0.5061489096006326  0.9035978435253043  1.0000
  H   H32       1.0  0.6492148067305622  0.9938482385513082  0.4035991375057151  1.0000
  H   H33       1.0  0.5928437382397576  0.5414225262732372  0.41607994283427274  1.0000
  H   H34       1.0  0.4071582870643269  0.9585528710975029  0.9160805232467341  1.0000
  H   H35       1.0  0.0928349758605478  0.45854343933291364  0.08391722576025981  1.0000
  H   H36       1.0  0.9071667601046229  0.041438653270212504  0.5839183133820995  1.0000
  H   H37       1.0  0.4071741488704177  0.45856702826961987  0.583918803912546  1.0000
  H   H38       1.0  0.5928275871697934  0.041455419981424796  0.08391450274931601  1.0000
  H   H39       1.0  0.9071538085171085  0.5414374675375271  0.916083381415355  1.0000
  H   H40       1.0  0.09283512051910493  0.9585595488905766  0.4160811775384303  1.0000
  H   H41       1.0  0.4217561090422208  0.7186570234136485  0.4342568768961357  1.0000
  H   H42       1.0  0.5782627104885876  0.781326829813331  0.9342575107592807  1.0000
  H   H43       1.0  0.9217321863542267  0.2813181839847871  0.0657417428541152  1.0000
  H   H44       1.0  0.07826439642620642  0.21867130675879312  0.5657424792449888  1.0000
  H   H45       1.0  0.578264688286815  0.28132964857266524  0.5657444743968512  1.0000
  H   H46       1.0  0.4217275291460184  0.2186857850857393  0.0657378873089272  1.0000
  H   H47       1.0  0.0782478672234035  0.7186713705140872  0.9342588643297205  1.0000
  H   H48       1.0  0.9217403944361209  0.7813312192129729  0.4342588720630829  1.0000
  H   H49       1.0  0.43985685835215094  0.30697455945147567  0.47658236547147226  1.0000
  H   H50       1.0  0.5601595630582636  0.19301203758807622  0.9765804815439267  1.0000
  H   H51       1.0  0.9398366397895331  0.6930064457166977  0.0234206762156504  1.0000
  H   H52       1.0  0.060159430788012  0.8069889488303231  0.5234184352305249  1.0000
  H   H53       1.0  0.5601683044042147  0.6930077887284725  0.5234174975037433  1.0000
  H   H54       1.0  0.4398190354199016  0.8069948121880018  0.0234190094021045  1.0000
  H   H55       1.0  0.0601594202489153  0.30698455006346853  0.9765810471840694  1.0000
  H   H56       1.0  0.93984827039489  0.19301790097596697  0.4765803115241098  1.0000
  H   H57       1.0  0.27728901941096507  0.4885804369033622  0.4961888136037871  1.0000
  H   H58       1.0  0.7227092204565082  0.011400188138154  0.9961892380471226  1.0000
  H   H59       1.0  0.7772721244319883  0.5114031571436541  0.0038127538661499  1.0000
  H   H60       1.0  0.22272612121037133  0.9885924442980353  0.5038107808865391  1.0000
  H   H61       1.0  0.7227375984662887  0.5114019112739784  0.5038117935265305  1.0000
  H   H62       1.0  0.2772664677613506  0.9886008965483485  0.0038095087469685006  1.0000
  H   H63       1.0  0.22271811510164952  0.48859504500269685  0.9961874812250285  1.0000
  H   H64       1.0  0.7772786696841435  0.011415846772457902  0.4961890821064472  1.0000
  C   C1        1.0  0.301021254835618  0.48045222851828845  0.39225798399126427  1.0000
  C   C2        1.0  0.6989866215779941  0.019538140805984497  0.8922573445341512  1.0000
  C   C3        1.0  0.8010121986888451  0.519529967139384  0.1077427829370166  1.0000
  C   C4        1.0  0.19898805151356672  0.9804587725833472  0.6077419866129644  1.0000
  C   C5        1.0  0.6989937219873924  0.5195402085614943  0.6077418789935507  1.0000
  C   C6        1.0  0.30100216288593623  0.9804802391708662  0.10774028600484799  1.0000
  C   C7        1.0  0.19897804083113613  0.48046823500304475  0.8922581963109976  1.0000
  C   C8        1.0  0.8010152842310488  0.019539429574834295  0.39225824846266727  1.0000
  C   C9        1.0  0.44358597569159036  0.5617284071761902  0.430414063967291  1.0000
  C   C10       1.0  0.5564300746770954  0.9382612516889282  0.9304142998588674  1.0000
  C   C11       1.0  0.9435679973505844  0.4382497221989752  0.0695863643104602  1.0000
  C   C12       1.0  0.05643280969040631  0.06173972798688251  0.569586114085233  1.0000
  C   C13       1.0  0.5564377319214202  0.4382597060893971  0.5695865431650518  1.0000
  C   C14       1.0  0.44355434437147784  0.06175136319114221  0.0695837027651578  1.0000
  C   C15       1.0  0.0564193319122595  0.5617383910376786  0.930413498708262  1.0000
  C   C16       1.0  0.9435763465799809  0.9382599154453503  0.4304148651399586  1.0000
  C   C17       1.0  0.4249214060739419  0.46452580780312763  0.481169698966859  1.0000
  C   C18       1.0  0.5750890263620364  0.035463623370759506  0.9811682297052967  1.0000
  C   C19       1.0  0.9249040002743456  0.5354566116730979  0.0188307736467905  1.0000
  C   C20       1.0  0.07509660421381172  0.9645388313033509  0.5188295353594867  1.0000
  C   C21       1.0  0.5751052118386824  0.535457981656748  0.5188290477710211  1.0000
  C   C22       1.0  0.4248852067578497  0.9645403438696789  0.0188286566977283  1.0000
  C   C23       1.0  0.0750891494993837  0.46453150156095535  0.9811705776786824  1.0000
  C   C24       1.0  0.9249125520968066  0.035468018502300004  0.48116958347183925  1.0000
  N   N1        1.0  0.3272292204131233  0.559576949174172  0.34184577288807105  1.0000
  N   N2        1.0  0.6727667997734271  0.9404251743993085  0.841843870937133  1.0000
  N   N3        1.0  0.8272341861817267  0.4404197065583375  0.15815679215509704  1.0000
  N   N4        1.0  0.17277209970606583  0.05957745672211701  0.6581547783322534  1.0000
  N   N5        1.0  0.672778480717092  0.4404241355275077  0.6581555784169026  1.0000
  N   N6        1.0  0.32723362574596854  0.05958455794781512  0.1581545037470136  1.0000
  N   N7        1.0  0.1727618738640118  0.5595799368581424  0.8418449312424771  1.0000
  N   N8        1.0  0.8272254155003366  0.9404207454308063  0.3418454567502849  1.0000
