data_image0
_chemical_formula_structural       Ag4H24C26S2N6O14
_chemical_formula_sum              "Ag4 H24 C26 S2 N6 O14"
_cell_length_a       7.588283370579014
_cell_length_b       10.073931219497299
_cell_length_c       10.9921292801658
_cell_angle_alpha    78.29420861142559
_cell_angle_beta     71.4055208486131
_cell_angle_gamma    84.61523159172584

_space_group_name_H-M_alt    "P 1"
_space_group_IT_number       1

loop_
  _space_group_symop_operation_xyz
  'x, y, z'

loop_
  _atom_site_type_symbol
  _atom_site_label
  _atom_site_symmetry_multiplicity
  _atom_site_fract_x
  _atom_site_fract_y
  _atom_site_fract_z
  _atom_site_occupancy
  Ag  Ag1       1.0  0.2990084079487758  0.18399236933653643  0.7051651819856204  1.0000
  Ag  Ag2       1.0  0.7009848518550824  0.8160094328167916  0.2948385213928333  1.0000
  Ag  Ag3       1.0  0.3188897874961825  0.44061396684499954  0.2551316172708979  1.0000
  Ag  Ag4       1.0  0.6811157840116662  0.5593910714674238  0.7448680541814311  1.0000
  H   H1        1.0  0.7128059894077977  0.15280402868136625  0.7783436324144333  1.0000
  H   H2        1.0  0.28718668772558675  0.8471886461524534  0.2216573002933728  1.0000
  H   H3        1.0  0.9363086937529131  0.05228104771232011  0.8963473862551936  1.0000
  H   H4        1.0  0.06368951441108085  0.947713755619276  0.10364838139907559  1.0000
  H   H5        1.0  0.08641067415740623  0.7384935320640551  0.6621569410559472  1.0000
  H   H6        1.0  0.9135916702871255  0.2615013306475049  0.33783887455495437  1.0000
  H   H7        1.0  0.4247068660604469  0.09406480284012278  0.9428733821503172  1.0000
  H   H8        1.0  0.575288862348941  0.9059400716371043  0.05713198459100259  1.0000
  H   H9        1.0  0.438049084553512  0.1844437013681315  0.1359490904144636  1.0000
  H   H10       1.0  0.5619494640360471  0.8155601973478994  0.8640567833055569  1.0000
  H   H11       1.0  0.2025609635518605  0.5530573836825639  0.9996528025108874  1.0000
  H   H12       1.0  0.7974318538355192  0.4469484545802159  0.00035480802489477767  1.0000
  H   H13       1.0  0.20018479751492177  0.46407834774371537  0.8035951871519629  1.0000
  H   H14       1.0  0.7997972728094993  0.5359222514413631  0.1964155874619351  1.0000
  H   H15       1.0  0.5776416850225559  0.2924923406670317  0.4105380706532742  1.0000
  H   H16       1.0  0.4223615028252468  0.7075075893032761  0.5894621100172728  1.0000
  H   H17       1.0  0.7189183185029433  0.33791121371393734  0.5752922883728004  1.0000
  H   H18       1.0  0.2810791503348041  0.6620896338021325  0.42471163232843173  1.0000
  H   H19       1.0  0.6589214948812411  0.003897104126771502  0.525385761350833  1.0000
  H   H20       1.0  0.34108206262968094  0.9960998037512994  0.4746103427962325  1.0000
  H   H21       1.0  0.07980696349745388  0.6838709108791647  0.17614963261134878  1.0000
  H   H22       1.0  0.9201993111596775  0.316126031263039  0.8238477260726569  1.0000
  H   H23       1.0  0.017045518924689355  0.6610956130554232  0.33279203050188494  1.0000
  H   H24       1.0  0.9829550850914829  0.3389032766173017  0.6672052311491043  1.0000
  C   C1        1.0  0.8769606810014282  0.8840088937412744  0.6222271437496332  1.0000
  C   C2        1.0  0.1230307771691983  0.11597968793217463  0.3777784237762631  1.0000
  C   C3        1.0  0.7716751731472083  0.003128408855118901  0.6549895551037039  1.0000
  C   C4        1.0  0.22832823885700992  0.9968705270573961  0.34500621031105544  1.0000
  C   C5        1.0  0.7939294924097735  0.0611901841386668  0.7548700289301281  1.0000
  C   C6        1.0  0.20605767178148668  0.9388013881902496  0.24513314869189884  1.0000
  C   C7        1.0  0.9206826650705294  0.005315941217368405  0.8194964826429754  1.0000
  C   C8        1.0  0.07931684110533865  0.9946788712625293  0.18050174612854156  1.0000
  C   C9        1.0  0.027858303864078875  0.8891685921481242  0.7855771609108118  1.0000
  C   C10       1.0  0.9721400439102579  0.11082213515517483  0.21442386883001777  1.0000
  C   C11       1.0  0.004956734407848278  0.828916591180601  0.6888169042610385  1.0000
  C   C12       1.0  0.995046659507885  0.17108131873903432  0.3111817812930371  1.0000
  C   C13       1.0  0.8585275726816447  0.8204373456308431  0.5154832803211065  1.0000
  C   C14       1.0  0.14148411778000272  0.17956375703546001  0.48450765765266374  1.0000
  C   C15       1.0  0.3801905023536846  0.19788026032171765  0.9544132745749322  1.0000
  C   C16       1.0  0.619795401045728  0.8021254763131935  0.04559486731604785  1.0000
  C   C17       1.0  0.38339793972773606  0.2473585854993487  0.06267548601917385  1.0000
  C   C18       1.0  0.6166018581051915  0.7526494103689316  0.9373248359583641  1.0000
  C   C19       1.0  0.2550786347067344  0.450775160207833  0.9871011806927968  1.0000
  C   C20       1.0  0.7449168998268475  0.5492307123190799  0.012907684379918334  1.0000
  C   C21       1.0  0.2548847036575168  0.4018428036860228  0.8773922558576713  1.0000
  C   C22       1.0  0.7450998836415363  0.5981618978077209  0.12261634505538416  1.0000
  C   C23       1.0  0.5414945219481736  0.384444454920768  0.45180776490113317  1.0000
  C   C24       1.0  0.4585068346294321  0.6155594900350465  0.5481966125826646  1.0000
  C   C25       1.0  0.6190066645723107  0.40994447982699717  0.5435051796356304  1.0000
  C   C26       1.0  0.3809891546789145  0.5900604066258879  0.4564974363325192  1.0000
  S   S1        1.0  0.19696314620587424  0.8262877253610911  0.8657265313602949  1.0000
  S   S2        1.0  0.803052771378148  0.173713448660834  0.13426170379694471  1.0000
  N   N1        1.0  0.3169745704525084  0.2751309285780792  0.8610621604976814  1.0000
  N   N2        1.0  0.6830223710232842  0.7248759910656589  0.1389434947797953  1.0000
  N   N3        1.0  0.31987237871847884  0.37362716233760557  0.07969101266201765  1.0000
  N   N4        1.0  0.6801191953218931  0.6263766267667847  0.920317226261986  1.0000
  N   N5        1.0  0.4230110193698947  0.4748034039289379  0.40771430940820613  1.0000
  N   N6        1.0  0.5769904099610628  0.5251995270096544  0.5922902374417448  1.0000
  O   O1        1.0  0.31450521340072857  0.7267225087279243  0.792407017603459  1.0000
  O   O2        1.0  0.6855209962382387  0.27329408047084774  0.20756810749462326  1.0000
  O   O3        1.0  0.0931990919751939  0.7645034097169869  0.0011209398870164662  1.0000
  O   O4        1.0  0.9068307378865865  0.2354786920852092  0.9988669893994883  1.0000
  O   O5        1.0  0.2977639600256056  0.9460550630809622  0.8620055002311487  1.0000
  O   O6        1.0  0.7022290449418163  0.053952847126979016  0.13799168540404594  1.0000
  O   O7        1.0  0.6527883615422139  0.0646155406117259  0.5910188863607645  1.0000
  O   O8        1.0  0.34721377683437976  0.9353813421505142  0.4089784243666087  1.0000
  O   O9        1.0  0.9572269125065133  0.7187311727730831  0.48272197568025627  1.0000
  O   O10       1.0  0.04277396443458769  0.2812626348378942  0.5172788835746616  1.0000
  O   O11       1.0  0.7340225074748403  0.8792448191306618  0.4611490934393601  1.0000
  O   O12       1.0  0.2659766895991353  0.12075302342523744  0.5388513780068607  1.0000
  O   O13       1.0  0.06185011451267291  0.6148553399183356  0.25603355842781644  1.0000
  O   O14       1.0  0.938150562256858  0.3851425357371668  0.743963872589326  1.0000
