data_image0
_chemical_formula_structural       Tm2H8C6O16
_chemical_formula_sum              "Tm2 H8 C6 O16"
_cell_length_a       6.303248023000079
_cell_length_b       6.550315603332241
_cell_length_c       8.910454851121228
_cell_angle_alpha    85.40324711248053
_cell_angle_beta     76.39852796644264
_cell_angle_gamma    80.38712746306999

_space_group_name_H-M_alt    "P 1"
_space_group_IT_number       1

loop_
  _space_group_symop_operation_xyz
  'x, y, z'

loop_
  _atom_site_type_symbol
  _atom_site_label
  _atom_site_symmetry_multiplicity
  _atom_site_fract_x
  _atom_site_fract_y
  _atom_site_fract_z
  _atom_site_occupancy
  Tm  Tm1       1.0  0.33081646222266403  0.25600788381701983  0.2957473472407202  1.0000
  Tm  Tm2       1.0  0.6691854978019766  0.7439668060432324  0.7042602010846863  1.0000
  H   H1        1.0  0.6941532015010452  0.9168451082396204  0.2889445085672833  1.0000
  H   H2        1.0  0.30585708794521344  0.08316716478677222  0.7110517049092027  1.0000
  H   H3        1.0  0.626601969426055  0.8883760837306625  0.12962422625570014  1.0000
  H   H4        1.0  0.3734057737521751  0.11163148372046552  0.870371775453606  1.0000
  H   H5        1.0  0.9672063910080696  0.5997026303099915  0.31862407035749385  1.0000
  H   H6        1.0  0.03279894638694002  0.40028039282682926  0.6813876496280145  1.0000
  H   H7        1.0  0.8881812942723002  0.4557397461339717  0.2140469892062313  1.0000
  H   H8        1.0  0.11181279051660194  0.5442615644710713  0.7859730601759978  1.0000
  C   C1        1.0  0.013711201656015182  0.04272055851872383  0.5748981047968587  1.0000
  C   C2        1.0  0.9861253138951156  0.9574330998356898  0.4250751418483105  1.0000
  C   C3        1.0  0.588538342989878  0.40682023554092683  0.5096100826513138  1.0000
  C   C4        1.0  0.41148768807817504  0.5932257802669838  0.4903449229893441  1.0000
  C   C5        1.0  0.5737347814445783  0.5504536520675387  0.04005987520107375  1.0000
  C   C6        1.0  0.42626901006782714  0.4495390591461188  0.959954262293941  1.0000
  O   O1        1.0  0.14946151916238654  0.17242193697941133  0.5570739503933881  1.0000
  O   O2        1.0  0.850579096367838  0.8274842733416606  0.44293667897332534  1.0000
  O   O3        1.0  0.9035351973827234  0.9793341191907744  0.7014451721075972  1.0000
  O   O4        1.0  0.0965896130025996  0.020575374864222302  0.2985322148781009  1.0000
  O   O5        1.0  0.5839527767237483  0.2418491534512555  0.44674622722478574  1.0000
  O   O6        1.0  0.4159936179079722  0.758184158116549  0.553266241405865  1.0000
  O   O7        1.0  0.725247932946239  0.43530538590199797  0.5858701225379548  1.0000
  O   O8        1.0  0.2747522329611202  0.5646413864161062  0.41415121436554614  1.0000
  O   O9        1.0  0.6119970235885646  0.460241028477988  0.16362312235662568  1.0000
  O   O10       1.0  0.3880045762373925  0.5397929825846646  0.8363840390195137  1.0000
  O   O11       1.0  0.6418363323234005  0.7152583978648508  0.976072551835749  1.0000
  O   O12       1.0  0.35816561702370825  0.2847334768511374  0.02392275605619431  1.0000
  O   O13       1.0  0.5953411715763862  0.9758177601098553  0.22012814858447172  1.0000
  O   O14       1.0  0.4046604150418318  0.024189364923053295  0.7798642277919684  1.0000
  O   O15       1.0  0.016191109485816868  0.47861235411203756  0.25280604694007286  1.0000
  O   O16       1.0  0.9837985466916096  0.5213957231158659  0.7471934714431043  1.0000
