data_image0
_chemical_formula_structural       Cd2H44C62N8O12
_chemical_formula_sum              "Cd2 H44 C62 N8 O12"
_cell_length_a       9.945866998926387
_cell_length_b       11.791398358561256
_cell_length_c       12.5788
_cell_angle_alpha    83.25961606192989
_cell_angle_beta     88.46750625254218
_cell_angle_gamma    69.89529361512426

_space_group_name_H-M_alt    "P 1"
_space_group_IT_number       1

loop_
  _space_group_symop_operation_xyz
  'x, y, z'

loop_
  _atom_site_type_symbol
  _atom_site_label
  _atom_site_symmetry_multiplicity
  _atom_site_fract_x
  _atom_site_fract_y
  _atom_site_fract_z
  _atom_site_occupancy
  Cd  Cd1       1.0  0.5026541710419038  0.41632375362878804  0.6713065642747721  1.0000
  Cd  Cd2       1.0  0.49735258493473805  0.5836715014514269  0.3286965178772545  1.0000
  H   H1        1.0  0.6326613866612333  0.03127883128023261  0.9503123475504722  1.0000
  H   H2        1.0  0.3673518678527897  0.9687127871494357  0.0496878173474968  1.0000
  H   H3        1.0  0.8088264020658755  0.8896856434634801  0.08691653138075138  1.0000
  H   H4        1.0  0.1911842024217876  0.1103050658035585  0.9130798146420033  1.0000
  H   H5        1.0  0.9464959297613046  0.1873784189877981  0.8321211425185595  1.0000
  H   H6        1.0  0.05351943269882039  0.8126104719539669  0.1678784829045057  1.0000
  H   H7        1.0  0.3654814259665002  0.2566184269124605  0.2977584752777531  1.0000
  H   H8        1.0  0.6345110560927267  0.7433822831435606  0.7022339736849331  1.0000
  H   H9        1.0  0.3282154909950065  0.0566462871104036  0.3158791899540531  1.0000
  H   H10       1.0  0.6717630845279955  0.9433589687587871  0.6841210028130714  1.0000
  H   H11       1.0  0.6211664252926781  0.1507309823503462  0.5859771136659687  1.0000
  H   H12       1.0  0.3788235814392493  0.8492733643562076  0.4140149875225134  1.0000
  H   H13       1.0  0.6532637424542571  0.6718102730611903  0.10159600433457436  1.0000
  H   H14       1.0  0.3467467477092683  0.3281931644827338  0.8984060985902217  1.0000
  H   H15       1.0  0.5693121781146215  0.3448290223703552  0.1588670450668062  1.0000
  H   H16       1.0  0.4306825686067057  0.6551835067999151  0.8411359804516607  1.0000
  H   H17       1.0  0.7318675775414434  0.33696203809329733  0.9744217369011635  1.0000
  H   H18       1.0  0.26813020457051817  0.6630404902879903  0.02558073477713662  1.0000
  H   H19       1.0  0.7965172453511471  0.4154382292227013  0.8269351299397059  1.0000
  H   H20       1.0  0.2034851983922152  0.5845652083212229  0.1730623732041323  1.0000
  H   H21       1.0  0.9459109549641479  0.4762366620852491  0.6876857352955241  1.0000
  H   H22       1.0  0.0540897482143095  0.5237685937839416  0.31231080960716173  1.0000
  H   H23       1.0  0.9529052392846467  0.768050592907727  0.8625298632368653  1.0000
  H   H24       1.0  0.04709134434266098  0.23195739044936667  0.1374656737012856  1.0000
  H   H25       1.0  0.8207008394074579  0.6994933661216436  0.007191991810081845  1.0000
  H   H26       1.0  0.17930123695470707  0.3005109805849173  0.9928038290962531  1.0000
  H   H27       1.0  0.1899074088099653  0.7240489397191254  0.6317763178971632  1.0000
  H   H28       1.0  0.810098883444418  0.2759499520116222  0.3682271689316891  1.0000
  H   H29       1.0  0.15144854440523403  0.7262318392047646  0.773666534397563  1.0000
  H   H30       1.0  0.8485482319042035  0.2737706891765228  0.2263335735842347  1.0000
  H   H31       1.0  0.8452829602295395  0.0706137526655155  0.5919638898716783  1.0000
  H   H32       1.0  0.1547174898918512  0.9293796840894262  0.4080363457289522  1.0000
  H   H33       1.0  0.9158773937887472  0.2533236215247285  0.5698940940539073  1.0000
  H   H34       1.0  0.08411655779526223  0.746673451880753  0.4301106487775712  1.0000
  H   H35       1.0  0.33785715620519596  0.0340454131772745  0.694164417664318  1.0000
  H   H36       1.0  0.6621390780239835  0.9659534785534731  0.3058424618048647  1.0000
  H   H37       1.0  0.26313617217645197  0.8566484916479596  0.7257191955260467  1.0000
  H   H38       1.0  0.7368593272903324  0.14335221840806162  0.2742867044333011  1.0000
  H   H39       1.0  0.055171295291906106  0.3572663672114659  0.47027226636055985  1.0000
  H   H40       1.0  0.9448256736996611  0.6427307061940155  0.5297324126648917  1.0000
  H   H41       1.0  0.214699531945044  0.5071709207269777  0.49148846102128363  1.0000
  H   H42       1.0  0.7852967022841353  0.4928279710037771  0.5085160334827279  1.0000
  H   H43       1.0  0.34519973651924113  0.21271041747521485  0.7338940283622009  1.0000
  H   H44       1.0  0.6548040020498432  0.7872848376049931  0.26610673263067497  1.0000
  C   C1        1.0  0.6714244692522868  0.20528619540120022  0.8063526111060425  1.0000
  C   C2        1.0  0.32858959838213053  0.794710878004274  0.19364375646799203  1.0000
  C   C3        1.0  0.7804305482812808  0.11795657853622292  0.8843780584648965  1.0000
  C   C4        1.0  0.21957657507655876  0.8820377673813554  0.11562034601749359  1.0000
  C   C5        1.0  0.7414017955188044  0.032301639244138904  0.9559218253610523  1.0000
  C   C6        1.0  0.25860971843030706  0.9676917975108028  0.044077381295750194  1.0000
  C   C7        1.0  0.8387263780743054  0.9543007410660067  0.030332583939660724  1.0000
  C   C8        1.0  0.16128339530990127  0.04569451401420111  0.9696680494411607  1.0000
  C   C9        1.0  0.9799671541378102  0.9570736871014915  0.036378754041265934  1.0000
  C   C10       1.0  0.020042619246396498  0.04292156797871631  0.9636234693163386  1.0000
  C   C11       1.0  0.9175239317897732  0.12226146361097531  0.8884966217264746  1.0000
  C   C12       1.0  0.08248493213297796  0.8777310639813295  0.11150671593905062  1.0000
  C   C13       1.0  0.5212988157802628  0.333544495749898  0.42846339067568096  1.0000
  C   C14       1.0  0.47869778583011424  0.6664534868182203  0.5715324512167186  1.0000
  C   C15       1.0  0.4993230032378477  0.2130486259752828  0.4401773407159552  1.0000
  C   C16       1.0  0.5006678345975287  0.7869511749181016  0.559820807963561  1.0000
  C   C17       1.0  0.4147526760563592  0.18690201776727383  0.36360333815020596  1.0000
  C   C18       1.0  0.5852377943978267  0.8130986922887403  0.6363931282918003  1.0000
  C   C19       1.0  0.3940759949105228  0.0765251281155841  0.37406598666846236  1.0000
  C   C20       1.0  0.6059063327824317  0.9234783094283402  0.6259303518721069  1.0000
  C   C21       1.0  0.45749038793118746  0.9868369442698751  0.46111981132121826  1.0000
  C   C22       1.0  0.5424966977342436  0.013164674948775702  0.5388766266660951  1.0000
  C   C23       1.0  0.5601875856483999  0.12787645204216602  0.5263386499471563  1.0000
  C   C24       1.0  0.4398039869493714  0.8721215305259451  0.47365809327702374  1.0000
  C   C25       1.0  0.6556285223060384  0.5806103508607805  0.09406098431442439  1.0000
  C   C26       1.0  0.34437858306872465  0.41939399584577336  0.9059387051905006  1.0000
  C   C27       1.0  0.6134083104656155  0.4109269642298942  0.11972130680513969  1.0000
  C   C28       1.0  0.3865922963717736  0.5890810191271996  0.8802797099770601  1.0000
  C   C29       1.0  0.6928748725802477  0.4062347758728038  0.02820752442018913  1.0000
  C   C30       1.0  0.30712308423077406  0.5937722983216531  0.9717952384055406  1.0000
  C   C31       1.0  0.8003697820281983  0.5517962594829058  0.928666655885557  1.0000
  C   C32       1.0  0.19962964430760616  0.44820717806101845  0.07133329602949347  1.0000
  C   C33       1.0  0.8347871945400483  0.4896868141012831  0.8379205256192461  1.0000
  C   C34       1.0  0.16521149703336147  0.5103184417679074  0.16207526683238876  1.0000
  C   C35       1.0  0.9168986446920471  0.524661391491108  0.758192372080387  1.0000
  C   C36       1.0  0.08309391572517194  0.47534659186599276  0.24180483990925689  1.0000
  C   C37       1.0  0.9616000011820772  0.6235037347978292  0.7666673854227851  1.0000
  C   C38       1.0  0.038396040364972364  0.3765006119087318  0.23332935808399913  1.0000
  C   C39       1.0  0.9238612580662673  0.6881997478748404  0.85560600820731  1.0000
  C   C40       1.0  0.07613495817984271  0.3118091446448901  0.1443870515049355  1.0000
  C   C41       1.0  0.8455378835426898  0.6504567702627072  0.9370055274558735  1.0000
  C   C42       1.0  0.1544570558607674  0.3495503039317498  0.06298934929195349  1.0000
  C   C43       1.0  0.10576853102804769  0.7377400198333248  0.6925183766428162  1.0000
  C   C44       1.0  0.8942351111999683  0.2622579627347861  0.30748129131082175  1.0000
  C   C45       1.0  0.04786284920889729  0.9520132878773993  0.6602581997423299  1.0000
  C   C46       1.0  0.9521343908227989  0.0479856038533555  0.33974468351621556  1.0000
  C   C47       1.0  0.9520515306828797  0.0643696236911921  0.6159122933070194  1.0000
  C   C48       1.0  0.0479458056898849  0.9356265405516524  0.384092477979152  1.0000
  C   C49       1.0  0.9933269081715961  0.1661794738371967  0.6017384334641989  1.0000
  C   C50       1.0  0.0066703318601071  0.8338194178935511  0.39826842473631524  1.0000
  C   C51       1.0  0.1327572319391237  0.1557104660999613  0.6297254059133834  1.0000
  C   C52       1.0  0.8672366233038175  0.844289334793423  0.3702798338556478  1.0000
  C   C53       1.0  0.2280876527824631  0.044094387777335  0.6746705288078728  1.0000
  C   C54       1.0  0.7719075756441993  0.9559045039534129  0.3253355769415974  1.0000
  C   C55       1.0  0.18587357512510033  0.9424588977505481  0.6911954378361641  1.0000
  C   C56       1.0  0.8141226591040791  0.057539993980199704  0.3088106466446305  1.0000
  C   C57       1.0  0.13395324118767601  0.3530487617496334  0.529728790812193  1.0000
  C   C58       1.0  0.8660419872389792  0.6469501299811213  0.4702773149372774  1.0000
  C   C59       1.0  0.21443872848837492  0.4252662773025548  0.5403335441141905  1.0000
  C   C60       1.0  0.7855602521082401  0.5747307961029265  0.4596679124203362  1.0000
  C   C61       1.0  0.28484693913297576  0.2745852988971151  0.6675006228435904  1.0000
  C   C62       1.0  0.7151540530686729  0.7254117745083661  0.33250158614198  1.0000
  N   N1        1.0  0.7196425845062463  0.5150960914126443  0.012394392720509002  1.0000
  N   N2        1.0  0.280359124474721  0.4849091644565462  0.9876053108670745  1.0000
  N   N3        1.0  0.5916404912563777  0.5197273658732158  0.16008398815304048  1.0000
  N   N4        1.0  0.40836239822617426  0.4802824358091442  0.8399143953365066  1.0000
  N   N5        1.0  0.30760140087510723  0.3754668939932061  0.6262702130437319  1.0000
  N   N6        1.0  0.692398952905215  0.6245292702496387  0.3737329044596293  1.0000
  N   N7        1.0  0.17966864504571584  0.2575339536854884  0.6111967579755841  1.0000
  N   N8        1.0  0.8203285949859874  0.7424649380452594  0.3888085102481397  1.0000
  O   O1        1.0  0.7079406591797051  0.2900128796433705  0.7527328903511047  1.0000
  O   O2        1.0  0.2920719389299292  0.7099878304126435  0.2472686730987874  1.0000
  O   O3        1.0  0.5506803435923615  0.19369346264762302  0.7984751336927546  1.0000
  O   O4        1.0  0.4493307066344911  0.8063036107578583  0.2015141427917655  1.0000
  O   O5        1.0  0.5996846724119962  0.3559644463187439  0.49566150502042916  1.0000
  O   O6        1.0  0.40032629945685727  0.6440253537856577  0.5043317533094722  1.0000
  O   O7        1.0  0.4584819185997944  0.4076603428838297  0.3475776933849417  1.0000
  O   O8        1.0  0.5415145866695141  0.5923403671721843  0.6524210304101956  1.0000
  O   O9        1.0  0.04144322694281755  0.6509540822238264  0.6826786981442864  1.0000
  O   O10       1.0  0.9585606863253275  0.3490457186695579  0.3173199690308408  1.0000
  O   O11       1.0  0.999026761263792  0.8558738850832911  0.669636083837517  1.0000
  O   O12       1.0  0.000973863556666301  0.1441240974848199  0.3303596729801797  1.0000
