data_image0
_chemical_formula_structural       Al4H28C68Br12O20
_chemical_formula_sum              "Al4 H28 C68 Br12 O20"
_cell_length_a       6.650164860116438
_cell_length_b       22.518750929612263
_cell_length_c       26.8131732494502
_cell_angle_alpha    101.99783285876272
_cell_angle_beta     89.99932159368016
_cell_angle_gamma    89.99830038395939

_space_group_name_H-M_alt    "P 1"
_space_group_IT_number       1

loop_
  _space_group_symop_operation_xyz
  'x, y, z'

loop_
  _atom_site_type_symbol
  _atom_site_label
  _atom_site_symmetry_multiplicity
  _atom_site_fract_x
  _atom_site_fract_y
  _atom_site_fract_z
  _atom_site_occupancy
  Al  Al1       1.0  0.1624646045764209  0.2497125988657771  0.7520316579159427  1.0000
  Al  Al2       1.0  0.8375272983099293  0.7502872362481342  0.24796960904225773  1.0000
  Al  Al3       1.0  0.6624688159044892  0.2502898327414372  0.7479705294146584  1.0000
  Al  Al4       1.0  0.33753210913948095  0.749713296559989  0.25203153269946904  1.0000
  H   H1        1.0  0.7469752145569898  0.6322930577568755  0.33766575699247875  1.0000
  H   H2        1.0  0.2530302215865774  0.3677129216558441  0.6623332924433144  1.0000
  H   H3        1.0  0.2469413149117798  0.8677135838538418  0.16233321826633323  1.0000
  H   H4        1.0  0.7530295359369956  0.13228874688281422  0.8376597078932306  1.0000
  H   H5        1.0  0.7095670146466658  0.5708698516066235  0.40433332063897603  1.0000
  H   H6        1.0  0.29043090297615487  0.4291346143966238  0.5956649523088159  1.0000
  H   H7        1.0  0.20953633213984085  0.9291342429104504  0.09566086206216078  1.0000
  H   H8        1.0  0.7904570744517725  0.0708704920986492  0.9043309482958577  1.0000
  H   H9        1.0  0.3411140408206918  0.5951204015723662  0.4393910674178087  1.0000
  H   H10       1.0  0.6588913955860461  0.40487898827456803  0.5606101948394978  1.0000
  H   H11       1.0  0.8410955655179394  0.9048777801679506  0.06060584912486179  1.0000
  H   H12       1.0  0.1589188932650387  0.09512161018034958  0.9393935115217785  1.0000
  H   H13       1.0  0.37716601085823237  0.654651905887519  0.3710907400571982  1.0000
  H   H14       1.0  0.6228454403609828  0.34534979938840854  0.6289090251875821  1.0000
  H   H15       1.0  0.8771500783263446  0.8453510641274561  0.12890719580372687  1.0000
  H   H16       1.0  0.12284783966709509  0.15464547726897146  0.8710913743732079  1.0000
  H   H17       1.0  0.2583771090958749  0.48555779328511767  0.43241182849515514  1.0000
  H   H18       1.0  0.7416283272654098  0.514444001500145  0.5675864164269128  1.0000
  H   H19       1.0  0.758359415570652  0.014438452452594704  0.06758810547101042  1.0000
  H   H20       1.0  0.24165353943266868  0.9855643227127971  0.9324067268424868  1.0000
  H   H21       1.0  0.22211774689034058  0.5750376999790845  0.9735592435564083  1.0000
  H   H22       1.0  0.7778756597950148  0.42496071060796237  0.026441628143118092  1.0000
  H   H23       1.0  0.7221320052890405  0.924958005275137  0.5264361423371752  1.0000
  H   H24       1.0  0.2778764384656752  0.0750408487849157  0.47357043875962995  1.0000
  H   H25       1.0  0.4149939203732273  0.3261412788653999  0.7796893918799765  1.0000
  H   H26       1.0  0.5850100122178076  0.6738602480420897  0.2203115124691734  1.0000
  H   H27       1.0  0.9150066782631399  0.17386297330247658  0.7203116108670783  1.0000
  H   H28       1.0  0.08498221713723099  0.8261386431613503  0.2796877731813722  1.0000
  C   C1        1.0  0.40811509035773225  0.1742112853624178  0.671151887924182  1.0000
  C   C2        1.0  0.5918903460861173  0.8257860558130331  0.3288520150849479  1.0000
  C   C3        1.0  0.9080933690270853  0.325790989991134  0.8288517891974364  1.0000
  C   C4        1.0  0.09190154110336117  0.6742132081421773  0.17114914318110408  1.0000
  C   C5        1.0  0.4181985029540413  0.18239870825014753  0.809406039262697  1.0000
  C   C6        1.0  0.581803925547085  0.8176092287266034  0.19059759453200797  1.0000
  C   C7        1.0  0.9181944182273512  0.31760800283650076  0.6905980165831451  1.0000
  C   C8        1.0  0.08180650700557378  0.682392634242092  0.30940097684886325  1.0000
  C   C9        1.0  0.8758546187752712  0.623689100939849  0.3602593570536711  1.0000
  C   C10       1.0  0.12415833623089159  0.37631215968015413  0.6397385019308571  1.0000
  C   C11       1.0  0.3758179269521235  0.8763139723260026  0.1397370649143639  1.0000
  C   C12       1.0  0.6241619464591677  0.12368319386526141  0.8602565677110475  1.0000
  C   C13       1.0  0.855582186882479  0.589891066425949  0.3978194020131268  1.0000
  C   C14       1.0  0.144429264220058  0.410111439216557  0.6021837944934915  1.0000
  C   C15       1.0  0.355559032844006  0.9101107929410333  0.10217862509663429  1.0000
  C   C16       1.0  0.6444388852327307  0.08988637315621868  0.8978150074847946  1.0000
  C   C17       1.0  0.022953072899646498  0.5788123623508739  0.426607559519546  1.0000
  C   C18       1.0  0.9770448446954632  0.42119049962899174  0.5733952604366478  1.0000
  C   C19       1.0  0.5229505031767728  0.9211919841353551  0.07338979714360512  1.0000
  C   C20       1.0  0.4770639551688163  0.07881818095456342  0.9266062536065504  1.0000
  C   C21       1.0  0.21097157092896876  0.6025159622808403  0.41665092804915815  1.0000
  C   C22       1.0  0.7890383765301293  0.3974869007330924  0.5833480887003474  1.0000
  C   C23       1.0  0.7109467437596919  0.8974850895761936  0.0833454979542978  1.0000
  C   C24       1.0  0.2890466632794428  0.10251029630705943  0.916646214377849  1.0000
  C   C25       1.0  0.23176581549906666  0.6360254204834703  0.37876952920723267  1.0000
  C   C26       1.0  0.7682501468133437  0.36397708568390646  0.6212317656997114  1.0000
  C   C27       1.0  0.7317499642184584  0.8639735438381991  0.12123019864357326  1.0000
  C   C28       1.0  0.268243442698477  0.1360214841330816  0.8787675950380345  1.0000
  C   C29       1.0  0.0642483069209376  0.6467394814421681  0.3502355062397412  1.0000
  C   C30       1.0  0.935752618261027  0.35326240229621675  0.6497631199446446  1.0000
  C   C31       1.0  0.5642411916070457  0.8532655914041668  0.14976470377227707  1.0000
  C   C32       1.0  0.4357612374165497  0.14673397741442074  0.8502335178176424  1.0000
  C   C33       1.0  0.1458510476608339  0.4927058746695466  0.4625934678470641  1.0000
  C   C34       1.0  0.8541528850635698  0.5072941393376738  0.5374047584070779  1.0000
  C   C35       1.0  0.6458474466666573  0.0072951056382209  0.037405150475670695  1.0000
  C   C36       1.0  0.35417001928069425  0.9927115867938953  0.9625912441752787  1.0000
  C   C37       1.0  0.13968837867918887  0.453573398406249  0.4964761509651511  1.0000
  C   C38       1.0  0.8603035242682537  0.5464266156636413  0.5035220753183224  1.0000
  C   C39       1.0  0.6397081652162981  0.04642363977492889  0.0035205537477551994  1.0000
  C   C40       1.0  0.360315316060479  0.9535758416494743  0.996471581773477  1.0000
  C   C41       1.0  0.9934299417801424  0.45979412891814064  0.5351474125903123  1.0000
  C   C42       1.0  0.006578501805876199  0.5402100685962877  0.46485542134391267  1.0000
  C   C43       1.0  0.49344646715334756  0.04020903968503117  0.9648501623792283  1.0000
  C   C44       1.0  0.5065589691809507  0.9597962293874788  0.0351420338686736  1.0000
  C   C45       1.0  0.9046221401329645  0.5261086193638392  0.9654488653374782  1.0000
  C   C46       1.0  0.09536675558155139  0.4738851608744169  0.03455309878010129  1.0000
  C   C47       1.0  0.40464563043812507  0.9738868732579962  0.5345547760718006  1.0000
  C   C48       1.0  0.5953733399152128  0.026103167392584208  0.4654463881266508  1.0000
  C   C49       1.0  0.12340422640676957  0.5416314110139737  0.9851557897056934  1.0000
  C   C50       1.0  0.8765982025409825  0.4583662858956217  0.014849638316029298  1.0000
  C   C51       1.0  0.6234023000955559  0.9583638962085105  0.5148472886185118  1.0000
  C   C52       1.0  0.3765986252588291  0.0416320204714182  0.4851562191466101  1.0000
  C   C53       1.0  0.0959753363894791  0.6291437446286708  0.12428528107596999  1.0000
  C   C54       1.0  0.9040045369543177  0.3708511933867626  0.875715934564674  1.0000
  C   C55       1.0  0.5959697325428052  0.8708479090568063  0.3757138763711436  1.0000
  C   C56       1.0  0.4040402154342998  0.12914213109240794  0.624289189437981  1.0000
  C   C57       1.0  0.8304816237933961  0.5274173422698284  0.021292986041274303  1.0000
  C   C58       1.0  0.16953283459497467  0.4725877450578296  0.9787117588027597  1.0000
  C   C59       1.0  0.33045783241249876  0.9725902066457481  0.47871701024948965  1.0000
  C   C60       1.0  0.6695220402374531  0.027415770158285096  0.5212915471920211  1.0000
  C   C61       1.0  0.05100041333034259  0.5445579158330532  0.04181820065556959  1.0000
  C   C62       1.0  0.9489929932614272  0.45544263180671873  0.9581823131321271  1.0000
  C   C63       1.0  0.5510070351606657  0.9554427540906617  0.45818164598459526  1.0000
  C   C64       1.0  0.4490149419883736  0.044560107763850026  0.5418211739129432  1.0000
  C   C65       1.0  0.09022935696675209  0.5900890564354242  0.08540540891214479  1.0000
  C   C66       1.0  0.9097700643236591  0.4099130924545309  0.9146000657958951  1.0000
  C   C67       1.0  0.5902137410558908  0.9099099576297719  0.414596515352379  1.0000
  C   C68       1.0  0.40977515446683543  0.0900878293767065  0.5854054907762886  1.0000
  Br  Br1       1.0  0.3295772587023008  0.3884525972462642  0.4851040425647993  1.0000
  Br  Br2       1.0  0.6704116367406954  0.611548128824623  0.5148953321478514  1.0000
  Br  Br3       1.0  0.8295963363099472  0.1115439746453504  0.014896316003955698  1.0000
  Br  Br4       1.0  0.1704226337866146  0.888454704790867  0.9850980930324764  1.0000
  Br  Br5       1.0  0.7720608552700625  0.5632203294712639  0.9171369440365209  1.0000
  Br  Br6       1.0  0.22794458105143178  0.43678084116154287  0.08286433689237778  1.0000
  Br  Br7       1.0  0.2720540894927979  0.9367877628918608  0.5828697433048972  1.0000
  Br  Br8       1.0  0.7279378134908611  0.06320931156524519  0.41713301598327485  1.0000
  Br  Br9       1.0  0.3995418551768424  0.4314518480501804  0.9466807245647073  1.0000
  Br  Br10      1.0  0.6004620773864742  0.5685480748339276  0.05332472679284449  1.0000
  Br  Br11      1.0  0.8995226686232697  0.0685433040019205  0.5533244400017167  1.0000
  Br  Br12      1.0  0.1004707376406628  0.9314600904824105  0.4466844706507302  1.0000
  O   O1        1.0  0.5830874747606528  0.1953747307655079  0.7899933095507237  1.0000
  O   O2        1.0  0.4169179617080728  0.8046257289787133  0.21000301977897354  1.0000
  O   O3        1.0  0.08308146078066157  0.30462585847224233  0.7100035320455685  1.0000
  O   O4        1.0  0.9169164569700214  0.6953759363521925  0.28999471289483125  1.0000
  O   O5        1.0  0.23988942773883787  0.1906657287318652  0.6920263317748618  1.0000
  O   O6        1.0  0.7601099938211461  0.8093318798121559  0.3079768134142  1.0000
  O   O7        1.0  0.7398642150191816  0.3093324241669961  0.8079739204514595  1.0000
  O   O8        1.0  0.260129191765273  0.6906650076458691  0.1920246590722741  1.0000
  O   O9        1.0  0.24290472128346605  0.19666143704709071  0.7964642851527798  1.0000
  O   O10       1.0  0.7570811666115702  0.8033400004764245  0.20353813957772357  1.0000
  O   O11       1.0  0.7429104254699012  0.3033340130924813  0.7035359242892908  1.0000
  O   O12       1.0  0.2570995221726449  0.6966651994200818  0.2964626738657046  1.0000
  O   O13       1.0  0.08120234811938327  0.30717053956767154  0.8124789978057051  1.0000
  O   O14       1.0  0.9188045916981622  0.6928351719516074  0.18752271104983717  1.0000
  O   O15       1.0  0.5812163042757773  0.1928306906196654  0.6875243248696776  1.0000
  O   O16       1.0  0.41877860609459816  0.8071697686310275  0.3124739060743593  1.0000
  O   O17       1.0  0.4119948886794517  0.2871338958697295  0.7561106182670229  1.0000
  O   O18       1.0  0.5879925029608017  0.7128688783320954  0.24388801728615309  1.0000
  O   O19       1.0  0.912014881058745  0.21286958604709133  0.7438907710001103  1.0000
  O   O20       1.0  0.08798905160918478  0.7871305163413709  0.2561097380940324  1.0000
