data_image0
_chemical_formula_structural       Al2H18C28N2O10
_chemical_formula_sum              "Al2 H18 C28 N2 O10"
_cell_length_a       6.6108922355107795
_cell_length_b       11.197745529907525
_cell_length_c       17.723830024466416
_cell_angle_alpha    82.80868952692198
_cell_angle_beta     80.1964278971295
_cell_angle_gamma    71.35058039274699

_space_group_name_H-M_alt    "P 1"
_space_group_IT_number       1

loop_
  _space_group_symop_operation_xyz
  'x, y, z'

loop_
  _atom_site_type_symbol
  _atom_site_label
  _atom_site_symmetry_multiplicity
  _atom_site_fract_x
  _atom_site_fract_y
  _atom_site_fract_z
  _atom_site_occupancy
  Al  Al1       1.0  0.4865639316665378  0.5062000816167469  0.5045549587665692  1.0000
  Al  Al2       1.0  0.9881073358190592  0.5056577188448871  0.5031932625612114  1.0000
  H   H1        1.0  0.2998221257557745  0.3495673022203221  0.5364109670373625  1.0000
  H   H2        1.0  0.6827238632704535  0.6557853736845374  0.4527843730377938  1.0000
  H   H3        1.0  0.6257072779114876  0.5642289188356316  0.2742091026909321  1.0000
  H   H4        1.0  0.716703600240905  0.5567192513566681  0.13165161745369863  1.0000
  H   H5        1.0  0.19733651455882045  0.402095839085497  0.12978176390973323  1.0000
  H   H6        1.0  0.10250361954783932  0.4158739260852542  0.2717573590097047  1.0000
  H   H7        1.0  0.8429258405772658  0.5668872923319982  0.878068776746311  1.0000
  H   H8        1.0  0.9064372044889523  0.5728175517662918  0.734584572635221  1.0000
  H   H9        1.0  0.37319323352180334  0.4310415696674781  0.7372032040445049  1.0000
  H   H10       1.0  0.31373673836566235  0.41850909332548986  0.8808582487583011  1.0000
  H   H11       1.0  0.20761027259556636  0.2421086898927101  0.39941517582326475  1.0000
  H   H12       1.0  0.5415773863165755  0.12694914547383718  0.32132548232894464  1.0000
  H   H13       1.0  0.42166406993194977  0.7743352917130224  0.4026989159744404  1.0000
  H   H14       1.0  0.6485366994003668  0.8909415524782105  0.32239077816102935  1.0000
  H   H15       1.0  0.7395840222078431  0.7883944791079643  0.5701911807849883  1.0000
  H   H16       1.0  0.5499482130936783  0.9302951921208518  0.5780877954378596  1.0000
  H   H17       1.0  0.572580813164521  0.22308698094187207  0.5925064214888636  1.0000
  H   H18       1.0  0.5704565265745174  0.0782559825134257  0.6334425579901791  1.0000
  C   C1        1.0  0.8562439068412359  0.27891849707312133  0.4971528546962816  1.0000
  C   C2        1.0  0.6849896222917878  0.5030711493160851  0.6424952823820362  1.0000
  C   C3        1.0  0.12220625052677989  0.7332447333869042  0.5060010438870961  1.0000
  C   C4        1.0  0.2979904386953365  0.5040155685981773  0.3652101778142908  1.0000
  C   C5        1.0  0.35691918193791855  0.4924618221391627  0.2809718381939561  1.0000
  C   C6        1.0  0.5326167540411431  0.5298552985346208  0.2416632874525604  1.0000
  C   C7        1.0  0.5836078553195777  0.5249800995561316  0.16265268396297472  1.0000
  C   C8        1.0  0.4612259330418594  0.48031825363773356  0.12116982078399022  1.0000
  C   C9        1.0  0.2893392498058488  0.43868612543757013  0.16154415777421602  1.0000
  C   C10       1.0  0.23693806312438423  0.44591173259288325  0.240434613951102  1.0000
  C   C11       1.0  0.5064739134864239  0.4804245788834224  0.04025904117879973  1.0000
  C   C12       1.0  0.5400796606741948  0.48511680928952233  0.9701858304001121  1.0000
  C   C13       1.0  0.5752383361206486  0.491170744179591  0.8890242948505361  1.0000
  C   C14       1.0  0.7420897317869403  0.5358216403548894  0.8470609692623655  1.0000
  C   C15       1.0  0.7767894412350099  0.539848206908232  0.7674111895262926  1.0000
  C   C16       1.0  0.6444276354590955  0.5014658707782259  0.727747060134604  1.0000
  C   C17       1.0  0.47580807562498256  0.45929415099291754  0.7689363932623297  1.0000
  C   C18       1.0  0.44236352054295486  0.45299087864917453  0.848595363188693  1.0000
  C   C19       1.0  0.926273008920731  0.13941848434654253  0.49560607825630854  1.0000
  C   C20       1.0  0.12482223573983478  0.07447138625183672  0.4509112259611996  1.0000
  C   C21       1.0  0.7920937352405062  0.0739385870012086  0.5383882260003007  1.0000
  C   C22       1.0  0.256046574287886  0.1393831696491219  0.4021722033460194  1.0000
  C   C23       1.0  0.44329866396005707  0.0747212889203155  0.3579849847033714  1.0000
  C   C24       1.0  0.05153802132918622  0.8734340304476689  0.49932166636553194  1.0000
  C   C25       1.0  0.8507402162566324  0.9387478675831031  0.5372353768937047  1.0000
  C   C26       1.0  0.18966566674384208  0.9392320337145464  0.45362553726932475  1.0000
  C   C27       1.0  0.3793292810284398  0.8761365874699579  0.40538969487842286  1.0000
  C   C28       1.0  0.5044769188519496  0.9419246730146184  0.3590590178870556  1.0000
  N   N1        1.0  0.7077251221070427  0.8805488279938416  0.5802549026339676  1.0000
  N   N2        1.0  0.6004849241598151  0.13079259618963593  0.5841468731574935  1.0000
  O   O1        1.0  0.6602792403847816  0.3367820117175384  0.48790180145667966  1.0000
  O   O2        1.0  0.857027173955281  0.5254666041021068  0.6088811297139217  1.0000
  O   O3        1.0  0.9877504360033457  0.6776069047509807  0.49635646111234893  1.0000
  O   O4        1.0  0.4296475563192033  0.5318670299141459  0.3996157263715858  1.0000
  O   O5        1.0  0.31208225491230485  0.675532842740104  0.5214721848091273  1.0000
  O   O6        1.0  0.11979467905904774  0.48717438257266116  0.39695984933121764  1.0000
  O   O7        1.0  0.9888296758285335  0.3331817049840424  0.5094404930941181  1.0000
  O   O8        1.0  0.5462621947418353  0.4797124151891269  0.6092629583082356  1.0000
  O   O9        1.0  0.25677289681159726  0.4411601478933136  0.5365699920923959  1.0000
  O   O10       1.0  0.7196234740315289  0.5668466470952963  0.4703932860714488  1.0000
