data_image0
_chemical_formula_structural       CuH10C12N12
_chemical_formula_sum              "Cu1 H10 C12 N12"
_cell_length_a       6.262032762164784
_cell_length_b       7.384222214635539
_cell_length_c       9.135257382627842
_cell_angle_alpha    103.63217168445846
_cell_angle_beta     99.16594069043332
_cell_angle_gamma    107.77789064414912

_space_group_name_H-M_alt    "P 1"
_space_group_IT_number       1

loop_
  _space_group_symop_operation_xyz
  'x, y, z'

loop_
  _atom_site_type_symbol
  _atom_site_label
  _atom_site_symmetry_multiplicity
  _atom_site_fract_x
  _atom_site_fract_y
  _atom_site_fract_z
  _atom_site_occupancy
  Cu  Cu1       1.0  6.497350888487907e-06  0.9999959551060301  0.9999997237103171  1.0000
  H   H1        1.0  0.4936090855498635  0.08361670629280843  0.1516607021287228  1.0000
  H   H2        1.0  0.5064065321625791  0.9164262811921233  0.8483504138347726  1.0000
  H   H3        1.0  0.9226823833222542  0.12085937912186039  0.31943814858841074  1.0000
  H   H4        1.0  0.07732295562703942  0.8791419549894923  0.6805592792216897  1.0000
  H   H5        1.0  0.16618453986703235  0.2516624696535104  0.5906764760530406  1.0000
  H   H6        1.0  0.8338023692860262  0.7483295902017846  0.4093312801615098  1.0000
  H   H7        1.0  0.7914013054720783  0.322291808254306  0.6728052910063481  1.0000
  H   H8        1.0  0.20860335346880995  0.6777079654271246  0.3271972282496803  1.0000
  H   H9        1.0  0.5554630892128145  0.31304451289835095  0.7539076399405429  1.0000
  H   H10       1.0  0.4445319262897344  0.6869595552719545  0.2461000990624384  1.0000
  C   C1        1.0  0.4238041248384264  0.12423313299426302  0.2513643878014662  1.0000
  C   C2        1.0  0.5762054093744524  0.8757905721497109  0.7486346053284334  1.0000
  C   C3        1.0  0.10630123189043422  0.141726187558028  0.34375776600831637  1.0000
  C   C4        1.0  0.8936997819100725  0.8582722403162819  0.6562298453362841  1.0000
  C   C5        1.0  0.47915199563377103  0.23984930859826653  0.5160763576941463  1.0000
  C   C6        1.0  0.5208545775008703  0.7601550366880545  0.4839196093287298  1.0000
  C   C7        1.0  0.2408445211462151  0.21340214017931203  0.49351329797435983  1.0000
  C   C8        1.0  0.7591514472567769  0.7865960886259771  0.5064857443311722  1.0000
  C   C9        1.0  0.14287586536254784  0.6361311086226562  0.8992266424728823  1.0000
  C   C10       1.0  0.8571082886348337  0.36385371121806276  0.10076187018510295  1.0000
  C   C11       1.0  0.2521319935792192  0.3594210215860798  0.8857619247187639  1.0000
  C   C12       1.0  0.7478845698017408  0.6405564185082111  0.11425071469492555  1.0000
  N   N1        1.0  0.1963214818270913  0.0949786724155075  0.22040793910781523  1.0000
  N   N2        1.0  0.8036847642822169  0.9050287228041255  0.7795820187645501  1.0000
  N   N3        1.0  0.5684309617027168  0.1956388855921887  0.39165514764937354  1.0000
  N   N4        1.0  0.4315893557602167  0.8043834539742036  0.6083437065248132  1.0000
  N   N5        1.0  0.6226143654750304  0.30990126195080586  0.6590093539508857  1.0000
  N   N6        1.0  0.37738677232101764  0.6901058793573683  0.3409963959347095  1.0000
  N   N7        1.0  0.13416258505985476  0.79662914299724  0.9414342272376215  1.0000
  N   N8        1.0  0.8657941058491262  0.2033478939339801  0.05855621798688301  1.0000
  N   N9        1.0  0.13274783497850257  0.4578135788639131  0.8349153487570999  1.0000
  N   N10       1.0  0.8672340324489412  0.5421610744244062  0.16505011712713719  1.0000
  N   N11       1.0  0.3458842877193078  0.2500965125382066  0.9137063962323707  1.0000
  N   N12       1.0  0.6541158997836404  0.7498849520494059  0.08632706763053467  1.0000
