data_image0
_chemical_formula_structural       AlH24C27NO6
_chemical_formula_sum              "Al1 H24 C27 N1 O6"
_cell_length_a       4.126575531746292
_cell_length_b       13.473662145009465
_cell_length_c       13.473884778046749
_cell_angle_alpha    119.99847182688872
_cell_angle_beta     90.00213625657385
_cell_angle_gamma    90.00118003788813

_space_group_name_H-M_alt    "P 1"
_space_group_IT_number       1

loop_
  _space_group_symop_operation_xyz
  'x, y, z'

loop_
  _atom_site_type_symbol
  _atom_site_label
  _atom_site_symmetry_multiplicity
  _atom_site_fract_x
  _atom_site_fract_y
  _atom_site_fract_z
  _atom_site_occupancy
  Al  Al1       1.0  0.9999833152495581  0.499998747139216  0.4999932420959183  1.0000
  H   H1        1.0  0.2291492139364095  0.029177464902041348  0.9006742086850608  1.0000
  H   H2        1.0  0.7708892739382096  0.029188209529898923  0.6285016641038368  1.0000
  H   H3        1.0  0.7709223080556029  0.09932505884828687  0.9708202455202369  1.0000
  H   H4        1.0  0.22911672353003354  0.37149516379897574  0.9708090610663832  1.0000
  H   H5        1.0  0.770958808664048  0.37148499173445515  0.9006774660685152  1.0000
  H   H6        1.0  0.2290598312498062  0.09931833875923966  0.6285111668509842  1.0000
  H   H7        1.0  0.7047628131997071  0.8365466431869705  0.4322606473990189  1.0000
  H   H8        1.0  0.7644622745128871  0.7103248893971427  0.44063574397112854  1.0000
  H   H9        1.0  0.06477036211236963  0.818184707636007  0.49324149420520763  1.0000
  H   H10       1.0  0.2952705349574814  0.8365233723540653  0.9042742683501783  1.0000
  H   H11       1.0  0.23551353744037581  0.7103010016846268  0.7696854323058558  1.0000
  H   H12       1.0  0.9352703037857496  0.8181823323569828  0.8249452301120568  1.0000
  H   H13       1.0  0.7047283491051604  0.095715688867628  0.1634745889262774  1.0000
  H   H14       1.0  0.7644681566131837  0.2303101978692368  0.2896871101340039  1.0000
  H   H15       1.0  0.06471966085582889  0.17505479245367186  0.1818224225956442  1.0000
  H   H16       1.0  0.29522814478693254  0.5677286217010716  0.1634483118716474  1.0000
  H   H17       1.0  0.23550324552837051  0.559357277965816  0.28966631671375603  1.0000
  H   H18       1.0  0.9352033562741155  0.5067565548807593  0.18180626651112422  1.0000
  H   H19       1.0  0.7047873672167668  0.5677373848549652  0.9042670140203698  1.0000
  H   H20       1.0  0.7645329932472792  0.559373387838697  0.7696841767365539  1.0000
  H   H21       1.0  0.06478245292320393  0.5067598927319211  0.8249449996123913  1.0000
  H   H22       1.0  0.2952527163117296  0.09572713412411835  0.43226383003246843  1.0000
  H   H23       1.0  0.23549882812378092  0.23031223566949424  0.44062231298136817  1.0000
  H   H24       1.0  0.9352450174302689  0.17505192696475552  0.4932361813051357  1.0000
  C   C1        1.0  0.4999447975479683  0.4121936250674024  0.32438167110651506  1.0000
  C   C2        1.0  0.49999242051690374  0.41219801977137394  0.5878134531183647  1.0000
  C   C3        1.0  0.5000135271604407  0.6756089715189901  0.5877984016478948  1.0000
  C   C4        1.0  0.3531290555148133  0.8636575537670693  0.76064918488899  1.0000
  C   C5        1.0  0.3492132859401096  0.9831638828977631  0.8178682512115643  1.0000
  C   C6        1.0  0.5000154200649052  0.044985302367138096  0.7724873973160129  1.0000
  C   C7        1.0  0.6507808868590885  0.9831802042817229  0.6653210022616634  1.0000
  C   C8        1.0  0.6469102274806174  0.8636611545327566  0.6030114740906496  1.0000
  C   C9        1.0  0.5000121434037441  0.8039760608960406  0.6519901652273105  1.0000
  C   C10       1.0  0.6508107951562465  0.18212483689837458  0.016828260566633384  1.0000
  C   C11       1.0  0.6468797481650341  0.23934402152553247  0.1363413182422306  1.0000
  C   C12       1.0  0.4999517149000284  0.34800229026445345  0.1960162741929494  1.0000
  C   C13       1.0  0.35305796059037675  0.3969797719384403  0.13633301300733788  1.0000
  C   C14       1.0  0.34921240928311204  0.33467002688055897  0.016807165635277985  1.0000
  C   C15       1.0  0.49999646903647493  0.22750896712252475  0.9550081948793191  1.0000
  C   C16       1.0  0.6508141287829403  0.3346820524466453  0.8178597976855642  1.0000
  C   C17       1.0  0.6469354470856815  0.39698328713247116  0.7606413346820203  1.0000
  C   C18       1.0  0.49999900348945664  0.34800944089221286  0.6519939733211757  1.0000
  C   C19       1.0  0.3530884074227032  0.23935867965843038  0.6030171020422658  1.0000
  C   C20       1.0  0.3492032662779962  0.18214116073379938  0.6653149264976008  1.0000
  C   C21       1.0  0.5000168036409675  0.22750374568548895  0.7724927172630344  1.0000
  C   C22       1.0  0.8019811681956172  0.803272113022821  0.4860073390981228  1.0000
  C   C23       1.0  0.198026064887884  0.8032750327239597  0.8172776271760968  1.0000
  C   C24       1.0  0.80196167226881  0.1827241348041895  0.19672774354536668  1.0000
  C   C25       1.0  0.19800002873727612  0.5139896506727551  0.19673302550449986  1.0000
  C   C26       1.0  0.8020206452830011  0.5140064926493723  0.8172766906375203  1.0000
  C   C27       1.0  0.1980306557744882  0.1827274264995253  0.4860036647419789  1.0000
  N   N1        1.0  0.5000184500220753  0.16667022105273355  0.833331652781432  1.0000
  O   O1        1.0  0.7351618892225177  0.6252240354871716  0.6059110465544677  1.0000
  O   O2        1.0  0.7350967681070983  0.48068723482235487  0.37475622519639973  1.0000
  O   O3        1.0  0.7351390075896803  0.3940813805073163  0.5193169278921488  1.0000
  O   O4        1.0  0.2648368329264487  0.625231068340156  0.5193028020840345  1.0000
  O   O5        1.0  0.2648444696947081  0.4806920346330728  0.6059223933496298  1.0000
  O   O6        1.0  0.2647861722401075  0.39408245688883153  0.3747643505970543  1.0000
