data_image0
_chemical_formula_structural       Ga2P4H22C24N4O16
_chemical_formula_sum              "Ga2 P4 H22 C24 N4 O16"
_cell_length_a       7.835625705018999
_cell_length_b       8.688332379980446
_cell_length_c       12.075244509563008
_cell_angle_alpha    108.38052698010446
_cell_angle_beta     106.05013719691557
_cell_angle_gamma    97.24711172011035

_space_group_name_H-M_alt    "P 1"
_space_group_IT_number       1

loop_
  _space_group_symop_operation_xyz
  'x, y, z'

loop_
  _atom_site_type_symbol
  _atom_site_label
  _atom_site_symmetry_multiplicity
  _atom_site_fract_x
  _atom_site_fract_y
  _atom_site_fract_z
  _atom_site_occupancy
  Ga  Ga1       1.0  0.0629779343051453  0.31665914036579323  0.6277779394868048  1.0000
  Ga  Ga2       1.0  0.9370733003465476  0.683287414296025  0.3722275315071997  1.0000
  P   P1        1.0  0.855807995435157  0.6072292769647164  0.6096382118424941  1.0000
  P   P2        1.0  0.25290788430081795  0.0036394067872080986  0.6084169928580181  1.0000
  P   P3        1.0  0.1441621935891391  0.3926680957174256  0.3903502805514307  1.0000
  P   P4        1.0  0.7470815619378115  0.9963000924053843  0.39160048323838476  1.0000
  H   H1        1.0  0.003619528655406199  0.21133909766535913  0.08399787129679478  1.0000
  H   H2        1.0  0.5787399841658639  0.8710334588475845  0.0822661682293315  1.0000
  H   H3        1.0  0.9963932699405617  0.7886717435612667  0.9160155168034692  1.0000
  H   H4        1.0  0.4212715259796412  0.12895258716434205  0.9177230242044061  1.0000
  H   H5        1.0  0.8119576144835888  0.9956679969188329  0.8737176384003577  1.0000
  H   H6        1.0  0.5626525866472106  0.8764807074442376  0.8719481106952998  1.0000
  H   H7        1.0  0.1880484496764154  0.0043377822970569  0.1263049504174703  1.0000
  H   H8        1.0  0.4373390470529229  0.12350554983056844  0.12804001035039653  1.0000
  H   H9        1.0  0.8305672137297507  0.040374219287883796  0.6830454483368271  1.0000
  H   H10       1.0  0.35329250727352945  0.642451613668129  0.6815939488213445  1.0000
  H   H11       1.0  0.16943123981833005  0.9596229515935877  0.3169687976094266  1.0000
  H   H12       1.0  0.6466938759254148  0.3575447183382323  0.318395553161622  1.0000
  H   H13       1.0  0.2453310447358206  0.48495993828491635  0.20483956056205  1.0000
  H   H14       1.0  0.4573657626666474  0.7179626988872487  0.2045122934733002  1.0000
  H   H15       1.0  0.754689076759192  0.5150483903215034  0.795167948380012  1.0000
  H   H16       1.0  0.5426540911183438  0.2820345381060534  0.7954785193515335  1.0000
  H   H17       1.0  0.1170944191162988  0.865564248139613  0.7119797910219746  1.0000
  H   H18       1.0  0.8828659395411479  0.1344296005948422  0.28802926111799826  1.0000
  H   H19       1.0  0.5807761689811102  0.6237558355693197  0.5260203655742188  1.0000
  H   H20       1.0  0.44679981448636136  0.8955935557237068  0.5310948044681111  1.0000
  H   H21       1.0  0.4195345905771433  0.37698343891389646  0.47411223559713994  1.0000
  H   H22       1.0  0.5532709480408401  0.10484817719899549  0.468724946540469  1.0000
  C   C1        1.0  0.13458083253489408  0.37617262495389536  0.8902428876094319  1.0000
  C   C2        1.0  0.2553108601751575  0.5144657401890669  0.8900694926543551  1.0000
  C   C3        1.0  0.8654270140378699  0.6238246194750304  0.10975734367153218  1.0000
  C   C4        1.0  0.7447009354110391  0.48552645083378104  0.10993028452300278  1.0000
  C   C5        1.0  0.13189492923218177  0.3641028823335759  0.003969748506250426  1.0000
  C   C6        1.0  0.3710549292122137  0.6393470120378524  0.0035003961573210336  1.0000
  C   C7        1.0  0.868108281972951  0.6358969013179632  0.9960318864880832  1.0000
  C   C8        1.0  0.6289585822594788  0.36065146444363444  0.9964970069956253  1.0000
  C   C9        1.0  0.011301547923352497  0.22381609752774517  0.9979840562058655  1.0000
  C   C10       1.0  0.48565798138724864  0.7730201610139956  0.9967222880428892  1.0000
  C   C11       1.0  0.9887049304854115  0.7761860704216731  0.002025348866936777  1.0000
  C   C12       1.0  0.5143445811972356  0.22697219119339712  0.0032717111001546056  1.0000
  C   C13       1.0  0.9045638885461783  0.1068098173169929  0.8830488910679505  1.0000
  C   C14       1.0  0.4785747238537824  0.7753266227520826  0.8815733544031944  1.0000
  C   C15       1.0  0.09543660845704947  0.8931899006101319  0.11696051815448533  1.0000
  C   C16       1.0  0.5214205112872605  0.22465829018812405  0.118419249325747  1.0000
  C   C17       1.0  0.9141784308816056  0.12948579502346294  0.7745723034048028  1.0000
  C   C18       1.0  0.3608218541615926  0.6452846843060769  0.7734869488994889  1.0000
  C   C19       1.0  0.08582369078362004  0.8705101293284015  0.22543817826652907  1.0000
  C   C20       1.0  0.6391757142707063  0.3547039545275156  0.22650694086728862  1.0000
  C   C21       1.0  0.2502125372856199  0.4922687731849251  0.11736808693796524  1.0000
  C   C22       1.0  0.3656948868415242  0.6239049920017479  0.11716263568837353  1.0000
  C   C23       1.0  0.7497940144670068  0.5077335023499856  0.8826322464808528  1.0000
  C   C24       1.0  0.6343156605978991  0.3760922985905992  0.8828314707561233  1.0000
  N   N1        1.0  0.0258930353210474  0.26137320794192936  0.7787904175531253  1.0000
  N   N2        1.0  0.2530569789346658  0.5184744247134886  0.7784995733412714  1.0000
  N   N3        1.0  0.9741190344938103  0.7386151664239478  0.22121349449136576  1.0000
  N   N4        1.0  0.7469491272053332  0.48150655302790574  0.22149823147925224  1.0000
  O   O1        1.0  0.8662999787284849  0.44207880935231714  0.6301664548546668  1.0000
  O   O2        1.0  0.2616750186389681  0.18785009061052446  0.6306094988808795  1.0000
  O   O3        1.0  0.1337325163982328  0.5578527486274966  0.36984953604491017  1.0000
  O   O4        1.0  0.7383292067502152  0.8120845789516549  0.36937972498277816  1.0000
  O   O5        1.0  0.9888858813511093  0.7573200316331425  0.7179328418673097  1.0000
  O   O6        1.0  0.23098504966108643  0.9636180301610935  0.720791072815544  1.0000
  O   O7        1.0  0.010994955619459297  0.24263983054693483  0.2820464637173927  1.0000
  O   O8        1.0  0.7689215655958178  0.036388707564171306  0.27923440602020844  1.0000
  O   O9        1.0  0.12022869201185664  0.8842021128950605  0.4837561626374765  1.0000
  O   O10       1.0  0.8584006471620212  0.5951653354528262  0.4812372636258432  1.0000
  O   O11       1.0  0.8797571032821595  0.115767739983589  0.5162444920731843  1.0000
  O   O12       1.0  0.14155872424206709  0.4048297766331501  0.5187719020400294  1.0000
  O   O13       1.0  0.6507888239889681  0.6281562112806683  0.6080138708505275  1.0000
  O   O14       1.0  0.45581630244510757  0.9819433355761051  0.6086936128901926  1.0000
  O   O15       1.0  0.3490130384828589  0.3714077696869894  0.39187185341093317  1.0000
  O   O16       1.0  0.5441392506863423  0.017833557485445805  0.3914133942224396  1.0000
