data_image0
_chemical_formula_structural       Cd4H48C56N8O16
_chemical_formula_sum              "Cd4 H48 C56 N8 O16"
_cell_length_a       6.837820426831042
_cell_length_b       10.556972707
_cell_length_c       18.5505
_cell_angle_alpha    90.0
_cell_angle_beta     94.29905828877096
_cell_angle_gamma    90.0

_space_group_name_H-M_alt    "P 1"
_space_group_IT_number       1

loop_
  _space_group_symop_operation_xyz
  'x, y, z'

loop_
  _atom_site_type_symbol
  _atom_site_label
  _atom_site_symmetry_multiplicity
  _atom_site_fract_x
  _atom_site_fract_y
  _atom_site_fract_z
  _atom_site_occupancy
  Cd  Cd1       1.0  0.2494301856825487  0.9204864187587207  0.49003545323020603  1.0000
  Cd  Cd2       1.0  0.7505696235152968  0.4204851261059517  0.009965026659756402  1.0000
  Cd  Cd3       1.0  0.7505666903538213  0.0795161665468171  0.509963867473914  1.0000
  Cd  Cd4       1.0  0.2494301856825487  0.5795155647170916  0.990035453230206  1.0000
  H   H1        1.0  0.5761623755111387  0.6881593996338466  0.7240925438277728  1.0000
  H   H2        1.0  0.4238418334289236  0.1881543180160818  0.775908596702898  1.0000
  H   H3        1.0  0.4238403668481823  0.311843185671691  0.2759069389719215  1.0000
  H   H4        1.0  0.5761609089304045  0.8118425838419655  0.2240914251658239  1.0000
  H   H5        1.0  0.3175953918276803  0.5253058953465768  0.7407963520308131  1.0000
  H   H6        1.0  0.6824117502738574  0.025306497176302407  0.7592054086166726  1.0000
  H   H7        1.0  0.6824088171123819  0.47469574271771364  0.2592031712927749  1.0000
  H   H8        1.0  0.3175924586662049  0.9746922991642466  0.2407946537759429  1.0000
  H   H9        1.0  0.0244860320101381  0.5176559750293208  0.6515555389774761  1.0000
  H   H10       1.0  0.9755240432528822  0.017654682376552  0.8484441464416861  1.0000
  H   H11       1.0  0.9755196435106654  0.4823437685524752  0.348444563939033  1.0000
  H   H12       1.0  0.02448016568718  0.9823469556877386  0.1515564550199571  1.0000
  H   H13       1.0  0.8801464315047269  0.7679066930451273  0.5314155725028584  1.0000
  H   H14       1.0  0.1198577774353353  0.2679054003923582  0.9685850289587917  1.0000
  H   H15       1.0  0.11985484427385978  0.2320921032954217  0.46858440884197705  1.0000
  H   H16       1.0  0.8801434983432515  0.7320943431894378  0.0314165695931266  1.0000
  H   H17       1.0  0.8367913717129412  0.605587432821615  0.5511647494418597  1.0000
  H   H18       1.0  0.16321283722712107  0.10558519292759881  0.9488363910888111  1.0000
  H   H19       1.0  0.1632113706463798  0.39441136351892686  0.4488358114958899  1.0000
  H   H20       1.0  0.8367855053899902  0.8944145506541973  0.05116404827725769  1.0000
  H   H21       1.0  0.9882466311594413  0.648475674798391  0.48091450203245495  1.0000
  H   H22       1.0  0.0117575777806209  0.148474382145622  0.0190860994291882  1.0000
  H   H23       1.0  0.0117546446191454  0.3515231215421579  0.5190854793123734  1.0000
  H   H24       1.0  0.9882407648364833  0.8515244141949267  0.9809143399368806  1.0000
  H   H25       1.0  0.8416692192492192  0.754187798053195  0.2538342344806637  1.0000
  H   H26       1.0  0.1583276567871508  0.25418650540042625  0.24616616436151872  1.0000
  H   H27       1.0  0.1583276567871508  0.2458128927698482  0.746165625292491  1.0000
  H   H28       1.0  0.8416721524106947  0.7458113436988754  0.753832698321368  1.0000
  H   H29       1.0  0.07785930482667419  0.5927854673575582  0.215403306897862  1.0000
  H   H30       1.0  0.9221405043711712  0.0927841747047893  0.2845971729921075  1.0000
  H   H31       1.0  0.9221419709519125  0.4072161707067324  0.7845977525850287  1.0000
  H   H32       1.0  0.0778607714074084  0.9072127271532581  0.7154022692837004  1.0000
  H   H33       1.0  0.3908188349399282  0.5589481155035473  0.2904291273871138  1.0000
  H   H34       1.0  0.6091780410964418  0.05894777009202561  0.209573427731172  1.0000
  H   H35       1.0  0.6091795076771759  0.4410544698019905  0.709572929186038  1.0000
  H   H36       1.0  0.3908203015206695  0.9410510262485232  0.7904270116348968  1.0000
  H   H37       1.0  0.5744699413389043  0.774979743442465  0.4331323267869607  1.0000
  H   H38       1.0  0.42552840127820707  0.2749784507896962  0.06686919071716349  1.0000
  H   H39       1.0  0.42552840127820707  0.22502094738057113  0.566869729786191  1.0000
  H   H40       1.0  0.5744714079196385  0.7250203455508456  0.9331307501037712  1.0000
  H   H41       1.0  0.6169289202994577  0.6265574595654756  0.39109214355614347  1.0000
  H   H42       1.0  0.3830679557369123  0.1265571141539539  0.1089077162170113  1.0000
  H   H43       1.0  0.3830679557369123  0.3734422840163134  0.6089082552860389  1.0000
  H   H44       1.0  0.616930386880199  0.8734397877040934  0.8910916450110022  1.0000
  H   H45       1.0  0.4744960655562593  0.63505421355827  0.4675511020612221  1.0000
  H   H46       1.0  0.5255052102223203  0.1350548153879956  0.0324499574216617  1.0000
  H   H47       1.0  0.5255022770608448  0.3649464772647733  0.5324498763738745  1.0000
  H   H48       1.0  0.4744960655562593  0.8649439809525534  0.967549484854139  1.0000
  C   C1        1.0  0.42394009433839835  0.764656708323912  0.6272446990440059  1.0000
  C   C2        1.0  0.5760626480209226  0.2646544684298959  0.8727574791008267  1.0000
  C   C3        1.0  0.5760597148594471  0.2353468242228729  0.3727552417769289  1.0000
  C   C4        1.0  0.42394009433839835  0.7353471696343946  0.12724254276789543  1.0000
  C   C5        1.0  0.4484627908669978  0.6813146343772233  0.6856706077399437  1.0000
  C   C6        1.0  0.5515443512345399  0.1813123944832071  0.8143300747694937  1.0000
  C   C7        1.0  0.5515414180730644  0.3186879509283145  0.3143272983765684  1.0000
  C   C8        1.0  0.4484569245440468  0.8186864018573418  0.18567044564436938  1.0000
  C   C9        1.0  0.3045428232549554  0.590425889409282  0.6948746532870373  1.0000
  C   C10       1.0  0.6954687185887992  0.090428385721502  0.805125611725046  1.0000
  C   C11       1.0  0.6954657854273165  0.409573854172514  0.3051255306772589  1.0000
  C   C12       1.0  0.304534023770529  0.9095713578602869  0.19487494921270349  1.0000
  C   C13       1.0  0.1409838729735498  0.5862873923976295  0.6455715680237687  1.0000
  C   C14       1.0  0.8590247357087293  0.08628704698610792  0.8544291550095622  1.0000
  C   C15       1.0  0.8590203359665126  0.4137114039429123  0.3544279552998262  1.0000
  C   C16       1.0  0.1409780066505917  0.9137136438369283  0.1455714059281945  1.0000
  C   C17       1.0  0.1230329247342041  0.6730414293189073  0.588436111885251  1.0000
  C   C18       1.0  0.8769742173673336  0.1730401366661383  0.9115651096932141  1.0000
  C   C19       1.0  0.8769683510443755  0.3269583142628819  0.4115633303905568  1.0000
  C   C20       1.0  0.1230285249919874  0.8269615013981523  0.0884354512445427  1.0000
  C   C21       1.0  0.5791292683451417  0.8642676507016205  0.615058866404631  1.0000
  C   C22       1.0  0.4208705408527038  0.3642616218426086  0.8849410744163108  1.0000
  C   C23       1.0  0.4208705408527038  0.13573493460391722  0.3849399962782556  1.0000
  C   C24       1.0  0.5791292683451417  0.635736227256686  0.1150594054736587  1.0000
  C   C25       1.0  0.9470577111184326  0.6733956975455868  0.5352810918577617  1.0000
  C   C26       1.0  0.05294796440237091  0.17339440489281802  0.9647200891968097  1.0000
  C   C27       1.0  0.0529450312408883  0.326603098794962  0.464719469079995  1.0000
  C   C28       1.0  0.9470518447954746  0.8266062859302253  0.0352809297621874  1.0000
  C   C29       1.0  0.026546577947741  0.8075799982268564  0.3482891144916778  1.0000
  C   C30       1.0  0.973450298088629  0.3075824945390764  0.1517129015575875  1.0000
  C   C31       1.0  0.9734517646693703  0.19242069259618697  0.6517118639434258  1.0000
  C   C32       1.0  0.0265495111092164  0.6924181962839668  0.848287578332382  1.0000
  C   C33       1.0  0.9793518189803833  0.7383868667985923  0.2855332835244937  1.0000
  C   C34       1.0  0.0206465236367208  0.2383855741458234  0.2144671558415752  1.0000
  C   C35       1.0  0.0206465236367208  0.26161287678320383  0.7144676949106028  1.0000
  C   C36       1.0  0.9793518189803833  0.7616103804709768  0.7855316663174107  1.0000
  C   C37       1.0  0.1110802917153606  0.6478182893724168  0.2642924678497707  1.0000
  C   C38       1.0  0.8889180509017436  0.14781699671964793  0.23570743244727768  1.0000
  C   C39       1.0  0.8889180509017436  0.35218334869187373  0.7357074324472777  1.0000
  C   C40       1.0  0.1110802917153606  0.8521799051384066  0.764291928780743  1.0000
  C   C41       1.0  0.2856224651474619  0.6289312461324741  0.3063369762304404  1.0000
  C   C42       1.0  0.7143729443081668  0.1289318479621997  0.1936649992949242  1.0000
  C   C43       1.0  0.7143773440503836  0.3710713391730637  0.6936645817975773  1.0000
  C   C44       1.0  0.2856239317281961  0.8710669483783492  0.8063343214091958  1.0000
  C   C45       1.0  0.3259153043572383  0.7013970960718866  0.3689855982745556  1.0000
  C   C46       1.0  0.6740801050983904  0.20139769790161924  0.1310163772508162  1.0000
  C   C47       1.0  0.6740815716791317  0.29860454199239683  0.6310164177747097  1.0000
  C   C48       1.0  0.3259182375187137  0.7986010984389296  0.8689824449081769  1.0000
  C   C49       1.0  0.8802446924142089  0.9024054778206578  0.3744101207079567  1.0000
  C   C50       1.0  0.1197580499451192  0.4024098686153792  0.1255909792988206  1.0000
  C   C51       1.0  0.1197551167836366  0.0975952130023856  0.6255898201129781  1.0000
  C   C52       1.0  0.8802432258334676  0.5975936639314057  0.8744095411150354  1.0000
  C   C53       1.0  0.5088932501972394  0.6833464668537559  0.4174479390470792  1.0000
  C   C54       1.0  0.4911036258391306  0.1833451742009871  0.0825529988641307  1.0000
  C   C55       1.0  0.4911050924198719  0.3166542239692873  0.5825535784570519  1.0000
  C   C56       1.0  0.5088932501972394  0.8166536221395547  0.9174463218399964  1.0000
  N   N1        1.0  0.2644069081841991  0.7597111617691326  0.5798129122444209  1.0000
  N   N2        1.0  0.735597300755863  0.25970892187511657  0.9201882282862498  1.0000
  N   N3        1.0  0.7355929010136465  0.24028952905391074  0.42018648950748627  1.0000
  N   N4        1.0  0.2644054416034578  0.7402927161891739  0.079811793582472  1.0000
  N   N5        1.0  0.1969559268587204  0.789342762482903  0.3886760719136078  1.0000
  N   N6        1.0  0.8030409491776496  0.28934336431262864  0.1113259441356576  1.0000
  N   N7        1.0  0.8030424157583839  0.21065887558138743  0.6113254455905235  1.0000
  N   N8        1.0  0.19696032660093718  0.710655432027913  0.8886734981401432  1.0000
  O   O1        1.0  0.5665988025153297  0.9154963518652935  0.5512469554779925  1.0000
  O   O2        1.0  0.4333980735210403  0.415492217488783  0.948752904295162  1.0000
  O   O3        1.0  0.4333951403595648  0.0845062334402442  0.44875228417834023  1.0000
  O   O4        1.0  0.5665973359345884  0.5845046843692644  0.0512469149540991  1.0000
  O   O5        1.0  0.7078495931832833  0.8869777596176931  0.6642052147717975  1.0000
  O   O6        1.0  0.2921560823375131  0.3869736252411826  0.8357938100066561  1.0000
  O   O7        1.0  0.2921546157567789  0.11302198396410292  0.3357926913447074  1.0000
  O   O8        1.0  0.7078437268603324  0.6130242238581189  0.1642045136071957  1.0000
  O   O9        1.0  0.9264111874817118  0.9500526598263976  0.4377056640019532  1.0000
  O   O10       1.0  0.0735842219739169  0.4500513671736286  0.062293616178280296  1.0000
  O   O11       1.0  0.0735871551353995  0.04995181996164181  0.5622936972260674  1.0000
  O   O12       1.0  0.9264097209009705  0.5499531126144106  0.937706701616115  1.0000
  O   O13       1.0  0.7277525603855821  0.9251648432816211  0.3356465151693939  1.0000
  O   O14       1.0  0.2722413824893124  0.42516544511134674  0.1643538026249942  1.0000
  O   O15       1.0  0.2722443156507879  0.0748349003001749  0.664354422741809  1.0000
  O   O16       1.0  0.7277584267085331  0.5748333512292021  0.8356455991269129  1.0000
