data_image0
_chemical_formula_structural       Cu12H24C72N96
_chemical_formula_sum              "Cu12 H24 C72 N96"
_cell_length_a       18.462930863
_cell_length_b       18.462893842001527
_cell_length_c       18.462882074001527
_cell_angle_alpha    90.00004661769067
_cell_angle_beta     90.00000075099622
_cell_angle_gamma    90.00000154854179

_space_group_name_H-M_alt    "P 1"
_space_group_IT_number       1

loop_
  _space_group_symop_operation_xyz
  'x, y, z'

loop_
  _atom_site_type_symbol
  _atom_site_label
  _atom_site_symmetry_multiplicity
  _atom_site_fract_x
  _atom_site_fract_y
  _atom_site_fract_z
  _atom_site_occupancy
  Cu  Cu1       1.0  0.5000002492499718  0.13353974439758787  5.757590319999999e-08  1.0000
  Cu  Cu2       1.0  0.5000002657820204  0.8664604678117414  0.9999997017792027  1.0000
  Cu  Cu3       1.0  7.652730000000002e-09  0.5000002210929182  0.13353948455174697  1.0000
  Cu  Cu4       1.0  1.2495746699999999e-08  0.4999999776298907  0.8664602683038183  1.0000
  Cu  Cu5       1.0  0.1335394731906305  2.0520894139999995e-07  0.4999999447012796  1.0000
  Cu  Cu6       1.0  0.866460486674903  2.150934932e-07  0.4999999494649217  1.0000
  Cu  Cu7       1.0  0.13353947665703458  0.5000001685679862  2.0427612670000002e-07  1.0000
  Cu  Cu8       1.0  0.8664604901413072  0.5000001784525381  2.0903976859999997e-07  1.0000
  Cu  Cu9       1.0  0.5000002667078222  0.9999996095132532  0.866460474961549  1.0000
  Cu  Cu10      1.0  0.5000002483241629  6.106917279999999e-08  0.1335392843933363  1.0000
  Cu  Cu11      1.0  5.112127599999999e-09  0.1335393994353851  0.4999999981592465  1.0000
  Cu  Cu12      1.0  1.50363491e-08  0.8664602576605204  0.4999997546960984  1.0000
  H   H1        1.0  0.2647569941411306  0.2647575648102388  0.09945857927299778  1.0000
  H   H2        1.0  0.7352424323458066  0.7352428631326473  0.0994582321047375  1.0000
  H   H3        1.0  0.7352424312685599  0.26475735542187806  0.9005415303082953  1.0000
  H   H4        1.0  0.2647575474310386  0.735242641054093  0.9005417186514179  1.0000
  H   H5        1.0  0.09945767073037359  0.26475762982728673  0.2647577978853661  1.0000
  H   H6        1.0  0.0994582218357394  0.7352425715784248  0.7352424978903044  1.0000
  H   H7        1.0  0.9005417579410988  0.7352423909814122  0.2647574528656236  1.0000
  H   H8        1.0  0.900541754679317  0.26475729040505047  0.7352428533231714  1.0000
  H   H9        1.0  0.26475699299514593  0.09945905935604321  0.2647571900863497  1.0000
  H   H10       1.0  0.73524242793804  0.09945871547539298  0.7352427850026615  1.0000
  H   H11       1.0  0.2647575485770304  0.9005416881349785  0.7352425662110349  1.0000
  H   H12       1.0  0.7352424356763266  0.9005415030793456  0.26475751903761585  1.0000
  H   H13       1.0  0.2647575410603622  0.2647573490766746  0.9005415272503682  1.0000
  H   H14       1.0  0.7352424376392362  0.7352426473992962  0.9005417217093452  1.0000
  H   H15       1.0  0.26475754213761593  0.7352428567874439  0.09945822904680308  1.0000
  H   H16       1.0  0.7352429676009465  0.2647570295285533  0.0994585823307119  1.0000
  H   H17       1.0  0.2647575377298494  0.0994587091301966  0.7352427819447341  1.0000
  H   H18       1.0  0.7352424248291385  0.09945798244744  0.2647571931438435  1.0000
  H   H19       1.0  0.7352424387852211  0.9005416944801754  0.7352425692689691  1.0000
  H   H20       1.0  0.26475754546813596  0.9005414967341494  0.2647575159796815  1.0000
  H   H21       1.0  0.0994582154650701  0.26475727960122697  0.7352428481165061  1.0000
  H   H22       1.0  0.09945821872685201  0.7352423801775886  0.2647574476589512  1.0000
  H   H23       1.0  0.9005417515704295  0.2647576406308971  0.26475726146479417  1.0000
  H   H24       1.0  0.9005417610499933  0.7352425823822485  0.7352425030969768  1.0000
  C   C1        1.0  0.2407136825228378  0.24071368266049115  0.14769535037686407  1.0000
  C   C2        1.0  0.7592852029757609  0.759286242902469  0.1476950230838128  1.0000
  C   C3        1.0  0.7592846589840859  0.24071397630077473  0.8523052812689966  1.0000
  C   C4        1.0  0.24071369420059346  0.759286522555314  0.852304947235005  1.0000
  C   C5        1.0  0.1476954070715948  0.24071371924741672  0.24071387164318733  1.0000
  C   C6        1.0  0.1476954175200405  0.7592859418322816  0.7592858831320584  1.0000
  C   C7        1.0  0.8523029380304835  0.7592857403716947  0.24071408718631906  1.0000
  C   C8        1.0  0.852302934435322  0.24071393971362198  0.759286218375415  1.0000
  C   C9        1.0  0.2407136818779492  0.14769471629285388  0.24071383440612237  1.0000
  C   C10       1.0  0.7592846571098946  0.14769493425007596  0.759286179929205  1.0000
  C   C11       1.0  0.24071423647127685  0.8523044056689314  0.7592859215780549  1.0000
  C   C12       1.0  0.7592846632241361  0.8523052849531536  0.24071412442360438  1.0000
  C   C13       1.0  0.2407153120562242  0.240713427680177  0.852305277898317  1.0000
  C   C14       1.0  0.7592852076317058  0.759286529549037  0.852304950605479  1.0000
  C   C15       1.0  0.24071531442208277  0.7592862359085472  0.1476944780861089  1.0000
  C   C16       1.0  0.7592857375797735  0.2407142312808972  0.14769481212031368  1.0000
  C   C17       1.0  0.2407153101820398  0.14769492725638858  0.7592861765587456  1.0000
  C   C18       1.0  0.7592862785607223  0.14769634816730098  0.24071383777726393  1.0000
  C   C19       1.0  0.7592846666507782  0.8523054959164468  0.759285924948962  1.0000
  C   C20       1.0  0.2407153162962814  0.8523052779592462  0.2407135794259005  1.0000
  C   C21       1.0  0.14769703537568546  0.2407139302107239  0.7592856721685591  1.0000
  C   C22       1.0  0.1476975805966632  0.7592857308690242  0.2407140826067149  1.0000
  C   C23       1.0  0.8523045558861426  0.24071481200372347  0.24071333459601624  1.0000
  C   C24       1.0  0.8523029414571183  0.7592859513349808  0.7592858877116767  1.0000
  C   C25       1.0  0.27164484900770697  0.17881549008364317  0.1788150605332461  1.0000
  C   C26       1.0  0.3364758336951468  0.1467305834643254  0.1467306746374959  1.0000
  C   C27       1.0  0.7283562034054256  0.8211844607995784  0.1788153248277737  1.0000
  C   C28       1.0  0.6635241350423299  0.8532693413137835  0.1467304225673374  1.0000
  C   C29       1.0  0.7283561989520138  0.17881575756920398  0.8211844374957379  1.0000
  C   C30       1.0  0.6635241301440331  0.14673033367937185  0.8532693389132076  1.0000
  C   C31       1.0  0.27164486195047743  0.8211852575929298  0.8211841542264223  1.0000
  C   C32       1.0  0.33647638955663695  0.8532690827073565  0.8532690825917297  1.0000
  C   C33       1.0  0.17881505998288819  0.27164654850606956  0.1788161809495747  1.0000
  C   C34       1.0  0.1467307721684179  0.3364760254699987  0.14673075059576487  1.0000
  C   C35       1.0  0.1788145287858569  0.7283547382941575  0.8211846574853539  1.0000
  C   C36       1.0  0.1467307812655534  0.66352417721059  0.8532690041671671  1.0000
  C   C37       1.0  0.8211854508044354  0.72835231912466  0.17881745417449216  1.0000
  C   C38       1.0  0.8532686549432498  0.6635238993085505  0.14673142986355706  1.0000
  C   C39       1.0  0.8211854488650089  0.271647901748004  0.8211823093557198  1.0000
  C   C40       1.0  0.8532686551834914  0.3364757808028145  0.8532688757107322  1.0000
  C   C41       1.0  0.17881451771349083  0.17881606822398768  0.27164672040060367  1.0000
  C   C42       1.0  0.14673077085295458  0.14673065809684968  0.3364762389101799  1.0000
  C   C43       1.0  0.8211854469946118  0.17881734593623116  0.72835223600201  1.0000
  C   C44       1.0  0.8532686513604162  0.14673080067374397  0.663523774640737  1.0000
  C   C45       1.0  0.17881615430685827  0.8211841353217935  0.7283524931521441  1.0000
  C   C46       1.0  0.14673132420682583  0.8532690029568356  0.663523515852539  1.0000
  C   C47       1.0  0.8211854526748253  0.8211823333097499  0.27164806915522627  1.0000
  C   C48       1.0  0.8532686587663179  0.853268879437401  0.336475989306308  1.0000
  C   C49       1.0  0.1788145226017335  0.271647893084662  0.8211823051806064  1.0000
  C   C50       1.0  0.14673186008873526  0.33647577127409517  0.8532688711185727  1.0000
  C   C51       1.0  0.8211854550490755  0.7283520388221091  0.8211824951503743  1.0000
  C   C52       1.0  0.8532686596119348  0.6635241867393162  0.8532690087593336  1.0000
  C   C53       1.0  0.178814524541167  0.728352310461318  0.1788174499993787  1.0000
  C   C54       1.0  0.14673185984849368  0.6635238897796115  0.14673088364415315  1.0000
  C   C55       1.0  0.821185444620312  0.2716443906617982  0.17881618512380018  1.0000
  C   C56       1.0  0.8532691921406227  0.336476034998732  0.1467307551879315  1.0000
  C   C57       1.0  0.2716443116265594  0.17881575140975056  0.8211844345273249  1.0000
  C   C58       1.0  0.33647583836383177  0.14673032926863527  0.8532693367875408  1.0000
  C   C59       1.0  0.7283534865782573  0.17881441299012824  0.1788172300101891  1.0000
  C   C60       1.0  0.6635241254753624  0.1467316711290891  0.1467312183908405  1.0000
  C   C61       1.0  0.728355666024278  0.8211841804987826  0.821184698821632  1.0000
  C   C62       1.0  0.6635241397110292  0.8532696287449967  0.8532690847176025  1.0000
  C   C63       1.0  0.2716443160799784  0.8211844546401251  0.17881532185936067  1.0000
  C   C64       1.0  0.3364758432621358  0.8532693369030467  0.1467304204416777  1.0000
  C   C65       1.0  0.1788145207313434  0.17881733727288918  0.7283522318268965  1.0000
  C   C66       1.0  0.1467318562656743  0.14673133277192818  0.6635237700487977  1.0000
  C   C67       1.0  0.178814526411557  0.821182324646408  0.2716480649801198  1.0000
  C   C68       1.0  0.1467318636715689  0.8532688699086818  0.3364759847141484  1.0000
  C   C69       1.0  0.8211832774734944  0.1788155352608385  0.2716478078299787  1.0000
  C   C70       1.0  0.8532691908251594  0.14673120925249344  0.3364762435025667  1.0000
  C   C71       1.0  0.8211854556926568  0.8211825191044043  0.7283524973265825  1.0000
  C   C72       1.0  0.8532686609273981  0.853269012485782  0.6635240620719427  1.0000
  N   N1        1.0  0.3702402454172998  0.17286026630592485  0.0870877762387181  1.0000
  N   N2        1.0  0.42531384100779224  0.1287209202638735  0.07724314178818048  1.0000
  N   N3        1.0  0.6297597225319649  0.827140151571939  0.0870880440971433  1.0000
  N   N4        1.0  0.5746861268113577  0.8712789479769754  0.0772429032164368  1.0000
  N   N5        1.0  0.6297597191295026  0.1728600641376161  0.912912258571964  1.0000
  N   N6        1.0  0.574686122343664  0.12872126624686325  0.9227568571095118  1.0000
  N   N7        1.0  0.37024025973357777  0.8271399424033844  0.9129119814296301  1.0000
  N   N8        1.0  0.42531385664952387  0.8712787483042559  0.9227571582230919  1.0000
  N   N9        1.0  0.08708747953291152  0.37024051476100794  0.1728604872487054  1.0000
  N   N10       1.0  0.0772428891498791  0.42531420335607345  0.1287211386758997  1.0000
  N   N11       1.0  0.08708802899615621  0.6297596863110471  0.8271398083661693  1.0000
  N   N12       1.0  0.07724289607917  0.5746859974504303  0.8712791568109992  1.0000
  N   N13       1.0  0.9129124895498889  0.6297594312773072  0.17286059819268465  1.0000
  N   N14       1.0  0.9227570793495943  0.574685706768818  0.128720663310844  1.0000
  N   N15       1.0  0.9129124903592112  0.37024079206973676  0.8271397081571407  1.0000
  N   N16       1.0  0.9227570822337087  0.4253139752166391  0.8712791015394785  1.0000
  N   N17       1.0  0.1728598828985  0.08708780095254548  0.3702407158027583  1.0000
  N   N18       1.0  0.12872117048120663  0.0772426705579718  0.42531391167116067  1.0000
  N   N19       1.0  0.8271400793254671  0.08708737372588618  0.6297592492205624  1.0000
  N   N20       1.0  0.8712793331019667  0.07724274133945389  0.574686045342055  1.0000
  N   N21       1.0  0.1728598957955541  0.9129124024328166  0.6297590392998274  1.0000
  N   N22       1.0  0.1287211829170474  0.9227575316368403  0.5746858428576616  1.0000
  N   N23       1.0  0.8271400887928166  0.9129123056807131  0.37024105601408047  1.0000
  N   N24       1.0  0.8712793435637565  0.9227574808846125  0.4253142604665783  1.0000
  N   N25       1.0  0.1728598903184633  0.37024081698268657  0.9129123359000174  1.0000
  N   N26       1.0  0.1287211784813422  0.4253139854501099  0.9227575164969295  1.0000
  N   N27       1.0  0.8271400885446241  0.6297591895585413  0.912912445728814  1.0000
  N   N28       1.0  0.8712793421376689  0.5746860291014569  0.9227575820901777  1.0000
  N   N29       1.0  0.1728598883755978  0.6297593864026824  0.087087419202561  1.0000
  N   N30       1.0  0.1287211749169188  0.5746862167449222  0.0772427796591444  1.0000
  N   N31       1.0  0.8271400795736596  0.37024048984805796  0.0870878595058286  1.0000
  N   N32       1.0  0.871278792902231  0.4253136514956992  0.0772427237182356  1.0000
  N   N33       1.0  0.37024079077185235  0.08708798948850219  0.8271401310661232  1.0000
  N   N34       1.0  0.42531384555760354  0.07724285598366978  0.8712789567053532  1.0000
  N   N35       1.0  0.6297597130779522  0.08708772681706019  0.1728603755846692  1.0000
  N   N36       1.0  0.5746861163997606  0.0772430975406522  0.12872100030806877  1.0000
  N   N37       1.0  0.6297597285835224  0.9129124888924948  0.8271399270844313  1.0000
  N   N38       1.0  0.5746861327552679  0.9227571166831863  0.8712787600178797  1.0000
  N   N39       1.0  0.3702407976306645  0.9129122192210417  0.17286016822947659  1.0000
  N   N40       1.0  0.42531385209971256  0.92275681258424  0.1287208016786749  1.0000
  N   N41       1.0  0.0870874798793722  0.17286048325460968  0.6297592793044657  1.0000
  N   N42       1.0  0.07724288808067568  0.12872111793733146  0.5746860611234297  1.0000
  N   N43       1.0  0.0870874870238794  0.8271397178172109  0.37024047468315757  1.0000
  N   N44       1.0  0.07724289714836631  0.8712790828691722  0.4253142343634692  1.0000
  N   N45       1.0  0.9129124846674301  0.1728598471889313  0.37024075550620944  1.0000
  N   N46       1.0  0.9227570752707805  0.1287210685733982  0.42531393777426263  1.0000
  N   N47       1.0  0.9129124952416632  0.8271398345312091  0.6297595508433957  1.0000
  N   N48       1.0  0.9227576279383384  0.8712791550389695  0.5746858270762871  1.0000
  N   N49       1.0  0.62975918636306  0.82713994590339  0.9129119831163806  1.0000
  N   N50       1.0  0.5746861323983765  0.8712787503187722  0.9227571591939424  1.0000
  N   N51       1.0  0.3702407925000272  0.17286006063761047  0.9129122568852068  1.0000
  N   N52       1.0  0.42531384659481825  0.12872126423234687  0.9227568561386618  1.0000
  N   N53       1.0  0.37024079590248965  0.8271401480719333  0.08708804241039297  1.0000
  N   N54       1.0  0.4253138510625051  0.871278945962459  0.0772429022455867  1.0000
  N   N55       1.0  0.6297591720467751  0.1728602698059305  0.08708777792546839  1.0000
  N   N56       1.0  0.5746861167566452  0.12872092227838286  0.0772431427590305  1.0000
  N   N57       1.0  0.9129124938732647  0.6297596974485343  0.8271398137336448  1.0000
  N   N58       1.0  0.9227576258821202  0.574686008853476  0.8712791623064503  1.0000
  N   N59       1.0  0.9129124860358357  0.3702405258982822  0.1728599509889364  1.0000
  N   N60       1.0  0.922757077327006  0.42531367313220864  0.1287211441711236  1.0000
  N   N61       1.0  0.08708748385628702  0.3702407809322352  0.8271397027896652  1.0000
  N   N62       1.0  0.0772428940565746  0.4253139638136004  0.8712790960440344  1.0000
  N   N63       1.0  0.08708748304696463  0.6297594201395854  0.1728600511979579  1.0000
  N   N64       1.0  0.07724289117246032  0.5746856953657794  0.1287206578153999  1.0000
  N   N65       1.0  0.8271400905076689  0.9129124112567767  0.6297590435523401  1.0000
  N   N66       1.0  0.8712793445507856  0.9227575416513576  0.5746858476839449  1.0000
  N   N67       1.0  0.1728598940807018  0.9129122968567528  0.3702410517615603  1.0000
  N   N68       1.0  0.1287211819300254  0.9227574708700956  0.4253142556402949  1.0000
  N   N69       1.0  0.8271400776106218  0.08708780977650579  0.3702407200552713  1.0000
  N   N70       1.0  0.8712793321149379  0.0772426805724891  0.4253139164974371  1.0000
  N   N71       1.0  0.1728598846133522  0.08708736490192587  0.6297592449680492  1.0000
  N   N72       1.0  0.1287206298424195  0.07724273132492948  0.5746860405157719  1.0000
  N   N73       1.0  0.8271400830877127  0.6297593952266354  0.0870874234550811  1.0000
  N   N74       1.0  0.8712793365506499  0.5746862267594394  0.07724278448542068  1.0000
  N   N75       1.0  0.1728598848615448  0.37024048102409784  0.08708785525330849  1.0000
  N   N76       1.0  0.12872117289431628  0.4253136414811891  0.0772427188919522  1.0000
  N   N77       1.0  0.8271400850305781  0.37024082580663986  0.9129123401525375  1.0000
  N   N78       1.0  0.8712787984892572  0.4253139954646201  0.9227575213232058  1.0000
  N   N79       1.0  0.1728598938325092  0.629759722361264  0.912911899849277  1.0000
  N   N80       1.0  0.1287211805039306  0.5746860190867196  0.9227570356366497  1.0000
  N   N81       1.0  0.6297597242601469  0.9129122227210472  0.17286016991622688  1.0000
  N   N82       1.0  0.5746861278485654  0.9227568145989691  0.12872134427676937  1.0000
  N   N83       1.0  0.3702402603282238  0.9129119437655789  0.8271399253974607  1.0000
  N   N84       1.0  0.4253138570064153  0.9227571146686696  0.8712787590470299  1.0000
  N   N85       1.0  0.37024024482265366  0.08708772331704749  0.1728603738979118  1.0000
  N   N86       1.0  0.425313840650908  0.0772430955261356  0.12872099933721864  1.0000
  N   N87       1.0  0.6297597174013205  0.08708799298828747  0.827139591125629  1.0000
  N   N88       1.0  0.5746861213064561  0.0772428579981792  0.8712789576762034  1.0000
  N   N89       1.0  0.9129124935268038  0.8271397289547122  0.3702404800506328  1.0000
  N   N90       1.0  0.9227570853255  0.8712790942722106  0.4253142398589134  1.0000
  N   N91       1.0  0.9129124863822964  0.17286049439211126  0.6297592846719409  1.0000
  N   N92       1.0  0.9227570762578028  0.12872058771346667  0.5746860666186606  1.0000
  N   N93       1.0  0.08708748873873158  0.8271398233934945  0.6297590038486689  1.0000
  N   N94       1.0  0.0772428981353883  0.8712791436359241  0.5746858215808359  1.0000
  N   N95       1.0  0.0870874781645128  0.1728603776783331  0.3702407501389544  1.0000
  N   N96       1.0  0.07724288709364661  0.1287210571703596  0.4253139322788186  1.0000
