data_image0
_chemical_formula_structural       Cu2H16C18S2N8O6F6
_chemical_formula_sum              "Cu2 H16 C18 S2 N8 O6 F6"
_cell_length_a       8.159161711323291
_cell_length_b       8.217526453732544
_cell_length_c       10.818829178957085
_cell_angle_alpha    91.50140810647714
_cell_angle_beta     92.61911677271578
_cell_angle_gamma    113.92500814947309

_space_group_name_H-M_alt    "P 1"
_space_group_IT_number       1

loop_
  _space_group_symop_operation_xyz
  'x, y, z'

loop_
  _atom_site_type_symbol
  _atom_site_label
  _atom_site_symmetry_multiplicity
  _atom_site_fract_x
  _atom_site_fract_y
  _atom_site_fract_z
  _atom_site_occupancy
  Cu  Cu1       1.0  0.24289235053307578  0.4472176887342911  0.24224027870176448  1.0000
  Cu  Cu2       1.0  0.7571179240688437  0.5527596789364679  0.7577542226827133  1.0000
  H   H1        1.0  0.9307721146698426  0.2631503764791745  0.3984568566557057  1.0000
  H   H2        1.0  0.06922635133059882  0.7368549946023749  0.6015451792421516  1.0000
  H   H3        1.0  0.6084042437953839  0.0542600593573326  0.35338180335237  1.0000
  H   H4        1.0  0.39159749034002544  0.9457413150111266  0.6466211904287816  1.0000
  H   H5        1.0  0.6837089873243586  0.08217542249564501  0.9753325356355587  1.0000
  H   H6        1.0  0.3162901423057534  0.9178166199189092  0.024669265936083196  1.0000
  H   H7        1.0  0.0041866060482007575  0.29391155598445806  0.019457850050770293  1.0000
  H   H8        1.0  0.9958048896436935  0.7060858106135653  0.9805400985647594  1.0000
  H   H9        1.0  0.4179433538975277  0.7410712937219375  0.43823929521604293  1.0000
  H   H10       1.0  0.58205466938999  0.2589180708420358  0.5617559471291144  1.0000
  H   H11       1.0  0.3659046516967449  0.21726963500028523  0.3808577632760119  1.0000
  H   H12       1.0  0.6340958237048681  0.7827197279744667  0.6191366376807678  1.0000
  H   H13       1.0  0.3383884142992244  0.2075738148578452  0.08111128103884369  1.0000
  H   H14       1.0  0.6616112520209753  0.7924195501270574  0.91888501827583  1.0000
  H   H15       1.0  0.4598177763928533  0.7515680791877486  0.09536115457677137  1.0000
  H   H16       1.0  0.5401792981478479  0.248427946233484  0.9046323353619595  1.0000
  C   C1        1.0  0.9355697528072822  0.7389188441602881  0.3198464182357411  1.0000
  C   C2        1.0  0.06443610307962899  0.2610985352026916  0.6801625692192416  1.0000
  C   C3        1.0  0.8754315579707566  0.2237078967750676  0.30357807173466966  1.0000
  C   C4        1.0  0.12457087045052617  0.7763041388715805  0.6964242266095724  1.0000
  C   C5        1.0  0.6964555746582164  0.10717166764348458  0.2778916610289243  1.0000
  C   C6        1.0  0.30354466536597613  0.8928350364040227  0.7221104605658155  1.0000
  C   C7        1.0  0.7375041210355918  0.12242077309370102  0.07070287618280699  1.0000
  C   C8        1.0  0.2624957046152687  0.8775819323206235  0.9292991543593201  1.0000
  C   C9        1.0  0.9161801652814958  0.24008130111250386  0.09463258368432997  1.0000
  C   C10       1.0  0.08381639396925072  0.7599254027364779  0.9053694133818906  1.0000
  C   C11       1.0  0.4551947174015963  0.6332306962088835  0.46529380572287937  1.0000
  C   C12       1.0  0.5448016507091751  0.36675465588314893  0.5346939088010245  1.0000
  C   C13       1.0  0.4267803623786647  0.3446113747639927  0.43333508455723546  1.0000
  C   C14       1.0  0.5732157437499624  0.6553793122379759  0.5666545725119362  1.0000
  C   C15       1.0  0.41034159206606086  0.33827305202567715  0.04424835586219439  1.0000
  C   C16       1.0  0.589653993568021  0.6617283082393328  0.9557470351122958  1.0000
  C   C17       1.0  0.4764777312230636  0.6387630261212465  0.05163052473238849  1.0000
  C   C18       1.0  0.5235155240319216  0.3612236793309335  0.9483682023390685  1.0000
  S   S1        1.0  0.17557543145591128  0.8546362982371818  0.2827629585606032  1.0000
  S   S2        1.0  0.8244268480439062  0.14536640730948852  0.717239155000527  1.0000
  N   N1        1.0  0.9861259414562938  0.2915243053960452  0.21165583420386713  1.0000
  N   N2        1.0  0.013873069908555531  0.7084823968637152  0.7883453214739758  1.0000
  N   N3        1.0  0.6260339511967885  0.055720870707325794  0.1616914404395544  1.0000
  N   N4        1.0  0.37396287524069993  0.9442805033964419  0.8383113873035767  1.0000
  N   N5        1.0  0.380242409265378  0.47749940768879645  0.39677227931862546  1.0000
  N   N6        1.0  0.6197622957438115  0.5224912901058332  0.6032232147614351  1.0000
  N   N7        1.0  0.38518894128058173  0.47694882939605066  0.09686939215426799  1.0000
  N   N8        1.0  0.614810038274939  0.5230458615361684  0.9031232122087116  1.0000
  O   O1        1.0  0.2069389455790756  0.7154461668510663  0.21305835753968688  1.0000
  O   O2        1.0  0.7930550213104367  0.28455121709503584  0.7869489181687609  1.0000
  O   O3        1.0  0.17635199822085917  0.0015102964012712  0.20994365540975926  1.0000
  O   O4        1.0  0.8236546488170687  0.9984910833966012  0.7900622776315912  1.0000
  O   O5        1.0  0.2710261071838217  0.9058000651506573  0.4045563165585548  1.0000
  O   O6        1.0  0.728976855610931  0.09420131100554131  0.5954476431394935  1.0000
  F   F1        1.0  0.8795767058913596  0.8517251758498291  0.38053212427523414  1.0000
  F   F2        1.0  0.1204318750827227  0.14829885768263304  0.6194715376722825  1.0000
  F   F3        1.0  0.9115258623338108  0.5998415542419127  0.3934785423026525  1.0000
  F   F4        1.0  0.08847440776483502  0.40017715941155535  0.6065312061995627  1.0000
  F   F5        1.0  0.8271596772377875  0.6725923807339456  0.2148928329223238  1.0000
  F   F6        1.0  0.1728343075821215  0.327417000767106  0.7851155988418694  1.0000
