data_image0
_chemical_formula_structural       Cd2H32C34N8O8
_chemical_formula_sum              "Cd2 H32 C34 N8 O8"
_cell_length_a       8.74555145182575
_cell_length_b       10.40956882144365
_cell_length_c       11.859446123638707
_cell_angle_alpha    85.7678759147256
_cell_angle_beta     69.07516480466803
_cell_angle_gamma    67.3468939841761

_space_group_name_H-M_alt    "P 1"
_space_group_IT_number       1

loop_
  _space_group_symop_operation_xyz
  'x, y, z'

loop_
  _atom_site_type_symbol
  _atom_site_label
  _atom_site_symmetry_multiplicity
  _atom_site_fract_x
  _atom_site_fract_y
  _atom_site_fract_z
  _atom_site_occupancy
  Cd  Cd1       1.0  0.36063252059107487  0.17556947597747552  0.1399328379351559  1.0000
  Cd  Cd2       1.0  0.6393684286416317  0.824430723494217  0.8600676187091378  1.0000
  H   H1        1.0  0.2712690817972501  0.0382864454606917  0.42089617207096797  1.0000
  H   H2        1.0  0.7287318796628951  0.96171893774342  0.5791047887002488  1.0000
  H   H3        1.0  0.9490732249454649  0.4198948941439086  0.33250882034737117  1.0000
  H   H4        1.0  0.05092049013441623  0.5801074957225295  0.6674883926939115  1.0000
  H   H5        1.0  0.7722769722762377  0.3724149624090529  0.5696310398584783  1.0000
  H   H6        1.0  0.22772096333415692  0.6275811409819311  0.43036712471476324  1.0000
  H   H7        1.0  0.069255413413579  0.0127637922504462  0.6275340441815798  1.0000
  H   H8        1.0  0.9307497078659138  0.9872353228357865  0.37246451030390654  1.0000
  H   H9        1.0  0.8427476192957855  0.1265338414954087  0.6765036194157117  1.0000
  H   H10       1.0  0.15725755046743467  0.8734600715008297  0.3234977887605409  1.0000
  H   H11       1.0  0.9159983866387906  0.30942083414615945  0.7495350998447204  1.0000
  H   H12       1.0  0.08400578167602644  0.6905751708412565  0.2504656005743158  1.0000
  H   H13       1.0  0.14269502433695183  0.19411644645568776  0.701493342508975  1.0000
  H   H14       1.0  0.8573064665147854  0.8058775072251193  0.29850990197748917  1.0000
  H   H15       1.0  0.8323214251103791  0.1414108197193542  0.8959669663142972  1.0000
  H   H16       1.0  0.16767713728510353  0.8585893869880152  0.10403835217262977  1.0000
  H   H17       1.0  0.056292666156913605  0.0199854764416898  0.8444914063096147  1.0000
  H   H18       1.0  0.9437052187219519  0.9800136832985301  0.1555175364316526  1.0000
  H   H19       1.0  0.2343585569804674  0.022316620985584706  0.9605480348942236  1.0000
  H   H20       1.0  0.7656424226078258  0.9776835693073164  0.03945410065891509  1.0000
  H   H21       1.0  0.8150042367060308  0.40664151302324575  0.9681640968438213  1.0000
  H   H22       1.0  0.18499751146562457  0.5933596967004391  0.0318394511815043  1.0000
  H   H23       1.0  0.9885612173466496  0.4369028298243193  0.11443266058454066  1.0000
  H   H24       1.0  0.011446164149575085  0.563099357322443  0.8855676129542329  1.0000
  H   H25       1.0  0.5743942768707696  0.35868491606726144  0.9054521872979249  1.0000
  H   H26       1.0  0.4256058886007778  0.6413142685630362  0.09454601741976627  1.0000
  H   H27       1.0  0.397151120336666  0.6331297753091292  0.6491565631133082  1.0000
  H   H28       1.0  0.6028517255483052  0.36686627230596264  0.3508394328644683  1.0000
  H   H29       1.0  0.3509464447795665  0.44277486218730633  0.5650094187026723  1.0000
  H   H30       1.0  0.6490510432289014  0.5572222711363892  0.4349913300824395  1.0000
  H   H31       1.0  0.4114383519193439  0.21257598211887793  0.6562258248245454  1.0000
  H   H32       1.0  0.5885561954054239  0.7874222204989535  0.343776493834106  1.0000
  C   C1        1.0  0.16079944471913166  0.1362767444912834  0.42786907520093814  1.0000
  C   C2        1.0  0.8391985031187016  0.8637245426321201  0.5721295934992197  1.0000
  C   C3        1.0  0.9899411279417694  0.3336043625881401  0.38631743803757923  1.0000
  C   C4        1.0  0.010058789486947684  0.6663979380535137  0.6136806319406601  1.0000
  C   C5        1.0  0.9006508251351804  0.3119680124543934  0.503048857106627  1.0000
  C   C6        1.0  0.09934813932885328  0.6880311780884439  0.4969513588051696  1.0000
  C   C7        1.0  0.9786774260780717  0.1232690704330182  0.6438652195587975  1.0000
  C   C8        1.0  0.02132078498038923  0.8767290960896406  0.35613442333522727  1.0000
  C   C9        1.0  0.005889434178314398  0.1986429332493742  0.736158233666245  1.0000
  C   C10       1.0  0.9941135331289956  0.8013530776505747  0.26384447794690397  1.0000
  C   C11       1.0  0.9711417352874676  0.1317116508463911  0.8567533150033949  1.0000
  C   C12       1.0  0.028858984030549036  0.8682864717254476  0.14324818168337566  1.0000
  C   C13       1.0  0.14386802822375697  0.1301921434556021  0.9854270484771771  1.0000
  C   C14       1.0  0.8561334900332153  0.8698069893682288  0.014577539590618452  1.0000
  C   C15       1.0  0.925366508451539  0.3322601018441063  0.9907220522703424  1.0000
  C   C16       1.0  0.0746396568593894  0.6677420958045844  0.009279393008121377  1.0000
  C   C17       1.0  0.012765698787312397  0.34528968991919834  0.06246100819731738  1.0000
  C   C18       1.0  0.987237927908474  0.654712560859096  0.9375369043795626  1.0000
  C   C19       1.0  0.5404445266032027  0.6147440050916374  0.8210321206054585  1.0000
  C   C20       1.0  0.45954991152667185  0.3852594179737636  0.17896398654474402  1.0000
  C   C21       1.0  0.5324011139342345  0.1332908587217787  0.8410772876382706  1.0000
  C   C22       1.0  0.46759935734095825  0.8667103798614095  0.1589240743090485  1.0000
  C   C23       1.0  0.49292311438806286  0.272698055869192  0.7879324393777196  1.0000
  C   C24       1.0  0.5070782976243606  0.7273011090804005  0.21206627250912635  1.0000
  C   C25       1.0  0.5250818926921852  0.3776147394480205  0.8310471129855868  1.0000
  C   C26       1.0  0.4749207203277521  0.6223844195890322  0.16894958770716065  1.0000
  C   C27       1.0  0.49320235226156917  0.506566942247325  0.780066502566221  1.0000
  C   C28       1.0  0.506796781405988  0.4934343435529344  0.2199293154854089  1.0000
  C   C29       1.0  0.42510385255342686  0.5312508492732919  0.6864512894281557  1.0000
  C   C30       1.0  0.5748994864668473  0.468744154640909  0.31354464070101784  1.0000
  C   C31       1.0  0.3972937805932729  0.42540897026471214  0.6408796487179556  1.0000
  C   C32       1.0  0.6027048932449046  0.5745881617358392  0.35911824941862835  1.0000
  C   C33       1.0  0.4313809174085534  0.29658987345539606  0.6909860014522307  1.0000
  C   C34       1.0  0.5686167853368075  0.703409341357542  0.3090128678359817  1.0000
  N   N1        1.0  0.15122932885982723  0.22338120217290214  0.34048962278327355  1.0000
  N   N2        1.0  0.8487683405796034  0.7766232101406416  0.6595072322685949  1.0000
  N   N3        1.0  0.010891436700795499  0.1857080406750171  0.5278653543233743  1.0000
  N   N4        1.0  0.989107019450145  0.8142921981581067  0.4721340879826028  1.0000
  N   N5        1.0  0.010463231345113398  0.19507495964057847  0.9429024641301066  1.0000
  N   N6        1.0  0.989538501648752  0.8049262546725089  0.057100244440796616  1.0000
  N   N7        1.0  0.14849247475618907  0.21877761770819867  0.05852635408537309  1.0000
  N   N8        1.0  0.8515112307789036  0.7812194218013246  0.9414760910911109  1.0000
  O   O1        1.0  0.4537548672887225  0.7431016057571399  0.8112314819489864  1.0000
  O   O2        1.0  0.5462394949521895  0.2569018402552246  0.188760427929111  1.0000
  O   O3        1.0  0.668666028368314  0.5729364414384862  0.8599633721214486  1.0000
  O   O4        1.0  0.3313198631585264  0.4270722526409969  0.1400389229701915  1.0000
  O   O5        1.0  0.5232195626984365  0.03652729871586051  0.7867194400791957  1.0000
  O   O6        1.0  0.47677820075809746  0.9634718977395096  0.21328278702670633  1.0000
  O   O7        1.0  0.5775651489785857  0.11683110265355622  0.9336476745798304  1.0000
  O   O8        1.0  0.42243826298030007  0.8831690666354961  0.06635211749394897  1.0000
