data_image0
_chemical_formula_structural       K4H28C28S4O20
_chemical_formula_sum              "K4 H28 C28 S4 O20"
_cell_length_a       6.3794468410877565
_cell_length_b       10.028518739991387
_cell_length_c       16.174134909886284
_cell_angle_alpha    95.80483514000238
_cell_angle_beta     89.99784124511616
_cell_angle_gamma    108.54376803051062

_space_group_name_H-M_alt    "P 1"
_space_group_IT_number       1

loop_
  _space_group_symop_operation_xyz
  'x, y, z'

loop_
  _atom_site_type_symbol
  _atom_site_label
  _atom_site_symmetry_multiplicity
  _atom_site_fract_x
  _atom_site_fract_y
  _atom_site_fract_z
  _atom_site_occupancy
  K   K1        1.0  0.7615938787155443  0.011981859532013998  0.902965771113273  1.0000
  K   K2        1.0  0.7498532235525559  0.9878258146104952  0.5972346324899789  1.0000
  K   K3        1.0  0.238410014811812  0.9880137119713196  0.09703534901844792  1.0000
  K   K4        1.0  0.25012876558274394  0.012176109447416605  0.40276628685602844  1.0000
  H   H1        1.0  0.6257542405309452  0.1971121074904616  0.7548824235091944  1.0000
  H   H2        1.0  0.4295943518394056  0.8028315860439578  0.7454462173226021  1.0000
  H   H3        1.0  0.37425228098668123  0.802885584965935  0.24511821766677858  1.0000
  H   H4        1.0  0.5704059131967654  0.19716926907474888  0.2545558682324582  1.0000
  H   H5        1.0  0.29505279288333236  0.5622377105407707  0.942906242385867  1.0000
  H   H6        1.0  0.7330887363745191  0.4375912041969841  0.5571683471933684  1.0000
  H   H7        1.0  0.7049469733181298  0.437765281825051  0.057093510467375104  1.0000
  H   H8        1.0  0.2669099638798898  0.5624096563622275  0.4428331204504517  1.0000
  H   H9        1.0  0.6058298406876191  0.42826019976193647  0.7660953230733015  1.0000
  H   H10       1.0  0.1787427665088117  0.5718086037767307  0.7343892704483894  1.0000
  H   H11       1.0  0.3941714358036209  0.5717332724405539  0.23390380431985855  1.0000
  H   H12       1.0  0.8212548978295475  0.428193320006713  0.2656116487742609  1.0000
  H   H13       1.0  0.8067758932977185  0.6819637571170887  0.8114349513674101  1.0000
  H   H14       1.0  0.1254991198230684  0.3181237328540902  0.6889157107776429  1.0000
  H   H15       1.0  0.19322278797280026  0.31803079457623795  0.18856177384618186  1.0000
  H   H16       1.0  0.8745006163473832  0.6818760644808888  0.3110863052873327  1.0000
  H   H17       1.0  0.4395840137432643  0.382637808920677  0.916243830381916  1.0000
  H   H18       1.0  0.057456812379598404  0.6168968025934022  0.5838168476570831  1.0000
  H   H19       1.0  0.5604109926667533  0.6173556633915993  0.08375529706058422  1.0000
  H   H20       1.0  0.9425461079393217  0.3831093630961604  0.41618311365407124  1.0000
  H   H21       1.0  0.2782052706402638  0.35364088239789737  0.0084718550456202  1.0000
  H   H22       1.0  0.9251119731078249  0.6461198272926935  0.491639313226628  1.0000
  H   H23       1.0  0.7217965537935385  0.6463568209669502  0.9915275503201999  1.0000
  H   H24       1.0  0.07489041560683772  0.35388527520008484  0.508361196518024  1.0000
  H   H25       1.0  0.32933943145408057  0.20843376183326967  0.9475890663960558  1.0000
  H   H26       1.0  0.12167789016410074  0.7911433393546263  0.5525464327308642  1.0000
  H   H27       1.0  0.6706634534496985  0.7915660625120823  0.05240986002635142  1.0000
  H   H28       1.0  0.8783177186804637  0.2088638788428483  0.4474542160556255  1.0000
  C   C1        1.0  0.06328820075501801  0.6354913691743675  0.8791457933898956  1.0000
  C   C2        1.0  0.4281681312575359  0.36438625133618535  0.6210369999189924  1.0000
  C   C3        1.0  0.9367209678297432  0.36451161761372225  0.12085457731291174  1.0000
  C   C4        1.0  0.5718300401311539  0.635613551439299  0.3789643982347358  1.0000
  C   C5        1.0  0.14499801633303383  0.530964261391553  0.9039172862788691  1.0000
  C   C6        1.0  0.6144976440103278  0.46886402731878  0.5962845779346255  1.0000
  C   C7        1.0  0.8549996426211949  0.4690345160785298  0.09608033484330043  1.0000
  C   C8        1.0  0.3854973978148308  0.5311357863376999  0.4037155843966148  1.0000
  C   C9        1.0  0.03434090689145817  0.38920923993856593  0.8770867716381547  1.0000
  C   C10       1.0  0.645894647750417  0.6106455042793615  0.6231538416705364  1.0000
  C   C11       1.0  0.9656619752737684  0.6107905789937363  0.12291277270783503  1.0000
  C   C12       1.0  0.3541030302806547  0.3893564465693514  0.3768439879342226  1.0000
  C   C13       1.0  0.839990130543953  0.3521133159587393  0.8255714338546911  1.0000
  C   C14       1.0  0.4888907739856734  0.6478381678501961  0.6747688647194396  1.0000
  C   C15       1.0  0.16001117597829756  0.6478833512745936  0.17442543032673546  1.0000
  C   C16       1.0  0.5111068958297694  0.35216376675934663  0.32523081865605974  1.0000
  C   C17       1.0  0.757548638323975  0.4579269378851051  0.8042417224814218  1.0000
  C   C18       1.0  0.3006534335486961  0.5420868741116323  0.6961718820715677  1.0000
  C   C19       1.0  0.24246154171585488  0.5420686659867612  0.19575569005948526  1.0000
  C   C20       1.0  0.6993395391829154  0.4579150714063615  0.3038265654937788  1.0000
  C   C21       1.0  0.8694073334319867  0.6000441262951596  0.8302019907739793  1.0000
  C   C22       1.0  0.26996585543609797  0.3999780800102215  0.670057050061317  1.0000
  C   C23       1.0  0.13058612453456667  0.39995251942319493  0.16979734516343836  1.0000
  C   C24       1.0  0.730027640684142  0.6000249124653934  0.3299427028412652  1.0000
  C   C25       1.0  0.2994025897558927  0.30930219781750157  0.9451607441866944  1.0000
  C   C26       1.0  0.9907141419655904  0.690343900839885  0.5549594293871892  1.0000
  C   C27       1.0  0.7005976671575952  0.6906955055747871  0.054838661191460907  1.0000
  C   C28       1.0  0.00928668196731048  0.3096612070933985  0.4450404624462224  1.0000
  S   S1        1.0  0.21853446990014186  0.8162524974664791  0.9036177240421923  1.0000
  S   S2        1.0  0.4022002019395643  0.18363272371045977  0.5964045656535435  1.0000
  S   S3        1.0  0.7814574368844093  0.1837473162449044  0.09638243831372513  1.0000
  S   S4        1.0  0.5977985010533757  0.8163681422618012  0.4035962840666941  1.0000
  O   O1        1.0  0.09959318541583428  0.2782605847607513  0.895513381582383  1.0000
  O   O2        1.0  0.8221483701824042  0.721504704142056  0.604667796563831  1.0000
  O   O3        1.0  0.9004076031019181  0.7217381818283214  0.10448547536228153  1.0000
  O   O4        1.0  0.17785193036186797  0.27849935683360627  0.39533078993233073  1.0000
  O   O5        1.0  0.7429843488556713  0.2126715239456587  0.7997299506535642  1.0000
  O   O6        1.0  0.5315528876976288  0.7872823070673431  0.700693098403825  1.0000
  O   O7        1.0  0.2570242772636107  0.7873272425061799  0.20026890622941818  1.0000
  O   O8        1.0  0.4684432118589683  0.21271962215659812  0.29930720290758484  1.0000
  O   O9        1.0  0.38076031418961515  0.824044477892265  0.970102645468714  1.0000
  O   O10       1.0  0.5565193628555676  0.17579434720683912  0.5298687165332583  1.0000
  O   O11       1.0  0.6192388795153576  0.17595109910646295  0.029897856776436502  1.0000
  O   O12       1.0  0.44347830695987517  0.8242075874027037  0.47013096684224115  1.0000
  O   O13       1.0  0.06060678834856511  0.8903552951019978  0.9295649016938514  1.0000
  O   O14       1.0  0.17005870097247572  0.10987617784302019  0.5704975954988782  1.0000
  O   O15       1.0  0.9393945235578157  0.1096445184446964  0.07043526058804873  1.0000
  O   O16       1.0  0.8299394867545118  0.8901267928980372  0.42950462906102166  1.0000
  O   O17       1.0  0.32863858877649244  0.8659071252832508  0.8264676281059595  1.0000
  O   O18       1.0  0.46264139145338135  0.1337851886639854  0.6734858153098529  1.0000
  O   O19       1.0  0.6713684669909838  0.13409477127023453  0.173536380660579  1.0000
  O   O20       1.0  0.5373562728849776  0.8662167351194578  0.32651510391279714  1.0000
