data_image0
_chemical_formula_structural       Cd4H24C20N8O24
_chemical_formula_sum              "Cd4 H24 C20 N8 O24"
_cell_length_a       7.453887060195446
_cell_length_b       10.499517186668273
_cell_length_c       11.705858122815252
_cell_angle_alpha    84.14656787710247
_cell_angle_beta     71.46917703036284
_cell_angle_gamma    71.24367567181014

_space_group_name_H-M_alt    "P 1"
_space_group_IT_number       1

loop_
  _space_group_symop_operation_xyz
  'x, y, z'

loop_
  _atom_site_type_symbol
  _atom_site_label
  _atom_site_symmetry_multiplicity
  _atom_site_fract_x
  _atom_site_fract_y
  _atom_site_fract_z
  _atom_site_occupancy
  Cd  Cd1       1.0  0.9973181772854008  0.4022865803272708  0.1562513504802682  1.0000
  Cd  Cd2       1.0  0.8461740728593979  0.09784648527504199  0.15631204932834222  1.0000
  Cd  Cd3       1.0  0.002682917182113576  0.5977130260262271  0.8437480289594887  1.0000
  Cd  Cd4       1.0  0.15382531127424673  0.9021531179873603  0.84368903706482  1.0000
  H   H1        1.0  0.7779552071692781  0.4869414939175555  0.44687739336308163  1.0000
  H   H2        1.0  0.7751602171196552  0.013071694451497296  0.4467656755941223  1.0000
  H   H3        1.0  0.2220465492657766  0.5130591232035896  0.5531222748901429  1.0000
  H   H4        1.0  0.22484173251478987  0.986927913447552  0.5532328503689216  1.0000
  H   H5        1.0  0.4444356108799285  0.8721284315025457  0.35271657438539716  1.0000
  H   H6        1.0  0.20317627657426832  0.6280745857271911  0.35255854154787164  1.0000
  H   H7        1.0  0.5555623794488231  0.12787116342401814  0.6472830811068989  1.0000
  H   H8        1.0  0.796821127906533  0.37192501104896536  0.6474431096099097  1.0000
  H   H9        1.0  0.2889019092448423  0.5227074817843232  0.14056738730650412  1.0000
  H   H10       1.0  0.5705406697164933  0.9772613331363758  0.14046685132262846  1.0000
  H   H11       1.0  0.7110983300557336  0.47729212302362356  0.859432845609952  1.0000
  H   H12       1.0  0.42946088726937864  0.0227372673901698  0.8595325280157199  1.0000
  H   H13       1.0  0.3087399057707786  0.4107823837583169  0.24400036578662576  1.0000
  H   H14       1.0  0.447100155557095  0.0893043526905899  0.2438055552688355  1.0000
  H   H15       1.0  0.6912609954973449  0.5892182318172772  0.7560001559433048  1.0000
  H   H16       1.0  0.5529012082293935  0.9106952570580588  0.7561949663597005  1.0000
  H   H17       1.0  0.6960928081914518  0.34784222893483724  0.06647881805755433  1.0000
  H   H18       1.0  0.23743537528464745  0.15222871948460442  0.06635897221205063  1.0000
  H   H19       1.0  0.3039069685907664  0.6521583817000759  0.9335214149602964  1.0000
  H   H20       1.0  0.7625645946969543  0.8477708819281983  0.9336401185156192  1.0000
  H   H21       1.0  0.6086994306615453  0.3631229479167501  0.21724837366868155  1.0000
  H   H22       1.0  0.17468455609056835  0.136913375515455  0.21694673805721723  1.0000
  H   H23       1.0  0.39130364345881247  0.6368766649229939  0.7827504410064421  1.0000
  H   H24       1.0  0.8253160758585738  0.863087236665002  0.7830526414839343  1.0000
  C   C1        1.0  0.6755058461779698  0.6923593215363439  0.24913915362442665  1.0000
  C   C2        1.0  0.07512710485698909  0.8076365144674824  0.2490021305298385  1.0000
  C   C3        1.0  0.32449326863669375  0.3076402783309148  0.7508607905799496  1.0000
  C   C4        1.0  0.9248704928231961  0.19236207308658484  0.7509983783377622  1.0000
  C   C5        1.0  0.5461565878742152  0.7712056830527841  0.35064170921806703  1.0000
  C   C6        1.0  0.10329887634038953  0.728917359154515  0.35050700537765783  1.0000
  C   C7        1.0  0.45384186497290835  0.22879290604682712  0.6493579461728275  1.0000
  C   C8        1.0  0.8966993833073434  0.27108223916719243  0.6494937923034173  1.0000
  C   C9        1.0  0.5758154238335607  0.6907636246354867  0.44990424997741485  1.0000
  C   C10       1.0  0.9745432769063955  0.8093950765760307  0.4497865580019182  1.0000
  C   C11       1.0  0.42418342166212863  0.30923597183663526  0.550094552038175  1.0000
  C   C12       1.0  0.02545537538991022  0.19060552911818718  0.5502133863038524  1.0000
  C   C13       1.0  0.7261206553248486  0.7170927519511777  0.11686441293874596  1.0000
  C   C14       1.0  0.15724408936610965  0.7829402365515179  0.11672379458613598  1.0000
  C   C15       1.0  0.27387799697145726  0.2829078537430405  0.8831355313670244  1.0000
  C   C16       1.0  0.8427546327999879  0.2170583559432372  0.8832770029935447  1.0000
  C   C17       1.0  0.4874166240289455  0.7125909154979124  0.5820776902253828  1.0000
  C   C18       1.0  0.9301639490722526  0.7874505344970542  0.5820118516320038  1.0000
  C   C19       1.0  0.5125828834342915  0.28740969174184977  0.4179214006036816  1.0000
  C   C20       1.0  0.06983648967750616  0.21255108690550628  0.4179886701993213  1.0000
  N   N1        1.0  0.7145230892428319  0.5725631409582802  0.4047979724036141  1.0000
  N   N2        1.0  0.8807471932460731  0.9274944749752901  0.4046687576960722  1.0000
  N   N3        1.0  0.2854766875393866  0.427437469676626  0.5952022606142365  1.0000
  N   N4        1.0  0.11925343870306908  0.072506137205167  0.5953306218450721  1.0000
  N   N5        1.0  0.7754713704881271  0.5719259965565013  0.2854816158002011  1.0000
  N   N6        1.0  0.9388909516905675  0.9280747276308643  0.2853298371565602  1.0000
  N   N7        1.0  0.22453084846529972  0.4280736147376913  0.714518052351636  1.0000
  N   N8        1.0  0.061110605295311926  0.071923872895681  0.7146695421817953  1.0000
  O   O1        1.0  0.8589751505903678  0.6194760105558855  0.05203256502017704  1.0000
  O   O2        1.0  0.09012338009684147  0.8807985280819038  0.05182752769248824  1.0000
  O   O3        1.0  0.1410257506777558  0.3805246050197083  0.9479679567097534  1.0000
  O   O4        1.0  0.9098742175833439  0.11920005947215628  0.9481729811751194  1.0000
  O   O5        1.0  0.6420690905422577  0.8298904149341052  0.077101574913968  1.0000
  O   O6        1.0  0.2807667236635326  0.6700033575261911  0.07702827896626734  1.0000
  O   O7        1.0  0.35792823781894634  0.170108169224811  0.9228977917648467  1.0000
  O   O8        1.0  0.7192318053031813  0.32999624419066015  0.9229736609036013  1.0000
  O   O9        1.0  0.5515966515609492  0.6147997784164402  0.6484039774929615  1.0000
  O   O10       1.0  0.7986684401795969  0.8849585315992738  0.6482443625035189  1.0000
  O   O11       1.0  0.4484057605918539  0.38519882365564934  0.3515945483686879  1.0000
  O   O12       1.0  0.20133001891731797  0.11504308331704746  0.35175672409243225  1.0000
  O   O13       1.0  0.35632188575715434  0.8234955116950854  0.6184079075730937  1.0000
  O   O14       1.0  0.025116801171620483  0.676653629854357  0.6184158199307035  1.0000
  O   O15       1.0  0.643679478029341  0.1765040980535559  0.3815926140554425  1.0000
  O   O16       1.0  0.9748842995456856  0.3233490023158509  0.3815849907141032  1.0000
  O   O17       1.0  0.28249898441493587  0.42965819541433337  0.16569741895469295  1.0000
  O   O18       1.0  0.5517039687621265  0.07036432363085508  0.16554675693643628  1.0000
  O   O19       1.0  0.7175023793715526  0.5703414143343083  0.8343031026738433  1.0000
  O   O20       1.0  0.4482982501913002  0.9296352876633377  0.8344529112153936  1.0000
  O   O21       1.0  0.7304112684307215  0.33514063852539516  0.14457902694078947  1.0000
  O   O22       1.0  0.12521470424566422  0.1648353993789087  0.1444820900862567  1.0000
  O   O23       1.0  0.2695924676571839  0.6648599850819963  0.8554200765478158  1.0000
  O   O24       1.0  0.8747855350549116  0.8351642054290452  0.8555181428301994  1.0000
