data_image0
_chemical_formula_structural       Gd2H30C18O24
_chemical_formula_sum              "Gd2 H30 C18 O24"
_cell_length_a       7.112981064785997
_cell_length_b       10.01736734734117
_cell_length_c       10.511356871821146
_cell_angle_alpha    115.00788805187501
_cell_angle_beta     105.23822718570042
_cell_angle_gamma    99.14920799575978

_space_group_name_H-M_alt    "P 1"
_space_group_IT_number       1

loop_
  _space_group_symop_operation_xyz
  'x, y, z'

loop_
  _atom_site_type_symbol
  _atom_site_label
  _atom_site_symmetry_multiplicity
  _atom_site_fract_x
  _atom_site_fract_y
  _atom_site_fract_z
  _atom_site_occupancy
  Gd  Gd1       1.0  0.1606503896685609  0.6565442664652184  0.6641785905651786  1.0000
  Gd  Gd2       1.0  0.9964037708495043  0.9923170437075091  0.33575332266558877  1.0000
  H   H1        1.0  0.9127365172244594  0.8843552349464616  0.7327282321498954  1.0000
  H   H2        1.0  0.6799511723804843  0.15150467021409503  0.2671956207376667  1.0000
  H   H3        1.0  0.26404940319607556  0.5568805847012968  0.9831729870939083  1.0000
  H   H4        1.0  0.7803750348426773  0.5738072859781411  0.01691385938024578  1.0000
  H   H5        1.0  0.22443193891139404  0.07851003357996691  0.7378409461824942  1.0000
  H   H6        1.0  0.9864895229568731  0.3407031087080839  0.262084655431181  1.0000
  H   H7        1.0  0.4632367420012572  0.31619350460046297  0.22339927472571464  1.0000
  H   H8        1.0  0.7403749499223766  0.09311539918817861  0.7765599015730869  1.0000
  H   H9        1.0  0.49754729917572865  0.7248065739278716  0.5457365538564074  1.0000
  H   H10       1.0  0.4518480764609976  0.17893844198658118  0.45420782426208445  1.0000
  H   H11       1.0  0.7328838663677358  0.4629552630375713  0.5860839355596139  1.0000
  H   H12       1.0  0.6467791785548728  0.8769696794912606  0.41405692690769047  1.0000
  H   H13       1.0  0.33816753019450363  0.4820520277128467  0.4413580168192721  1.0000
  H   H14       1.0  0.3967648646435861  0.04092878588435411  0.5587586816420964  1.0000
  H   H15       1.0  0.2723414459085589  0.3505866764046104  0.48026179653751894  1.0000
  H   H16       1.0  0.2923284549018632  0.8705607396640149  0.5199619646833611  1.0000
  H   H17       1.0  0.548340724828627  0.7297289660659418  0.9398734520659388  1.0000
  H   H18       1.0  0.10842114361431494  0.7898951664970754  0.060129741278636475  1.0000
  H   H19       1.0  0.8934543612933156  0.614591091230537  0.828689228754072  1.0000
  H   H20       1.0  0.5645892098668669  0.7857670329165817  0.17147729532643288  1.0000
  H   H21       1.0  0.5387684843212385  0.5793086599479766  0.7944661662552476  1.0000
  H   H22       1.0  0.2439073616917682  0.7846010813336266  0.20551653890986182  1.0000
  H   H23       1.0  0.7056674420809657  0.5221853234076975  0.46604315315776285  1.0000
  H   H24       1.0  0.7396593487893953  0.056290542022296115  0.5339916187907717  1.0000
  H   H25       1.0  0.5745217401327807  0.8430525526252667  0.7235520434691977  1.0000
  H   H26       1.0  0.3509571695168674  0.11922277700947602  0.2763599039865808  1.0000
  H   H27       1.0  0.9311469573549049  0.7940209355593173  0.8766054448369687  1.0000
  H   H28       1.0  0.5543004727528071  0.9171540481241823  0.12338297604524942  1.0000
  H   H29       1.0  0.9011320671932382  0.8591163876873439  0.5720889417699621  1.0000
  H   H30       1.0  0.8290438467280623  0.28692704379732004  0.42788884437091207  1.0000
  C   C1        1.0  0.4439375328329973  0.5962648848511237  0.26912407834303304  1.0000
  C   C2        1.0  0.674952156079904  0.32731424592040537  0.7308873113693293  1.0000
  C   C3        1.0  0.23295933024375157  0.3179938385613355  0.8462661815605371  1.0000
  C   C4        1.0  0.8864373322089423  0.4717804681901543  0.15372837189872257  1.0000
  C   C5        1.0  0.1485448419045809  0.3229795108955216  0.7011985887173251  1.0000
  C   C6        1.0  0.9471075231918321  0.6217639562380131  0.298855306705228  1.0000
  C   C7        1.0  0.34411641889038697  0.18093591343233584  0.981120122601872  1.0000
  C   C8        1.0  0.8631096687630518  0.1999507620414463  0.018818772524262787  1.0000
  C   C9        1.0  0.37613445304245374  0.03749666537019181  0.984153590527171  1.0000
  C   C10       1.0  0.892101441798687  0.0534860758773092  0.015778084279553205  1.0000
  C   C11       1.0  0.3731205814759734  0.45282462066892765  0.1203818548509403  1.0000
  C   C12       1.0  0.7527490387108245  0.33262603538642577  0.8796396991149249  1.0000
  C   C13       1.0  0.28767256916931666  0.45264393505861034  0.9843216953516033  1.0000
  C   C14       1.0  0.8030898064356367  0.46845576728409816  0.015714890122218612  1.0000
  C   C15       1.0  0.2634654412681384  0.18268417466720172  0.8450520655606083  1.0000
  C   C16       1.0  0.9182828322391005  0.3376702108294083  0.15488079731857585  1.0000
  C   C17       1.0  0.3985302543762259  0.3163252654062276  0.1175897127493996  1.0000
  C   C18       1.0  0.7811668088877893  0.19896154452813875  0.8823816650869103  1.0000
  O   O1        1.0  0.9395671019847428  0.8186597198511978  0.6425862968782637  1.0000
  O   O2        1.0  0.7970484482790925  0.17598670155736332  0.35730651157189897  1.0000
  O   O3        1.0  0.0024563956462129244  0.7114270499446178  0.8634076468912537  1.0000
  O   O4        1.0  0.6388218922290677  0.8477966526951093  0.13666570975481548  1.0000
  O   O5        1.0  0.7978004102632569  0.4821981224143599  0.518993682596168  1.0000
  O   O6        1.0  0.778808658928881  0.9633349317335277  0.48106301237575616  1.0000
  O   O7        1.0  0.09173632583711112  0.4391904172270957  0.709008601304177  1.0000
  O   O8        1.0  0.8825165619125529  0.7302325183498514  0.29117820762588315  1.0000
  O   O9        1.0  0.14257639184285859  0.21154727276011442  0.5805786053464742  1.0000
  O   O10       1.0  0.061799943542915535  0.6308344269265052  0.4194254728407145  1.0000
  O   O11       1.0  0.5044530473798902  0.5854714225105797  0.38908190980978213  1.0000
  O   O12       1.0  0.6154904682951924  0.19655887450740298  0.6109322142475547  1.0000
  O   O13       1.0  0.4448766360858302  0.7254799016916782  0.2724085022302915  1.0000
  O   O14       1.0  0.6726933380721293  0.45323037238324576  0.7275684889653744  1.0000
  O   O15       1.0  0.4509507972537179  0.04677521859851201  0.11431131161868535  1.0000
  O   O16       1.0  0.8367432856773788  0.9326319363760261  0.8855675280421377  1.0000
  O   O17       1.0  0.32982291494514016  0.9157632869684067  0.8610027343897924  1.0000
  O   O18       1.0  0.9687437742956178  0.05480768650910761  0.13889542916750483  1.0000
  O   O19       1.0  0.4740476870907743  0.6611802603701875  0.8297263808798616  1.0000
  O   O20       1.0  0.1438111216618906  0.831117681436318  0.17019030086008505  1.0000
  O   O21       1.0  0.2718378028862531  0.456296086045299  0.5029430583167666  1.0000
  O   O22       1.0  0.26894619941137415  0.9534351541333166  0.49708129146763697  1.0000
  O   O23       1.0  0.45411907171259724  0.7907401351840949  0.6282439768131313  1.0000
  O   O24       1.0  0.32585225854457184  0.1622390764977624  0.37162340323656906  1.0000
