data_image0
_chemical_formula_structural       Zn16H64C80N48O32
_chemical_formula_sum              "Zn16 H64 C80 N48 O32"
_cell_length_a       13.170933002092596
_cell_length_b       13.332639403139233
_cell_length_c       27.749589930170746
_cell_angle_alpha    90.00035862815851
_cell_angle_beta     90.00018255094415
_cell_angle_gamma    90.00038502135531

_space_group_name_H-M_alt    "P 1"
_space_group_IT_number       1

loop_
  _space_group_symop_operation_xyz
  'x, y, z'

loop_
  _atom_site_type_symbol
  _atom_site_label
  _atom_site_symmetry_multiplicity
  _atom_site_fract_x
  _atom_site_fract_y
  _atom_site_fract_z
  _atom_site_occupancy
  Zn  Zn1       1.0  0.008042645188027098  0.5616960264631105  0.8014725068823765  1.0000
  Zn  Zn2       1.0  0.9919609478170202  0.061693811436860806  0.1985281301445312  1.0000
  Zn  Zn3       1.0  0.5080363250505043  0.061692488846190906  0.6985300931749947  1.0000
  Zn  Zn4       1.0  0.49196878642830205  0.5616913487441763  0.30147018347847876  1.0000
  Zn  Zn5       1.0  0.10637054133354698  0.12034861491508762  0.7986653984733323  1.0000
  Zn  Zn6       1.0  0.8936250984837032  0.620348078180335  0.20133721520992506  1.0000
  Zn  Zn7       1.0  0.6063767475744442  0.6203436589217547  0.7013357292644358  1.0000
  Zn  Zn8       1.0  0.3936188922043301  0.12034478372296321  0.2986636411153611  1.0000
  Zn  Zn9       1.0  0.6663631928019456  0.013676246280205402  0.809677734542248  1.0000
  Zn  Zn10      1.0  0.333632481452419  0.5136763433484361  0.19032167824741464  1.0000
  Zn  Zn11      1.0  0.16637411149476122  0.5136730728482348  0.6903195659441578  1.0000
  Zn  Zn12      1.0  0.8336276367431665  0.013679516805325401  0.3096805675816583  1.0000
  Zn  Zn13      1.0  0.0573172759484777  0.9555574509767056  0.6892130953696807  1.0000
  Zn  Zn14      1.0  0.9426806415178035  0.45556163411539086  0.31079051751317616  1.0000
  Zn  Zn15      1.0  0.557316993872668  0.455559138960247  0.8107921976942265  1.0000
  Zn  Zn16      1.0  0.44267940509342907  0.9555591960830367  0.1892106944549425  1.0000
  H   H1        1.0  0.1708573979727603  0.02383104506530029  0.949194016236298  1.0000
  H   H2        1.0  0.8291277158171795  0.5238341016790713  0.050803624990472  1.0000
  H   H3        1.0  0.6708603565377588  0.5238143601970151  0.5508015197340796  1.0000
  H   H4        1.0  0.32913614589888607  0.0238327856341414  0.4491939592807057  1.0000
  H   H5        1.0  0.9197077569835556  0.16080424300187  0.048391588003681804  1.0000
  H   H6        1.0  0.08029271317980863  0.6607991608677466  0.9516089840726565  1.0000
  H   H7        1.0  0.4197051742215976  0.6607977531424041  0.4516087092080099  1.0000
  H   H8        1.0  0.5803028883717473  0.1607936501160339  0.5483900610279875  1.0000
  H   H9        1.0  0.7934171072246273  0.0745979006932842  0.4766312019353265  1.0000
  H   H10       1.0  0.2065782217997949  0.5746187813341451  0.5233698339431001  1.0000
  H   H11       1.0  0.2934163207983644  0.5746037836650616  0.023372243334428295  1.0000
  H   H12       1.0  0.7065729342077561  0.0746016477590175  0.9766291528881439  1.0000
  H   H13       1.0  0.989074113666298  0.8010230925561148  0.778735641491174  1.0000
  H   H14       1.0  0.0109333832392906  0.30102365695278627  0.221265708929252  1.0000
  H   H15       1.0  0.4890727234457088  0.3010240311778531  0.7212648249668804  1.0000
  H   H16       1.0  0.5109423659415242  0.8010242184343498  0.2787365254617598  1.0000
  H   H17       1.0  0.8114962309539279  0.9433622323265567  0.713572228506095  1.0000
  H   H18       1.0  0.18849477045267093  0.44337608384832083  0.286430987668524  1.0000
  H   H19       1.0  0.31150968632382353  0.4433715277980498  0.7864283829313692  1.0000
  H   H20       1.0  0.6884980185665769  0.9433840392827904  0.2135676259683876  1.0000
  H   H21       1.0  0.8833990763727047  0.09681900539511903  0.8417588635849568  1.0000
  H   H22       1.0  0.11659716277990381  0.5968104880810756  0.1582407970243196  1.0000
  H   H23       1.0  0.3834067513674668  0.5968139102524432  0.6582390261246686  1.0000
  H   H24       1.0  0.6165902469971201  0.09680508267977218  0.34176063446955146  1.0000
  H   H25       1.0  0.2920553378460866  0.9772821005515909  0.6494822748013432  1.0000
  H   H26       1.0  0.7079488011999686  0.4772837457290463  0.350519961376733  1.0000
  H   H27       1.0  0.7920530339739144  0.47727756029188834  0.8505158845712302  1.0000
  H   H28       1.0  0.2079404755572014  0.9772800354837872  0.14948022536953692  1.0000
  H   H29       1.0  0.9775828041268821  0.15253300391334082  0.9613683557667159  1.0000
  H   H30       1.0  0.022405461903879605  0.6525357893825756  0.0386332727538914  1.0000
  H   H31       1.0  0.47758439372642414  0.6525210865536764  0.5386359743675868  1.0000
  H   H32       1.0  0.5224167794350336  0.1525229555064271  0.4613670955890257  1.0000
  H   H33       1.0  0.3452738464452168  0.12378972503512391  0.7814988513344544  1.0000
  H   H34       1.0  0.6547256129708855  0.6237848260177828  0.21850197077414182  1.0000
  H   H35       1.0  0.8452847188097508  0.623790244967836  0.7185062661232634  1.0000
  H   H36       1.0  0.15472385161692165  0.1237933066003549  0.2814970785657138  1.0000
  H   H37       1.0  0.9712957250243334  0.933678034686281  0.45111044325927446  1.0000
  H   H38       1.0  0.028705839969482796  0.4336747725664338  0.5488862574491478  1.0000
  H   H39       1.0  0.4712947426474017  0.433678207921254  0.0488849826427327  1.0000
  H   H40       1.0  0.5287022668539976  0.9336723492015861  0.9511120784244297  1.0000
  H   H41       1.0  0.0820216902224686  0.8943877534514969  0.5224094776456454  1.0000
  H   H42       1.0  0.9179940335067656  0.39438421411590247  0.4775856644942563  1.0000
  H   H43       1.0  0.5820133718737637  0.3943848832249516  0.9775888249823907  1.0000
  H   H44       1.0  0.4179871669286187  0.894385584277856  0.02241604701684  1.0000
  H   H45       1.0  0.0960571214569796  0.011785896854369997  0.0326106651006555  1.0000
  H   H46       1.0  0.90393322524298  0.5117932463659899  0.967388381695187  1.0000
  H   H47       1.0  0.5960536531926408  0.5117799371911929  0.4673868769874687  1.0000
  H   H48       1.0  0.403937452687785  0.011780455048700803  0.5326110886839643  1.0000
  H   H49       1.0  0.893925603377923  0.020304138776410203  0.549653180034035  1.0000
  H   H50       1.0  0.1060761899469043  0.5203203916078608  0.4503462525409532  1.0000
  H   H51       1.0  0.3939290865433023  0.520319383490417  0.9503473811107028  1.0000
  H   H52       1.0  0.6060802992884006  0.020317147522341397  0.0496488081969702  1.0000
  H   H53       1.0  0.1519133746637635  0.743100707939945  0.6511517501429438  1.0000
  H   H54       1.0  0.8480868954384276  0.24309801225918903  0.34884942761185295  1.0000
  H   H55       1.0  0.6519178932698753  0.24309539574046823  0.8488490943998386  1.0000
  H   H56       1.0  0.3480854138222611  0.7431010743658604  0.1511542455481063  1.0000
  H   H57       1.0  0.661025163196541  0.7703335021047624  0.793470690625341  1.0000
  H   H58       1.0  0.33897377345414265  0.270335302954841  0.2065276853851543  1.0000
  H   H59       1.0  0.1610259557632787  0.27033274697997456  0.7065266457727901  1.0000
  H   H60       1.0  0.838973740120224  0.7703330579165382  0.29347028877108977  1.0000
  H   H61       1.0  0.5316590190329649  0.8356050806772399  0.6582358949623951  1.0000
  H   H62       1.0  0.4683471943114697  0.3355982680392983  0.3417612341398168  1.0000
  H   H63       1.0  0.0316591644227202  0.3356001025543591  0.8417607117666819  1.0000
  H   H64       1.0  0.9683432526996896  0.8356032461827214  0.15824146245214618  1.0000
  C   C1        1.0  0.9850211612884364  0.0709711705813376  0.107119940900418  1.0000
  C   C2        1.0  0.0149779392457887  0.5709663826202983  0.8928814444978456  1.0000
  C   C3        1.0  0.48502427412094573  0.570968409128021  0.3928787498218114  1.0000
  C   C4        1.0  0.514971030144622  0.07096464379600322  0.6071179508128495  1.0000
  C   C5        1.0  0.1083175498641538  0.07397163595574341  0.9399322832930038  1.0000
  C   C6        1.0  0.8916671453879134  0.5739774800685211  0.0600691110535649  1.0000
  C   C7        1.0  0.6083228458952163  0.5739640733216903  0.5600687092622678  1.0000
  C   C8        1.0  0.3916739972419592  0.07396329160380331  0.4399316039643821  1.0000
  C   C9        1.0  0.9759822636578264  0.10307472816912625  0.0564114845562145  1.0000
  C   C10       1.0  0.024017814268368902  0.6030729168385351  0.9435903569072507  1.0000
  C   C11       1.0  0.4759796292306008  0.6030696329927566  0.4435898101939699  1.0000
  C   C12       1.0  0.5240158931767597  0.10306901152660691  0.5564113105211206  1.0000
  C   C13       1.0  0.8436357960444313  0.028000248522552302  0.45473571329223006  1.0000
  C   C14       1.0  0.156358457137884  0.5280263334497023  0.5452662647918416  1.0000
  C   C15       1.0  0.3436366691934012  0.5280071693019649  0.04526803244154821  1.0000
  C   C16       1.0  0.6563621393965422  0.027998411578224105  0.954731783420698  1.0000
  C   C17       1.0  0.10186161793758688  0.107416273196371  0.8894177077178895  1.0000
  C   C18       1.0  0.8981233045472692  0.6074198239377112  0.1105823448544996  1.0000
  C   C19       1.0  0.6018657209257086  0.6074056242318163  0.6105804914430024  1.0000
  C   C20       1.0  0.39813362720273904  0.10741397207957704  0.3894177592877099  1.0000
  C   C21       1.0  0.029650593252142695  0.7633692554942043  0.7499109814250816  1.0000
  C   C22       1.0  0.9703574070467269  0.26336682449115056  0.2500906171183743  1.0000
  C   C23       1.0  0.5296468830738377  0.2633671455591085  0.7500897312136132  1.0000
  C   C24       1.0  0.4703633949652258  0.7633674343604754  0.24991258806077346  1.0000
  C   C25       1.0  0.8245018371850392  0.031057749194388893  0.4022502425223776  1.0000
  C   C26       1.0  0.1755007884667492  0.5310779007318659  0.5977488617477605  1.0000
  C   C27       1.0  0.3245083631973246  0.5310571093217291  0.0977487974668207  1.0000
  C   C28       1.0  0.6754927438965836  0.031063539795091796  0.9022467031229056  1.0000
  C   C29       1.0  0.8524684951659155  0.982390085581045  0.741866070336343  1.0000
  C   C30       1.0  0.14752580838819537  0.48239879271530833  0.2581350999733516  1.0000
  C   C31       1.0  0.35247569423219005  0.48239525896981666  0.7581321993137351  1.0000
  C   C32       1.0  0.647526961063228  0.9824041198628991  0.2418632051672063  1.0000
  C   C33       1.0  0.0534143862854251  0.9381394246100144  0.596854224048684  1.0000
  C   C34       1.0  0.9465879683004133  0.43814109731473394  0.4031468143544501  1.0000
  C   C35       1.0  0.5534124215494032  0.4381423264102011  0.9031506505911224  1.0000
  C   C36       1.0  0.446592970060209  0.9381441958629751  0.0968543518458844  1.0000
  C   C37       1.0  0.8889891812982853  0.06061441012248991  0.8068188382443467  1.0000
  C   C38       1.0  0.1110075711417906  0.5606160653711996  0.1931817955588571  1.0000
  C   C39       1.0  0.3889948037072557  0.560618774644233  0.6931796730836552  1.0000
  C   C40       1.0  0.6110027079825358  0.060614700991550294  0.3068184381648251  1.0000
  C   C41       1.0  0.28121543129523013  0.012702842127367801  0.6843184605896226  1.0000
  C   C42       1.0  0.7187832733357382  0.5127018961429428  0.3156820303964025  1.0000
  C   C43       1.0  0.7812216150371967  0.5126993889198843  0.8156800987503132  1.0000
  C   C44       1.0  0.21877481183039296  0.012703099199704602  0.1843164282080281  1.0000
  C   C45       1.0  0.0381807296415104  0.10169006224536761  0.9729172613756206  1.0000
  C   C46       1.0  0.9618087094406037  0.6016981891101523  0.0270838552355031  1.0000
  C   C47       1.0  0.5381873316454531  0.6016850662575949  0.5270822620199169  1.0000
  C   C48       1.0  0.4618165330637964  0.10168218403865843  0.4729166923771402  1.0000
  C   C49       1.0  0.30834685605412193  0.08730075448347921  0.7512457082371995  1.0000
  C   C50       1.0  0.691654633168085  0.5872949984032232  0.24875392400830523  1.0000
  C   C51       1.0  0.8083503308747169  0.5873054221752979  0.7487574405400822  1.0000
  C   C52       1.0  0.1916526768891558  0.08730158131856307  0.2512447142831888  1.0000
  C   C53       1.0  0.9219418155526781  0.9774353039750852  0.4748430726143482  1.0000
  C   C54       1.0  0.0780646023016871  0.4774448086643162  0.52515844330253  1.0000
  C   C55       1.0  0.42193536555535627  0.4774381654758244  0.0251574512051533  1.0000
  C   C56       1.0  0.5780596635503413  0.9774336966844999  0.9748422628620402  1.0000
  C   C57       1.0  0.027849580223573905  0.9348388271656348  0.5450015408887623  1.0000
  C   C58       1.0  0.9721618629096157  0.43484210130779394  0.4549984065884303  1.0000
  C   C59       1.0  0.5278418755852102  0.43484091031771754  0.9549996800366856  1.0000
  C   C60       1.0  0.47215817886444006  0.9348475185200513  0.045002069271149005  1.0000
  C   C61       1.0  0.0394523282776831  0.0678285563902463  0.0220937919388007  1.0000
  C   C62       1.0  0.9605406769532295  0.5678311700748324  0.9779093859266226  1.0000
  C   C63       1.0  0.5394519647616249  0.5678189847771336  0.47790635071906  1.0000
  C   C64       1.0  0.46054407735862674  0.06781674040864522  0.5220907008963209  1.0000
  C   C65       1.0  0.945191667951832  0.9795530749404618  0.525595916118256  1.0000
  C   C66       1.0  0.05481856051112291  0.4795572578701269  0.4744052457406553  1.0000
  C   C67       1.0  0.44518127928118634  0.47955659037162945  0.9744035720092158  1.0000
  C   C68       1.0  0.554817560456037  0.9795522423112077  0.0255957880100794  1.0000
  C   C69       1.0  0.1127233674684618  0.7339713270359453  0.6853104086851474  1.0000
  C   C70       1.0  0.8872783591123437  0.23397219308481007  0.3146914625946025  1.0000
  C   C71       1.0  0.6127231105186225  0.23397156620266912  0.8146903470035483  1.0000
  C   C72       1.0  0.3872793753170356  0.7339727039691083  0.1853129657406569  1.0000
  C   C73       1.0  0.6281148504912366  0.8098452490952184  0.7630281116080796  1.0000
  C   C74       1.0  0.37188435461920494  0.309843918565413  0.2369707425402936  1.0000
  C   C75       1.0  0.12811128372087674  0.3098471441527479  0.736967488970997  1.0000
  C   C76       1.0  0.8718795696711369  0.8098457736610954  0.2630292029822812  1.0000
  C   C77       1.0  0.5624679119547338  0.8430120559614451  0.694367635333009  1.0000
  C   C78       1.0  0.43753987021828783  0.3430068138309182  0.3056295158514999  1.0000
  C   C79       1.0  0.0624663060593491  0.3430111032018671  0.8056283212103067  1.0000
  C   C80       1.0  0.9375331244114947  0.8430115167768691  0.1943717128987075  1.0000
  N   N1        1.0  0.5998834621502951  0.766430369847086  0.7210364131850753  1.0000
  N   N2        1.0  0.40012683666805776  0.2664260286434157  0.2789601493623195  1.0000
  N   N3        1.0  0.09987485118953293  0.2664298165939556  0.7789572117389837  1.0000
  N   N4        1.0  0.9001172257054789  0.7664325821482764  0.221039350803018  1.0000
  N   N5        1.0  0.8108699633110064  0.015949923035329  0.7835405284093113  1.0000
  N   N6        1.0  0.18912648567766877  0.5159584037171854  0.2164617740963237  1.0000
  N   N7        1.0  0.3108764949617679  0.5159568436126989  0.7164580872717322  1.0000
  N   N8        1.0  0.6891229910285902  0.015961233612380003  0.2835373683027953  1.0000
  N   N9        1.0  0.0672485641618223  0.8089999941816614  0.7101775188762858  1.0000
  N   N10       1.0  0.9327551907075388  0.3089993355752511  0.28982565714536423  1.0000
  N   N11       1.0  0.5672473877463915  0.30899990654020837  0.7898248303877651  1.0000
  N   N12       1.0  0.43275408939484084  0.8090024233747501  0.2101797870992996  1.0000
  N   N13       1.0  0.04964201059627979  0.6654787270242936  0.7498794994375615  1.0000
  N   N14       1.0  0.9503676023223022  0.165477663666465  0.2501236091454615  1.0000
  N   N15       1.0  0.5496360228834973  0.1654788676084067  0.7501205924912641  1.0000
  N   N16       1.0  0.4503735900260182  0.6654782730977048  0.2498789124360243  1.0000
  N   N17       1.0  0.951125600335402  0.0042127376356831  0.739317985753985  1.0000
  N   N18       1.0  0.0488669726396438  0.5042148670477289  0.2606832006558619  1.0000
  N   N19       1.0  0.4511331761456177  0.5042157391633779  0.7606786533632999  1.0000
  N   N20       1.0  0.5488669893103407  0.004218615858690101  0.23931676721161207  1.0000
  N   N21       1.0  0.6099873861314721  0.9080470477825459  0.7627284194604513  1.0000
  N   N22       1.0  0.3900193194414641  0.40804059142392657  0.23727144813755527  1.0000
  N   N23       1.0  0.10998533979011431  0.408047446721703  0.7372696075172699  1.0000
  N   N24       1.0  0.890006940083147  0.9080439426178019  0.2627280978808599  1.0000
  N   N25       1.0  0.1915506617578444  0.021445894256963496  0.7063911617072519  1.0000
  N   N26       1.0  0.8084534170099502  0.5214437540319494  0.29360971570820743  1.0000
  N   N27       1.0  0.6915529070529232  0.5214444010673562  0.7936080033828361  1.0000
  N   N28       1.0  0.3084458569710691  0.0214459972168797  0.2063889100070142  1.0000
  N   N29       1.0  0.1029835163855282  0.6467434062197412  0.7083369175981531  1.0000
  N   N30       1.0  0.8970153397669023  0.14674478439665964  0.29166397293967355  1.0000
  N   N31       1.0  0.6029831110673385  0.14674259271723863  0.7916632023933659  1.0000
  N   N32       1.0  0.39701878207527125  0.6467440978406529  0.20833912960736  1.0000
  N   N33       1.0  0.5681937692965988  0.9292187204849185  0.7185486661876865  1.0000
  N   N34       1.0  0.43181308013537034  0.4292146225879705  0.2814501834254273  1.0000
  N   N35       1.0  0.06819580386470392  0.42922195019826853  0.7814511599932245  1.0000
  N   N36       1.0  0.9318049716221779  0.9292196433004137  0.2185502121872105  1.0000
  N   N37       1.0  0.35629917677968587  0.05371240346619291  0.7113341151152354  1.0000
  N   N38       1.0  0.6436952509926075  0.5537068532107625  0.2886654170048431  1.0000
  N   N39       1.0  0.8563051864818831  0.5537138454967305  0.78866720713944  1.0000
  N   N40       1.0  0.1436937967955672  0.05371141150528299  0.2113319646274761  1.0000
  N   N41       1.0  0.20925965509485422  0.06929422578399172  0.7493727830003465  1.0000
  N   N42       1.0  0.7907432302789061  0.5692891528558235  0.2506275163047675  1.0000
  N   N43       1.0  0.709261623478689  0.5692981680334412  0.750628354408569  1.0000
  N   N44       1.0  0.2907382249225209  0.0692912109038346  0.24937122417173194  1.0000
  N   N45       1.0  0.9741060541965327  0.054325447104353906  0.7811698681435786  1.0000
  N   N46       1.0  0.025892933232988507  0.5543216234890594  0.2188296658100199  1.0000
  N   N47       1.0  0.47411108260969564  0.5543263985279835  0.7188298394182979  1.0000
  N   N48       1.0  0.5258886640674804  0.05432067206795212  0.2811696945358975  1.0000
  O   O1        1.0  0.9439841292233667  0.1298770612388509  0.1392725436180555  1.0000
  O   O2        1.0  0.05602676026957451  0.6298706234119964  0.8607300984708033  1.0000
  O   O3        1.0  0.4439877941458761  0.6298731272029415  0.36072914106397747  1.0000
  O   O4        1.0  0.5560139843445951  0.12986930711833372  0.6392695369873564  1.0000
  O   O5        1.0  0.0321290418205251  0.9923182845559569  0.119133715123553  1.0000
  O   O6        1.0  0.9678645699171754  0.49231887673771996  0.8808674847674922  1.0000
  O   O7        1.0  0.5321322482238457  0.49231339313804773  0.38086551914980765  1.0000
  O   O8        1.0  0.4678628819667594  0.9923140176342641  0.6191327978024147  1.0000
  O   O9        1.0  0.869892747717472  0.9654916011303171  0.3746606325512261  1.0000
  O   O10       1.0  0.1301173852316992  0.4655057685373692  0.6253390459453029  1.0000
  O   O11       1.0  0.3698975726676181  0.46549052905245963  0.1253415756249296  1.0000
  O   O12       1.0  0.6301004122836248  0.9654970900626553  0.8746573821161405  1.0000
  O   O13       1.0  0.9878138709049651  0.9769122446632962  0.6268817667596522  1.0000
  O   O14       1.0  0.0121955803703102  0.47691781333157485  0.3731190268632361  1.0000
  O   O15       1.0  0.48780814438124764  0.4769151790277634  0.8731217445659283  1.0000
  O   O16       1.0  0.5122005476679519  0.9769171291101203  0.1268833734479458  1.0000
  O   O17       1.0  0.13737571609927102  0.903325985816963  0.6111715668866893  1.0000
  O   O18       1.0  0.8626309574164993  0.40332841241946943  0.3888254037265  1.0000
  O   O19       1.0  0.6373698628759357  0.4033324496080938  0.8888293720317576  1.0000
  O   O20       1.0  0.36263756993945145  0.9033286990413814  0.1111766077342295  1.0000
  O   O21       1.0  0.0315736543524423  0.16464992231063044  0.8748009451643242  1.0000
  O   O22       1.0  0.9684086200321075  0.6646571324191654  0.1251974761851145  1.0000
  O   O23       1.0  0.5315786107576912  0.6646364652960984  0.6251976743981444  1.0000
  O   O24       1.0  0.4684158115240252  0.16465033842720794  0.3748018280277279  1.0000
  O   O25       1.0  0.16990973366345233  0.07241273233861992  0.859708441216803  1.0000
  O   O26       1.0  0.8300802657018025  0.572410971037101  0.1402922277444532  1.0000
  O   O27       1.0  0.6699125095902473  0.5724039739155132  0.6402919228408238  1.0000
  O   O28       1.0  0.330086600708654  0.07240847890494712  0.3597087461108259  1.0000
  O   O29       1.0  0.7672570139726176  0.09804718257624502  0.3850752687652346  1.0000
  O   O30       1.0  0.2327521408082234  0.5980611899484886  0.6149233144516657  1.0000
  O   O31       1.0  0.26725757668270933  0.598050518610954  0.11492532232421131  1.0000
  O   O32       1.0  0.7327394301170999  0.09805410366639218  0.885071459049115  1.0000
