data_image0
_chemical_formula_structural       Zn4H28C28N4O24
_chemical_formula_sum              "Zn4 H28 C28 N4 O24"
_cell_length_a       7.272207576041125
_cell_length_b       9.267462093100525
_cell_length_c       12.822722587057003
_cell_angle_alpha    89.99964710586066
_cell_angle_beta     89.99995123454362
_cell_angle_gamma    89.99961555417786

_space_group_name_H-M_alt    "P 1"
_space_group_IT_number       1

loop_
  _space_group_symop_operation_xyz
  'x, y, z'

loop_
  _atom_site_type_symbol
  _atom_site_label
  _atom_site_symmetry_multiplicity
  _atom_site_fract_x
  _atom_site_fract_y
  _atom_site_fract_z
  _atom_site_occupancy
  Zn  Zn1       1.0  0.10665777862656971  0.36403357543717624  0.26466990796483  1.0000
  Zn  Zn2       1.0  0.39334231541182163  0.6359671470017078  0.7646737708385841  1.0000
  Zn  Zn3       1.0  0.6066566097148184  0.13596790373907205  0.7353269580660963  1.0000
  Zn  Zn4       1.0  0.8933355992699037  0.8640315337475291  0.23533152959905823  1.0000
  H   H1        1.0  0.5920676952147019  0.6011901903659905  0.4840789340954145  1.0000
  H   H2        1.0  0.9079297411377071  0.398808284817548  0.9840807633732991  1.0000
  H   H3        1.0  0.09207103802864941  0.8988122179977439  0.5159203118915485  1.0000
  H   H4        1.0  0.40792795388769326  0.10120133623421174  0.0159182577517356  1.0000
  H   H5        1.0  0.8415484739249807  0.412448628258595  0.4643486941591631  1.0000
  H   H6        1.0  0.6584572346701522  0.5875510878795822  0.9643459055788879  1.0000
  H   H7        1.0  0.3415476092289111  0.08754839003206881  0.5356628454925811  1.0000
  H   H8        1.0  0.15845686145863172  0.9124552908120832  0.0356517400152256  1.0000
  H   H9        1.0  0.45318066855762856  0.15771934723908743  0.28896932984807927  1.0000
  H   H10       1.0  0.0468276494123216  0.8422779386237524  0.7889763518327371  1.0000
  H   H11       1.0  0.9531708680667778  0.3422760105300214  0.7110273240061672  1.0000
  H   H12       1.0  0.546819992469274  0.6577301006885322  0.21101902251945856  1.0000
  H   H13       1.0  0.07691813940301272  0.15200849053436372  0.13725752757128618  1.0000
  H   H14       1.0  0.4230807194170367  0.8479857242158247  0.6372549344111959  1.0000
  H   H15       1.0  0.5769328748157038  0.34798559020186565  0.8627448157419905  1.0000
  H   H16       1.0  0.923071570215413  0.6520106435481667  0.36274488876314587  1.0000
  H   H17       1.0  0.19840484397951028  0.26972564627592294  0.0791073214842086  1.0000
  H   H18       1.0  0.3015913284742382  0.7302668875720998  0.5791100253367247  1.0000
  H   H19       1.0  0.6984054067078846  0.2302656435284477  0.9208902682539274  1.0000
  H   H20       1.0  0.8015989745061419  0.7697290339923057  0.4208961111522313  1.0000
  H   H21       1.0  0.8968628309797922  0.5303687239805868  0.16580572239384134  1.0000
  H   H22       1.0  0.6031294543103628  0.4696312840297597  0.6658081912410835  1.0000
  H   H23       1.0  0.3968693377726424  0.9696342546019284  0.8341917772182368  1.0000
  H   H24       1.0  0.1031293048628967  0.03036589732320041  0.334194915884666  1.0000
  H   H25       1.0  0.8134954510281319  0.3709133045230786  0.1412918212964058  1.0000
  H   H26       1.0  0.6864982362701968  0.6290858256059267  0.6412950627265062  1.0000
  H   H27       1.0  0.3135076237887446  0.12909141324215065  0.8587064777969785  1.0000
  H   H28       1.0  0.18649374214611925  0.8709063794117641  0.3587095845208949  1.0000
  C   C1        1.0  0.39684420879958543  0.47572196315610443  0.39866996477248756  1.0000
  C   C2        1.0  0.10315023774703042  0.5242830548577687  0.8986760806561804  1.0000
  C   C3        1.0  0.8968469022361987  0.024288794692289204  0.6013259436744604  1.0000
  C   C4        1.0  0.603150954209788  0.9757139005438092  0.10132627802010319  1.0000
  C   C5        1.0  0.24237619892835482  0.5841511622807545  0.40488139114641086  1.0000
  C   C6        1.0  0.25762236619922163  0.41583006578770915  0.9048855734441046  1.0000
  C   C7        1.0  0.7423810160863342  0.9158321193018535  0.5951123037837007  1.0000
  C   C8        1.0  0.7576113467991377  0.08416738979752131  0.09511509948379877  1.0000
  C   C9        1.0  0.5678650501550778  0.4999901134439499  0.44360493130540846  1.0000
  C   C10       1.0  0.9321283053342456  0.500006535801326  0.9436078383258248  1.0000
  C   C11       1.0  0.06787179463622549  9.409725414900001e-06  0.5563903987511906  1.0000
  C   C12       1.0  0.43212302760324667  0.9999951800480108  0.05638963969794728  1.0000
  C   C13       1.0  0.7045984021311253  0.39584478715515564  0.4321075715656446  1.0000
  C   C14       1.0  0.7954059667534638  0.6041541144961114  0.9321116412675321  1.0000
  C   C15       1.0  0.2045959834606776  0.10415618176509871  0.5678954734175007  1.0000
  C   C16       1.0  0.2954084518421353  0.8958483135919478  0.06788903993653149  1.0000
  C   C17       1.0  0.8078693588090715  0.15635855805278004  0.35471423246510614  1.0000
  C   C18       1.0  0.6921433456241034  0.8436377415653598  0.8547172598594839  1.0000
  C   C19       1.0  0.3078634106550453  0.34364511002220166  0.6452848499469681  1.0000
  C   C20       1.0  0.19214093969599594  0.6563609083216093  0.14528270472212768  1.0000
  C   C21       1.0  0.666068721287921  0.27046882917705534  0.3760417764037739  1.0000
  C   C22       1.0  0.8339370842634892  0.7295229792565722  0.8760460236159202  1.0000
  C   C23       1.0  0.16606515773896297  0.22952155004657732  0.6239573928699256  1.0000
  C   C24       1.0  0.3339295903490367  0.7704814062290524  0.12395073466422697  1.0000
  C   C25       1.0  0.48931231263334507  0.2533299256883553  0.33410459846471224  1.0000
  C   C26       1.0  0.010694580680841202  0.7466713059601349  0.834111304070937  1.0000
  C   C27       1.0  0.9893020127166422  0.24667711333458445  0.6658920332374975  1.0000
  C   C28       1.0  0.5106916475484127  0.7533304473022685  0.1658872118827475  1.0000
  N   N1        1.0  0.3592550783748223  0.3539467635459489  0.3448556329437621  1.0000
  N   N2        1.0  0.1407476778409915  0.6460554589386974  0.8448603837927846  1.0000
  N   N3        1.0  0.8592442846195355  0.14605663686386808  0.6551379589452749  1.0000
  N   N4        1.0  0.6407521376884378  0.8539402215501964  0.15513961226574216  1.0000
  O   O1        1.0  0.1777468971410983  0.225229955581547  0.14815204985879396  1.0000
  O   O2        1.0  0.3222464493311606  0.7747630907202705  0.6481529759228549  1.0000
  O   O3        1.0  0.6777512764393238  0.274764678952387  0.8518486719826793  1.0000
  O   O4        1.0  0.8222449299497326  0.7252338023066971  0.3518531479184971  1.0000
  O   O5        1.0  0.8559581703589388  0.436768104594144  0.19682354471595429  1.0000
  O   O6        1.0  0.6440382061871759  0.563230569823574  0.6968247765595095  1.0000
  O   O7        1.0  0.35596134745288305  0.06323423389166291  0.8031747283836096  1.0000
  O   O8        1.0  0.14404145453958964  0.9367618563842653  0.3031775570886878  1.0000
  O   O9        1.0  0.08656127393656733  0.5401428990181857  0.3699825556828955  1.0000
  O   O10       1.0  0.41345108041193873  0.4598537220212505  0.8699872192361295  1.0000
  O   O11       1.0  0.5865505463803515  0.9598509057224265  0.6300151339689322  1.0000
  O   O12       1.0  0.9134431532633159  0.0401558702632059  0.13001647770335006  1.0000
  O   O13       1.0  0.9784941416149736  0.19395634516929763  0.3498290154427792  1.0000
  O   O14       1.0  0.5215158179571234  0.8060464688218405  0.8498292014068338  1.0000
  O   O15       1.0  0.47848713790414626  0.30604319687596165  0.6501723020937218  1.0000
  O   O16       1.0  0.021510331595543202  0.693961702330661  0.15017086763759116  1.0000
  O   O17       1.0  0.7503165521276146  0.029301321448898  0.34191226997852187  1.0000
  O   O18       1.0  0.749679665187962  0.970692925190335  0.8419131158701061  1.0000
  O   O19       1.0  0.2503191177238975  0.4706950931174136  0.6580884074213387  1.0000
  O   O20       1.0  0.24967284266301704  0.5293172944600002  0.1580844738570235  1.0000
  O   O21       1.0  0.27271718469877737  0.708640251452259  0.44045388312562744  1.0000
  O   O22       1.0  0.22729096697264592  0.2913644236541232  0.9404547593011755  1.0000
  O   O23       1.0  0.7727217414390426  0.7913622948175885  0.5595499314333379  1.0000
  O   O24       1.0  0.7272926620625101  0.20863534799165961  0.059548271787676285  1.0000
