data_image0
_chemical_formula_structural       Co2H28C46S4N8O12
_chemical_formula_sum              "Co2 H28 C46 S4 N8 O12"
_cell_length_a       9.293014164743381
_cell_length_b       9.98125275297934
_cell_length_c       12.695466160688657
_cell_angle_alpha    84.70347226822581
_cell_angle_beta     80.34677759702076
_cell_angle_gamma    71.38311847002474

_space_group_name_H-M_alt    "P 1"
_space_group_IT_number       1

loop_
  _space_group_symop_operation_xyz
  'x, y, z'

loop_
  _atom_site_type_symbol
  _atom_site_label
  _atom_site_symmetry_multiplicity
  _atom_site_fract_x
  _atom_site_fract_y
  _atom_site_fract_z
  _atom_site_occupancy
  Co  Co1       1.0  0.9929829271659686  0.8137143238620723  0.09783622413976187  1.0000
  Co  Co2       1.0  0.007017978976051585  0.18628480448588652  0.9021651242706812  1.0000
  H   H1        1.0  0.9990774076650835  0.47553262401032015  0.3984444696455682  1.0000
  H   H2        1.0  0.000926063187456743  0.5244686312534129  0.6015579724828584  1.0000
  H   H3        1.0  0.06197095679709721  0.0393462969085121  0.3489632317666604  1.0000
  H   H4        1.0  0.9380230463418046  0.9606538812202388  0.6510389005229343  1.0000
  H   H5        1.0  0.08267976501964111  0.3316681937366255  0.07799202039161912  1.0000
  H   H6        1.0  0.917320784480964  0.6683319927139592  0.922009292568312  1.0000
  H   H7        1.0  0.8476801042563907  0.0124820143849504  0.2994254016618001  1.0000
  H   H8        1.0  0.15231571044435552  0.9875160587499323  0.7005790263996232  1.0000
  H   H9        1.0  0.6236275208946296  0.8271823605847927  0.12022165305727131  1.0000
  H   H10       1.0  0.3763661189043006  0.1728157196005569  0.8797854095397923  1.0000
  H   H11       1.0  0.4039690705947265  0.0049599012022412  0.2659907770349719  1.0000
  H   H12       1.0  0.5960260187919602  0.9950402717638767  0.7340096444158418  1.0000
  H   H13       1.0  0.328098187609868  0.26606644961812986  0.326590983956109  1.0000
  H   H14       1.0  0.6718921972178292  0.7339379450479697  0.6734081310736643  1.0000
  H   H15       1.0  0.2721833091829281  0.42733179469334476  0.49004485752668353  1.0000
  H   H16       1.0  0.7278121767110194  0.5726736682850486  0.5099543264197735  1.0000
  H   H17       1.0  0.7251540067714116  0.22871314120803277  0.6763469538133934  1.0000
  H   H18       1.0  0.2748461529204962  0.7712849112763107  0.3236506308929137  1.0000
  H   H19       1.0  0.6674798165693759  0.3795968932795901  0.8448321757834878  1.0000
  H   H20       1.0  0.3325210775414007  0.6204022186943449  0.15516523691736245  1.0000
  H   H21       1.0  0.542320422701522  0.7130425904193132  0.8533088851846033  1.0000
  H   H22       1.0  0.4576866303685208  0.2869543991850065  0.1466847670748805  1.0000
  H   H23       1.0  0.17315627550304669  0.5429744710721707  0.9403377934880055  1.0000
  H   H24       1.0  0.8268460687156817  0.45702358746091687  0.05966030525033258  1.0000
  H   H25       1.0  0.3236856969515145  0.8793634666494016  0.006176576818056388  1.0000
  H   H26       1.0  0.6763246504354257  0.12063670281069955  0.9938164228701183  1.0000
  H   H27       1.0  0.9427677504135018  0.3313272274726842  0.6374093834546883  1.0000
  H   H28       1.0  0.057237879017314676  0.6686708515953299  0.3625922413284002  1.0000
  C   C1        1.0  0.021681180895022533  0.5670422956847504  0.18942843733163534  1.0000
  C   C2        1.0  0.9783317341288722  0.4329568577443084  0.8105737704001754  1.0000
  C   C3        1.0  0.04161797860577113  0.41952656574004266  0.23337634675509386  1.0000
  C   C4        1.0  0.9583887418853295  0.5804715147149508  0.7666251414730567  1.0000
  C   C5        1.0  0.022437957868362432  0.39120944245151174  0.34376413390145194  1.0000
  C   C6        1.0  0.9775640369276957  0.608789684008613  0.6562362908121245  1.0000
  C   C7        1.0  0.031192130282491303  0.2546502356705247  0.38519072875928373  1.0000
  C   C8        1.0  0.9688080673891974  0.7453510154322984  0.6148121230339713  1.0000
  C   C9        1.0  0.01151679261599979  0.2265979058231835  0.5034547985024176  1.0000
  C   C10       1.0  0.9884855357993558  0.7733938373430362  0.4965524446099607  1.0000
  C   C11       1.0  0.05886661972033379  0.1448997562892345  0.31595708461721733  1.0000
  C   C12       1.0  0.9411270339958905  0.8551014897665608  0.6840473736476228  1.0000
  C   C13       1.0  0.07652303959454093  0.17295024693922298  0.2050017760747664  1.0000
  C   C14       1.0  0.9234745957728733  0.827048880522625  0.7950007691424262  1.0000
  C   C15       1.0  0.0886073791897104  0.061987009092661104  0.1289024129228835  1.0000
  C   C16       1.0  0.9113815065593797  0.9380089315785584  0.8711014676403366  1.0000
  C   C17       1.0  0.0697663565039406  0.3099187413959683  0.1641222689222346  1.0000
  C   C18       1.0  0.9302403639871599  0.6900793390590253  0.8358792193059161  1.0000
  C   C19       1.0  0.759016393894136  0.9866404988398113  0.2680495046057345  1.0000
  C   C20       1.0  0.24097867676275797  0.013356501706262198  0.7319519468934743  1.0000
  C   C21       1.0  0.6376240602808849  0.8940045215325012  0.17788341407977276  1.0000
  C   C22       1.0  0.362365205651912  0.10599354000574832  0.8221210461693927  1.0000
  C   C23       1.0  0.5274158367331905  0.981470434984722  0.24874230991817833  1.0000
  C   C24       1.0  0.4725755968826917  0.0185276096786495  0.7512571543695972  1.0000
  C   C25       1.0  0.5411711623490874  0.14221973885135245  0.3837873246168968  1.0000
  C   C26       1.0  0.45882246008592636  0.8577814646319907  0.6162069008030074  1.0000
  C   C27       1.0  0.4034927651255487  0.24914878447132344  0.38664727899604406  1.0000
  C   C28       1.0  0.5965012519306612  0.7508545595278734  0.6133522489613199  1.0000
  C   C29       1.0  0.3733464341004905  0.3350471428062249  0.4753939310933363  1.0000
  C   C30       1.0  0.6266494084348723  0.6649572620695423  0.5246052883036398  1.0000
  C   C31       1.0  0.4888144286136863  0.2932307842470435  0.539075987458901  1.0000
  C   C32       1.0  0.5111868879528956  0.7067767999836291  0.4609215191149545  1.0000
  C   C33       1.0  0.5005722510409427  0.354472441685445  0.6346181390686497  1.0000
  C   C34       1.0  0.4994283335130162  0.6455340863304356  0.3653803266525771  1.0000
  C   C35       1.0  0.6192062628555987  0.314729801891282  0.6957608006706055  1.0000
  C   C36       1.0  0.3807938944300631  0.6852682473182554  0.3042359968937803  1.0000
  C   C37       1.0  0.5884131921488489  0.3953101149715578  0.78751601802211  1.0000
  C   C38       1.0  0.4115902383176646  0.6046879383988892  0.21248036987744712  1.0000
  C   C39       1.0  0.44595949546675223  0.49538837939390135  0.7960577313351962  1.0000
  C   C40       1.0  0.5540450308725368  0.5046096819131307  0.2039400942932517  1.0000
  C   C41       1.0  0.4342230226707002  0.7041175134474429  0.8953951131841578  1.0000
  C   C42       1.0  0.5657815483469334  0.29588690252409583  0.1046030137732572  1.0000
  C   C43       1.0  0.24064220008261833  0.6143172557165428  0.9390600337121383  1.0000
  C   C44       1.0  0.759360897284779  0.3856850347261869  0.06093686297235484  1.0000
  C   C45       1.0  0.32579628440493014  0.7838706416341168  0.9711313564014219  1.0000
  C   C46       1.0  0.6742129652231625  0.2161263703929777  0.02886674559967868  1.0000
  S   S1        1.0  0.6346894339629331  0.144701364169407  0.4901670854815592  1.0000
  S   S2        1.0  0.36530677672490003  0.8553051451993665  0.5098287778917765  1.0000
  S   S3        1.0  0.3503040259303347  0.4940332624860845  0.6905634319848277  1.0000
  S   S4        1.0  0.6496994232659857  0.5059679633044141  0.3094319258663348  1.0000
  N   N1        1.0  0.7809718094337583  0.898426413027792  0.19074949133732141  1.0000
  N   N2        1.0  0.21902141701416875  0.10156635422165289  0.8092532987706775  1.0000
  N   N3        1.0  0.6061512639331709  0.0400739598066266  0.3060588740659895  1.0000
  N   N4        1.0  0.3938441772824318  0.9599251485072527  0.6939400085515005  1.0000
  N   N5        1.0  0.3788214874799251  0.596608407993088  0.8749035436581708  1.0000
  N   N6        1.0  0.621182325576541  0.40339176951919603  0.12509421106925342  1.0000
  N   N7        1.0  0.20561566986612678  0.7273409482170479  0.9977464191958065  1.0000
  N   N8        1.0  0.7943834386313425  0.2726634509952248  0.002250029110584298  1.0000
  O   O1        1.0  0.9733195556421635  0.6031720108101342  0.0996182425072263  1.0000
  O   O2        1.0  0.026696231242823415  0.3968218502179539  0.9003832187802702  1.0000
  O   O3        1.0  0.05355991584773536  0.6570520656689992  0.23965100640337772  1.0000
  O   O4        1.0  0.9464515514744531  0.342948144475713  0.7603513024328664  1.0000
  O   O5        1.0  0.9419072242034048  0.3455329399986837  0.5566554854395775  1.0000
  O   O6        1.0  0.058096983474257465  0.6544693780294538  0.4433475718253064  1.0000
  O   O7        1.0  0.05486582638268801  0.10817770386603338  0.5463355741641678  1.0000
  O   O8        1.0  0.9451307717075891  0.8918309361941895  0.45366323032087047  1.0000
  O   O9        1.0  0.0803028962574359  0.9421678141219089  0.16858787031075206  1.0000
  O   O10       1.0  0.9196921840244415  0.057829199523375494  0.8314167297561283  1.0000
  O   O11       1.0  0.10500293230923322  0.09322453118910089  0.028885824535642302  1.0000
  O   O12       1.0  0.8949888959278385  0.9067756539901238  0.971118942289593  1.0000
