data_image0
_chemical_formula_structural       Co4H40C68N12O16
_chemical_formula_sum              "Co4 H40 C68 N12 O16"
_cell_length_a       11.696644488499912
_cell_length_b       14.709278434706063
_cell_length_c       14.805980072380528
_cell_angle_alpha    95.56088696605691
_cell_angle_beta     108.02902951329341
_cell_angle_gamma    107.54231350990355

_space_group_name_H-M_alt    "P 1"
_space_group_IT_number       1

loop_
  _space_group_symop_operation_xyz
  'x, y, z'

loop_
  _atom_site_type_symbol
  _atom_site_label
  _atom_site_symmetry_multiplicity
  _atom_site_fract_x
  _atom_site_fract_y
  _atom_site_fract_z
  _atom_site_occupancy
  Co  Co1       1.0  0.38910684703714793  0.5605339758780019  0.8099056822074431  1.0000
  Co  Co2       1.0  0.6107397396571199  0.18971805176347797  0.43800454916503634  1.0000
  Co  Co3       1.0  0.6111226760428538  0.43651623904952436  0.18861919528611543  1.0000
  Co  Co4       1.0  0.3889966911408393  0.8081235198081418  0.5634953281985561  1.0000
  H   H1        1.0  0.47257053034128654  0.866050987905794  0.3923819023358419  1.0000
  H   H2        1.0  0.5258698846824785  0.6062189132294407  0.1293441208917869  1.0000
  H   H3        1.0  0.5251700164800822  0.1305823880681842  0.605553202287858  1.0000
  H   H4        1.0  0.48047301162794304  0.3980388869056952  0.8750928376161227  1.0000
  H   H5        1.0  0.38490101801116333  0.8071667728783966  0.2128804036517806  1.0000
  H   H6        1.0  0.6106040067898489  0.7865397706595444  0.19065095807091129  1.0000
  H   H7        1.0  0.6093753813287249  0.19141319214270422  0.7852364562759817  1.0000
  H   H8        1.0  0.3947641817122545  0.2193868949986566  0.8119544569413578  1.0000
  H   H9        1.0  0.039590068714147754  0.6185491787037735  0.24070894416220773  1.0000
  H   H10       1.0  0.9553847246506068  0.7581876601269428  0.3826392479308183  1.0000
  H   H11       1.0  0.9552508677036258  0.3814021898189496  0.7596725952802289  1.0000
  H   H12       1.0  0.05083786230530762  0.25066653037178105  0.6221531033189649  1.0000
  H   H13       1.0  0.1454412434663156  0.6819582866889322  0.4214414279048314  1.0000
  H   H14       1.0  0.8524204230502335  0.5764147067416943  0.3169207906691583  1.0000
  H   H15       1.0  0.8522765944476588  0.3167221916424269  0.5783138265998673  1.0000
  H   H16       1.0  0.15470277474316424  0.43059049701601293  0.6879250856978132  1.0000
  H   H17       1.0  0.32715450334454493  0.6612475399913154  0.09298667891629721  1.0000
  H   H18       1.0  0.6684037216810808  0.9089986235932275  0.33818187594772553  1.0000
  H   H19       1.0  0.6671229655873745  0.33738216649735625  0.9081911572941479  1.0000
  H   H20       1.0  0.3355825513676152  0.09483873090510998  0.6655303595840464  1.0000
  H   H21       1.0  0.9965767274822142  0.5652730160334158  0.8308695150040819  1.0000
  H   H22       1.0  0.0035298523625755134  0.16667307350743954  0.4344696034299319  1.0000
  H   H23       1.0  0.0031821935159683816  0.43308075966372434  0.16550755572615122  1.0000
  H   H24       1.0  0.9992405202790663  0.8379614362787677  0.5685511286020956  1.0000
  H   H25       1.0  0.5585925654768928  0.5014335212568781  0.7177683135372419  1.0000
  H   H26       1.0  0.43306952072269667  0.2761001854818801  0.4932354333326145  1.0000
  H   H27       1.0  0.4340134550978476  0.4922632940650901  0.274649259177643  1.0000
  H   H28       1.0  0.5716967844834855  0.7257541163399565  0.5096658613427181  1.0000
  H   H29       1.0  0.7888505729127927  0.5200496488479374  0.7758798701160572  1.0000
  H   H30       1.0  0.20337274843798533  0.2180831072759943  0.4764322857534964  1.0000
  H   H31       1.0  0.20398272316187865  0.47621252583894597  0.2167866258990045  1.0000
  H   H32       1.0  0.8002499435400523  0.7861803644295267  0.525264525309872  1.0000
  H   H33       1.0  0.8251605830433988  0.6685686246704777  0.05537853024115683  1.0000
  H   H34       1.0  0.1664073288991689  0.9365020565926444  0.3290911727646986  1.0000
  H   H35       1.0  0.1651461899149567  0.32782980704192255  0.9363763177490015  1.0000
  H   H36       1.0  0.8328613727167494  0.06665594253922791  0.6717065601677064  1.0000
  H   H37       1.0  0.5909093568777452  0.6435612495036338  0.9847104729141805  1.0000
  H   H38       1.0  0.40047326341635886  0.008166058687209  0.3507580428151016  1.0000
  H   H39       1.0  0.3993117282595335  0.34892274309772386  0.007690274968148032  1.0000
  H   H40       1.0  0.5998965633683255  0.9927806854374098  0.6511374209604668  1.0000
  C   C1        1.0  0.37779604850268117  0.8098486354104896  0.35633081184672494  1.0000
  C   C2        1.0  0.6193881459679318  0.6423333629095538  0.1870568561433643  1.0000
  C   C3        1.0  0.6186984614414612  0.18798678720740014  0.64219653238343  1.0000
  C   C4        1.0  0.38749018195954926  0.36337792986667233  0.8168013275267825  1.0000
  C   C5        1.0  0.32831022782818303  0.7766244902456235  0.2561475069744716  1.0000
  C   C6        1.0  0.6668761933094628  0.7425462068635084  0.22152789437601678  1.0000
  C   C7        1.0  0.6658601120502254  0.22219357157250394  0.7420021628109694  1.0000
  C   C8        1.0  0.33843326536297985  0.2633092745567325  0.7809745064586053  1.0000
  C   C9        1.0  0.20464267459939126  0.7064524026406647  0.2117743127421222  1.0000
  C   C10       1.0  0.7892332130706593  0.7861293363088182  0.2933612000675794  1.0000
  C   C11       1.0  0.7883607979731622  0.2935359201409824  0.7861544837088914  1.0000
  C   C12       1.0  0.215727639925035  0.2194225347520913  0.7092289540102286  1.0000
  C   C13       1.0  0.1361501814746049  0.6728439323733186  0.2719219171465995  1.0000
  C   C14       1.0  0.8592561109112467  0.7263321428540337  0.32762594694168  1.0000
  C   C15       1.0  0.8587139666894573  0.32727828419633204  0.7272472670484404  1.0000
  C   C16       1.0  0.1472595000373573  0.28088656680508  0.6769367341952376  1.0000
  C   C17       1.0  0.193560996447559  0.7078906816447984  0.3716701952351756  1.0000
  C   C18       1.0  0.8038193153215334  0.6266288068829343  0.2913593865556977  1.0000
  C   C19       1.0  0.8034665713099116  0.2914353243244108  0.6278539958812459  1.0000
  C   C20       1.0  0.20331446948437562  0.3805126519228921  0.7135171282922101  1.0000
  C   C21       1.0  0.14890874040586516  0.6674680553402511  0.1055981948199189  1.0000
  C   C22       1.0  0.845046970534874  0.892056615723192  0.332541650926629  1.0000
  C   C23       1.0  0.8440957562945002  0.3324432316978517  0.891681989688614  1.0000
  C   C24       1.0  0.1587734690361629  0.1131682710747413  0.6695383671698778  1.0000
  C   C25       1.0  0.22602871858735088  0.6489842608755011  0.055659676488389195  1.0000
  C   C26       1.0  0.7698950344201662  0.9443769930531758  0.3511080883302072  1.0000
  C   C27       1.0  0.7688292032888242  0.3504448330448681  0.9436229095751045  1.0000
  C   C28       1.0  0.23371482047294018  0.05974678221980409  0.6518600962714346  1.0000
  C   C29       1.0  0.1708765656793218  0.6098926520292166  0.9559369480558291  1.0000
  C   C30       1.0  0.829106753994985  0.044001132217907496  0.3903861179342983  1.0000
  C   C31       1.0  0.8282488936047017  0.3893062901380803  0.04299268712471615  1.0000
  C   C32       1.0  0.17447398302409312  0.9598695834790051  0.6129673408959277  1.0000
  C   C33       1.0  0.04029625644560035  0.5931754187534892  0.9090875505202265  1.0000
  C   C34       1.0  0.9592585849785848  0.0882379581606401  0.4066641403193501  1.0000
  C   C35       1.0  0.9587423331168522  0.40574939713889796  0.08726723753513708  1.0000
  C   C36       1.0  0.043820569544287515  0.9164112129832277  0.5959157259225805  1.0000
  C   C37       1.0  0.9685722272357111  0.6127813456468233  0.9646362430380435  1.0000
  C   C38       1.0  0.027499133207918205  0.0303369418311661  0.38629691276234013  1.0000
  C   C39       1.0  0.027047338060597805  0.3859116000652635  0.029733679979678098  1.0000
  C   C40       1.0  0.975478204964581  0.9747307054710035  0.6152734423148161  1.0000
  C   C41       1.0  0.6213606883008538  0.5377124978468117  0.7922094362963747  1.0000
  C   C42       1.0  0.37008082259215763  0.2013580731778504  0.4571347586557835  1.0000
  C   C43       1.0  0.37050001848659525  0.4562498442069939  0.2001736532673988  1.0000
  C   C44       1.0  0.6331885839910002  0.8009236064033163  0.5453430333134008  1.0000
  C   C45       1.0  0.7510482153913715  0.549563897643587  0.8258645007997245  1.0000
  C   C46       1.0  0.2416726560782935  0.16823076584657318  0.4469202476298904  1.0000
  C   C47       1.0  0.2419693446681279  0.4463785917679743  0.16717800368937932  1.0000
  C   C48       1.0  0.7614450760190294  0.8355484573802912  0.5549260755856196  1.0000
  C   C49       1.0  0.8294821369933132  0.5973519500041532  0.9222016449648082  1.0000
  C   C50       1.0  0.16496148838428576  0.0712099310148275  0.4002824817640729  1.0000
  C   C51       1.0  0.16466820929331055  0.39962201524678426  0.07053368130001302  1.0000
  C   C52       1.0  0.8374788673629611  0.9329897447946109  0.6010845506907999  1.0000
  C   C53       1.0  0.7693583491341089  0.6315396065064861  0.9799844268185964  1.0000
  C   C54       1.0  0.2230746308636782  0.012082752153709502  0.36548872589714426  1.0000
  C   C55       1.0  0.22222073763058606  0.3642812254582992  0.011693392200633913  1.0000
  C   C56       1.0  0.7776133719327731  0.9907499787922235  0.6356839108680745  1.0000
  C   C57       1.0  0.6399087485132925  0.6177926035277892  0.9417561296951931  1.0000
  C   C58       1.0  0.35159788513738016  0.05081527054459659  0.3776221285433081  1.0000
  C   C59       1.0  0.35092485996306527  0.37613402423073694  0.05027899839778632  1.0000
  C   C60       1.0  0.6491969403551039  0.9506124923513539  0.624165206053064  1.0000
  C   C61       1.0  0.256992296556227  0.5870510699922209  0.9067574113281012  1.0000
  C   C62       1.0  0.7546863637313381  0.10263856136062094  0.415020241623445  1.0000
  C   C63       1.0  0.753816946754192  0.4132552072665092  0.10145953108520438  1.0000
  C   C64       1.0  0.2481916048537514  0.8993884003468794  0.5894515449114834  1.0000
  C   C65       1.0  0.42263947150352976  0.7241113000598745  0.7337141028397342  1.0000
  C   C66       1.0  0.5774199222332612  0.26405244899497404  0.26502822082279215  1.0000
  C   C67       1.0  0.3718059297214325  0.6402548617941975  0.6440747412178284  1.0000
  C   C68       1.0  0.626571861947987  0.3515956064720385  0.3514107046852644  1.0000
  N   N1        1.0  0.3124683596252069  0.775777468271194  0.413982551065466  1.0000
  N   N2        1.0  0.6859299395793599  0.5849343478871843  0.22200949658043356  1.0000
  N   N3        1.0  0.6853552143487676  0.22263768073888462  0.5856134292238976  1.0000
  N   N4        1.0  0.3226773146784652  0.4227438349037059  0.7826492982701441  1.0000
  N   N5        1.0  0.02273263985649268  0.6480223658453071  0.0614475324322186  1.0000
  N   N6        1.0  0.9711264231640091  0.9335102919701942  0.3513447087747539  1.0000
  N   N7        1.0  0.9704013461976685  0.35144411537606146  0.9331933587009331  1.0000
  N   N8        1.0  0.0321545590248533  0.07175153467440508  0.649936316497076  1.0000
  N   N9        1.0  0.5650595264025924  0.570764512793545  0.8489907299550693  1.0000
  N   N10       1.0  0.42480072178884853  0.14384401658163173  0.4232080288330807  1.0000
  N   N11       1.0  0.4247469740537966  0.4219036544192106  0.14288416044967533  1.0000
  N   N12       1.0  0.576857773955865  0.857161325142698  0.5792919570362615  1.0000
  O   O1        1.0  0.21878867789863685  0.5657937445612548  0.8134148470592351  1.0000
  O   O2        1.0  0.8065539928525567  0.19460865594687246  0.44126342040842564  1.0000
  O   O3        1.0  0.8065015820467848  0.4396501157274598  0.193067735290704  1.0000
  O   O4        1.0  0.19383644423025714  0.8076721504852741  0.5614892903007345  1.0000
  O   O5        1.0  0.3670127571950488  0.5899142864791853  0.9592118751707303  1.0000
  O   O6        1.0  0.6386739181828603  0.05785342214173989  0.408285327060213  1.0000
  O   O7        1.0  0.6370972441868261  0.4059142423443376  0.05696103347707293  1.0000
  O   O8        1.0  0.36562552637900586  0.9419318527630696  0.5983706436434559  1.0000
  O   O9        1.0  0.44300566072101333  0.7003187298206728  0.8169100963234543  1.0000
  O   O10       1.0  0.5572897239295359  0.18064596041161002  0.28571284913151374  1.0000
  O   O11       1.0  0.5593030175324074  0.284195214413515  0.18177416522556916  1.0000
  O   O12       1.0  0.4430293881924356  0.8093185009262527  0.7192483226696851  1.0000
  O   O13       1.0  0.35566804325850404  0.5549186271580239  0.6586291837036526  1.0000
  O   O14       1.0  0.6439716858089072  0.3331387259547896  0.4356170395591478  1.0000
  O   O15       1.0  0.6442153255484442  0.4357997572864177  0.3321427348247141  1.0000
  O   O16       1.0  0.35177769467492953  0.6643708057442839  0.5617347221563023  1.0000
