data_image0
_chemical_formula_structural       Zn16H16C96S16Br16O52
_chemical_formula_sum              "Zn16 H16 C96 S16 Br16 O52"
_cell_length_a       19.779119536912756
_cell_length_b       19.787650892053883
_cell_length_c       33.63967048466801
_cell_angle_alpha    78.5719534735378
_cell_angle_beta     78.59860137387325
_cell_angle_gamma    63.566207609420346

_space_group_name_H-M_alt    "P 1"
_space_group_IT_number       1

loop_
  _space_group_symop_operation_xyz
  'x, y, z'

loop_
  _atom_site_type_symbol
  _atom_site_label
  _atom_site_symmetry_multiplicity
  _atom_site_fract_x
  _atom_site_fract_y
  _atom_site_fract_z
  _atom_site_occupancy
  Zn  Zn1       1.0  0.05622683571069591  0.4013116372995993  0.4787918182571644  1.0000
  Zn  Zn2       1.0  0.9825951730996609  0.4824874727735772  0.5598877355928025  1.0000
  Zn  Zn3       1.0  0.05990160619306552  0.5599637506939031  0.48246263236935494  1.0000
  Zn  Zn4       1.0  0.9013184340876991  0.5560516070672036  0.4788167206320749  1.0000
  Zn  Zn5       1.0  0.6937154320868546  0.34869708944020045  0.2711967965336299  1.0000
  Zn  Zn6       1.0  0.6900813115673401  0.19005475622219578  0.2674867815095823  1.0000
  Zn  Zn7       1.0  0.7675234247395792  0.267486641003913  0.19007558111187714  1.0000
  Zn  Zn8       1.0  0.8485972094181379  0.19391211781624668  0.2712416628925069  1.0000
  Zn  Zn9       1.0  0.2674312415309856  0.7675205995389618  0.6901080240307775  1.0000
  Zn  Zn10      1.0  0.3486853809701033  0.6938837210879568  0.7712051084014815  1.0000
  Zn  Zn11      1.0  0.1937285398481379  0.8486682653035584  0.7712298749352653  1.0000
  Zn  Zn12      1.0  0.19009878651840492  0.6900456061234194  0.7675266973141389  1.0000
  Zn  Zn13      1.0  0.5599193079770687  0.05995513658204018  0.9825029224745093  1.0000
  Zn  Zn14      1.0  0.4014212315340657  0.056023154292574824  0.9787623937873988  1.0000
  Zn  Zn15      1.0  0.5562427955325405  0.9012805916810431  0.9788227098258916  1.0000
  Zn  Zn16      1.0  0.4825056717167158  0.9825282954159459  0.059914568725993454  1.0000
  H   H1        1.0  0.28630279638020545  0.5100006588488666  0.4092487478337645  1.0000
  H   H2        1.0  0.4636449442055124  0.2400521236874553  0.3407376241676587  1.0000
  H   H3        1.0  0.7711596432005124  0.5475024568212061  0.6482081897063521  1.0000
  H   H4        1.0  0.4788927323534153  0.7025317510790856  0.6017883146160231  1.0000
  H   H5        1.0  0.0475495226260847  0.27109408539940455  0.6481679621265072  1.0000
  H   H6        1.0  0.2025005932020534  0.9789488726573341  0.6018251798182419  1.0000
  H   H7        1.0  0.8013740130363232  0.7792251478471781  0.4021972078946803  1.0000
  H   H8        1.0  0.9485366785041908  0.9707812540211548  0.3478555879693417  1.0000
  H   H9        1.0  0.7025457753306485  0.4789475931023546  0.10182167409221417  1.0000
  H   H10       1.0  0.547494473428671  0.7711007038758166  0.1481709542150114  1.0000
  H   H11       1.0  0.08664991620435102  0.10894609706208769  0.20964292770847237  1.0000
  H   H12       1.0  0.16331446399252772  0.14103355163503292  0.0403389581859273  1.0000
  H   H13       1.0  0.4485703204605401  0.4707803034973992  0.8478350211787884  1.0000
  H   H14       1.0  0.30141107023658265  0.2792217298433428  0.902176833417414  1.0000
  H   H15       1.0  0.9636394384335389  0.7400526142239984  0.840743905749889  1.0000
  H   H16       1.0  0.7862952582469661  0.01000317538048274  0.9092555250805033  1.0000
  C   C1        1.0  0.061289120348632806  0.31592652352983924  0.5616912877707134  1.0000
  C   C2        1.0  0.06845609130247961  0.5685289653431623  0.5684675950416036  1.0000
  C   C3        1.0  0.18429517254793382  0.43903147110796664  0.43858395382545007  1.0000
  C   C4        1.0  0.9380675439186493  0.6842719744550293  0.4385678696176924  1.0000
  C   C5        1.0  0.9314885178389077  0.4314621048502402  0.43156111267567343  1.0000
  C   C6        1.0  0.8159277061610339  0.5612667792676259  0.5617063383175562  1.0000
  C   C7        1.0  0.5656618802367533  0.3110225709442602  0.3114336467795695  1.0000
  C   C8        1.0  0.681612447545966  0.1814682322793929  0.18149815830469854  1.0000
  C   C9        1.0  0.6888138816885032  0.43409441753053085  0.18833131278591242  1.0000
  C   C10       1.0  0.9345662702107377  0.1883748340070141  0.18876864773697116  1.0000
  C   C11       1.0  0.8184596539179197  0.3184922717950299  0.3184842904924352  1.0000
  C   C12       1.0  0.8119035188802357  0.06566625761006858  0.3114669757133085  1.0000
  C   C13       1.0  0.4341112950620527  0.6887876464560634  0.6883111038258817  1.0000
  C   C14       1.0  0.3184692190466905  0.8184935985065424  0.8184617867728645  1.0000
  C   C15       1.0  0.1887875397953991  0.9340951523531371  0.6883241634743483  1.0000
  C   C16       1.0  0.06564064130882491  0.8110242506861952  0.8114264195597514  1.0000
  C   C17       1.0  0.18158074959099932  0.6814973106708849  0.6815009350154071  1.0000
  C   C18       1.0  0.31191937152521393  0.5656649905267982  0.8114413862183341  1.0000
  C   C19       1.0  0.43808471357003503  0.18427745554614458  0.9385457424494489  1.0000
  C   C20       1.0  0.43150554301155364  0.931448469492288  0.9315379588743649  1.0000
  C   C21       1.0  0.6842716467739579  0.9390351319075662  0.9385755350576942  1.0000
  C   C22       1.0  0.5612557255026474  0.8159313709785107  0.06168642134804975  1.0000
  C   C23       1.0  0.5684290230887401  0.06855644526452657  0.06846773041478832  1.0000
  C   C24       1.0  0.31545433965946057  0.06169329293012993  0.06121731664497078  1.0000
  C   C25       1.0  0.9025260731883691  0.4024951847673537  0.40249994280892304  1.0000
  C   C26       1.0  0.8474911561717847  0.34754516246690764  0.3474657829008762  1.0000
  C   C27       1.0  0.830220635794966  0.4466049193016486  0.38840454081379505  1.0000
  C   C28       1.0  0.9197868742818401  0.3034415086294188  0.3615651558463924  1.0000
  C   C29       1.0  0.8033530108763359  0.4198164885321486  0.36154234726024015  1.0000
  C   C30       1.0  0.9466830810527401  0.3302461574724872  0.3883994756196499  1.0000
  C   C31       1.0  0.0974796359831913  0.5975219334456126  0.5974795338952532  1.0000
  C   C32       1.0  0.1525459822311461  0.652488020652015  0.6524849259687783  1.0000
  C   C33       1.0  0.14066008594041793  0.6407344528840825  0.5824586341066862  1.0000
  C   C34       1.0  0.10935027467149182  0.6092794638854214  0.6674978649361519  1.0000
  C   C35       1.0  0.1675443511050574  0.6675451574647723  0.6092924181036992  1.0000
  C   C36       1.0  0.08247287937278709  0.5824633481997309  0.6406609467785103  1.0000
  C   C37       1.0  0.30360992793371383  0.45354572938629883  0.4012089804227159  1.0000
  C   C38       1.0  0.4463380578499141  0.2964732733899922  0.34882452843118716  1.0000
  C   C39       1.0  0.25902253710888357  0.41366980916401264  0.4136567761386019  1.0000
  C   C40       1.0  0.49094119891049826  0.3363200160627287  0.33640409376956626  1.0000
  C   C41       1.0  0.37812084794504847  0.3390297261229873  0.37241706900547195  1.0000
  C   C42       1.0  0.371815323041375  0.41096953803397435  0.3776163832618593  1.0000
  C   C43       1.0  0.7262132885156447  0.5762802942313455  0.6286176732299182  1.0000
  C   C44       1.0  0.5238289175707892  0.6737245761457161  0.6213888760256338  1.0000
  C   C45       1.0  0.74095047765217  0.5863582187713161  0.5864047928999909  1.0000
  C   C46       1.0  0.5090620945520213  0.6636455249056183  0.6636143919388431  1.0000
  C   C47       1.0  0.602838463012148  0.6419263005651533  0.6085956862796279  1.0000
  C   C48       1.0  0.6471999096092134  0.6080280203699004  0.6414222676895277  1.0000
  C   C49       1.0  0.0763141236232983  0.22615789049660848  0.6286057647147771  1.0000
  C   C50       1.0  0.17370553464712662  0.02387156309312392  0.6214004911905987  1.0000
  C   C51       1.0  0.08636856442139161  0.24094680397784882  0.5863901910540077  1.0000
  C   C52       1.0  0.1636528402379653  0.009049821688947192  0.6636278492599175  1.0000
  C   C53       1.0  0.14191881073389112  0.10286448164673352  0.6085948506178055  1.0000
  C   C54       1.0  0.10805024927030622  0.1471592846894083  0.6414233117189525  1.0000
  C   C55       1.0  0.845184756464299  0.7999701067696771  0.3975862722964862  1.0000
  C   C56       1.0  0.9047663358599322  0.9499975745421239  0.35247466685994766  1.0000
  C   C57       1.0  0.9135417108199421  0.7590397023830845  0.4136681107506277  1.0000
  C   C58       1.0  0.8363654831550918  0.9909338118003743  0.3364095450907669  1.0000
  C   C59       1.0  0.9081123878592127  0.8804429632376837  0.374729738836642  1.0000
  C   C60       1.0  0.8419140221785714  0.8694481445713006  0.37527486790398257  1.0000
  C   C61       1.0  0.6525799400655288  0.15246211947070532  0.1524815443288858  1.0000
  C   C62       1.0  0.5974565991578376  0.09753794155614057  0.09747960635737479  1.0000
  C   C63       1.0  0.6676033605048133  0.16750929347349344  0.10928587423123297  1.0000
  C   C64       1.0  0.5824236342191826  0.08248977607224355  0.14066604290571405  1.0000
  C   C65       1.0  0.6406706489225513  0.1407234493318512  0.08246035671882616  1.0000
  C   C66       1.0  0.6093523326495643  0.10928088822112159  0.1674929065115904  1.0000
  C   C67       1.0  0.6737215283962924  0.5238674576075937  0.1213979685941382  1.0000
  C   C68       1.0  0.5762885868454362  0.7261639487794084  0.12860851119005193  1.0000
  C   C69       1.0  0.6636597753763455  0.5090418033570713  0.1636252828624478  1.0000
  C   C70       1.0  0.5863532058940919  0.7409593898472623  0.08639316034535229  1.0000
  C   C71       1.0  0.6080366740586385  0.6471629391267227  0.1414229150717219  1.0000
  C   C72       1.0  0.6419228213520114  0.6028658684820342  0.10859602156987341  1.0000
  C   C73       1.0  0.0797820025739924  0.12498580055537896  0.17736724994020384  1.0000
  C   C74       1.0  0.17020791197483484  0.12490194507173409  0.07260538055469107  1.0000
  C   C75       1.0  0.0090780086775624  0.16357505397240854  0.1636236624151977  1.0000
  C   C76       1.0  0.2409201260425107  0.08636530300608307  0.0863511158303538  1.0000
  C   C77       1.0  0.11148502639311182  0.138988069652271  0.1056908318404055  1.0000
  C   C78       1.0  0.13851200101479583  0.1108390343336723  0.14428240775905718  1.0000
  C   C79       1.0  0.3475030604474938  0.8475113737959177  0.8474537659229213  1.0000
  C   C80       1.0  0.40253740594587845  0.9024559271231353  0.9024909764780701  1.0000
  C   C81       1.0  0.303354030302458  0.9197819672918681  0.8615405404196252  1.0000
  C   C82       1.0  0.4466801886029117  0.8301967871920513  0.8883991621571851  1.0000
  C   C83       1.0  0.3302497085765239  0.9465734142252058  0.8883775777900027  1.0000
  C   C84       1.0  0.4198148149770304  0.8034073753862573  0.8615392058247692  1.0000
  C   C85       1.0  0.4047793165021219  0.4500148760375778  0.852467445553664  1.0000
  C   C86       1.0  0.3452028399633207  0.2999867971986489  0.897579740884005  1.0000
  C   C87       1.0  0.3363881130194103  0.49095169912099096  0.8364017804561357  1.0000
  C   C88       1.0  0.4135648697126868  0.2590635314651522  0.9136611122604065  1.0000
  C   C89       1.0  0.3419212348896821  0.36947241556732985  0.8752731603325047  1.0000
  C   C90       1.0  0.40812073973663127  0.38046727692283605  0.874727602589715  1.0000
  C   C91       1.0  0.946330317525117  0.7964768375125288  0.8488259596998943  1.0000
  C   C92       1.0  0.8036021938322194  0.9535493002220575  0.9012098156827972  1.0000
  C   C93       1.0  0.9909318044526287  0.8363259088710534  0.8363998012729681  1.0000
  C   C94       1.0  0.7590137160991903  0.913679098535553  0.9136502580614447  1.0000
  C   C95       1.0  0.8718109688823077  0.9109700846860918  0.877621044151411  1.0000
  C   C96       1.0  0.8781170670174491  0.8390305573666832  0.8724210399185919  1.0000
  S   S1        1.0  0.299540515509122  0.3245940987573307  0.3968328657444857  1.0000
  S   S2        1.0  0.4504032478735027  0.4254040151549816  0.3532346528577932  1.0000
  S   S3        1.0  0.6592813671246491  0.6342606283760118  0.5621158618996985  1.0000
  S   S4        1.0  0.59074058672973  0.615694477073873  0.6878981815579974  1.0000
  S   S5        1.0  0.13425688972525052  0.15934268579416502  0.5621065137514307  1.0000
  S   S6        1.0  0.11571798197966392  0.09066222992825598  0.6879077499379348  1.0000
  S   S7        1.0  0.9740057109338025  0.804548290260918  0.40181451745863933  1.0000
  S   S8        1.0  0.7759851698213751  0.945350078713169  0.34821968897463046  1.0000
  S   S9        1.0  0.6156993510091553  0.590657729647155  0.18790644487587116  1.0000
  S   S10       1.0  0.634266534375307  0.6593504428860583  0.06210843020414103  1.0000
  S   S11       1.0  0.013514635653152106  0.1828488547540843  0.1106446787482014  1.0000
  S   S12       1.0  0.2364779362778862  0.06708054121246934  0.13932480330382188  1.0000
  S   S13       1.0  0.2759958133346387  0.44537189901218  0.8482166836949004  1.0000
  S   S14       1.0  0.4740163298789143  0.30457475166448233  0.9018115928071849  1.0000
  S   S15       1.0  0.950396077668522  0.925407860512486  0.8532356921543709  1.0000
  S   S16       1.0  0.7995316423496703  0.8245991828897987  0.8968333618779596  1.0000
  Br  Br1       1.0  0.7640400996549134  0.5444256978650585  0.404375998938974  1.0000
  Br  Br2       1.0  0.9858727521158884  0.205473412338115  0.3457095089758795  1.0000
  Br  Br3       1.0  0.7054310604118256  0.4858539836985116  0.3456277857442842  1.0000
  Br  Br4       1.0  0.04466276472665241  0.2642273750767572  0.40426662766238747  1.0000
  Br  Br5       1.0  0.1655740275843556  0.6659995366905633  0.525532325168065  1.0000
  Br  Br6       1.0  0.08445787483814372  0.5840347884387639  0.7244162370253091  1.0000
  Br  Br7       1.0  0.22449854249434512  0.7244775312436145  0.5841661210772173  1.0000
  Br  Br8       1.0  0.025516886844450005  0.5255222534451178  0.6658009008565955  1.0000
  Br  Br9       1.0  0.724731940885036  0.22425589370823906  0.08417841189694288  1.0000
  Br  Br10      1.0  0.5252836073478663  0.025744764293911288  0.16578203300120006  1.0000
  Br  Br11      1.0  0.6655804384839854  0.1660242500335157  0.02553380329504053  1.0000
  Br  Br12      1.0  0.5844572133195102  0.08401109136593722  0.2244122965758635  1.0000
  Br  Br13      1.0  0.20538759171375182  0.9857959500055177  0.8456591085570224  1.0000
  Br  Br14      1.0  0.5446084604867281  0.7641520671961929  0.9043096632565408  1.0000
  Br  Br15      1.0  0.2641544266350593  0.044545628255484415  0.9042322259671278  1.0000
  Br  Br16      1.0  0.48597720921900134  0.7055818562488767  0.8455685085279113  1.0000
  O   O1        1.0  3.028694878540177e-05  0.4999632659683328  0.49999412735783  1.0000
  O   O2        1.0  0.07817666462099741  0.316111359819132  0.5229131133275615  1.0000
  O   O3        1.0  0.030303500675785203  0.5304486805935938  0.5841478663420787  1.0000
  O   O4        1.0  0.15646582401852532  0.5055146217048045  0.44942991235704705  1.0000
  O   O5        1.0  0.025034601035756106  0.373937626936133  0.5810196988500776  1.0000
  O   O6        1.0  0.1538572038357344  0.3918722075327778  0.4471484207206018  1.0000
  O   O7        1.0  0.08413084898720773  0.5841519366364237  0.5303503850634781  1.0000
  O   O8        1.0  0.004729002603923501  0.6563132949997624  0.44946969161311756  1.0000
  O   O9        1.0  0.8889554638894596  0.49643355093155644  0.44277910609516613  1.0000
  O   O10       1.0  0.890954121195101  0.6539895666003019  0.4470811242531738  1.0000
  O   O11       1.0  0.9964432774974841  0.38890042792159796  0.44285253371294425  1.0000
  O   O12       1.0  0.8739839531233217  0.5249820609834754  0.5810330964089658  1.0000
  O   O13       1.0  0.8160566304856404  0.5781783924817743  0.5229263900294752  1.0000
  O   O14       1.0  0.7499856998170102  0.2500312870565295  0.25000600453481076  1.0000
  O   O15       1.0  0.5960887358654433  0.3581652970591732  0.30290882235684785  1.0000
  O   O16       1.0  0.6659440580535048  0.16582460241428973  0.2196133927513912  1.0000
  O   O17       1.0  0.7250637768245483  0.3760519531625235  0.1690262305400907  1.0000
  O   O18       1.0  0.5934668309925897  0.24458483615842386  0.300511320666061  1.0000
  O   O19       1.0  0.6719885677488691  0.4339322168831215  0.22711639997374525  1.0000
  O   O20       1.0  0.719738494338124  0.21958139428313908  0.1658439333723578  1.0000
  O   O21       1.0  0.876307919804475  0.22476436318380877  0.16945387803036027  1.0000
  O   O22       1.0  0.8610192228985273  0.2535109216553478  0.3072858565330988  1.0000
  O   O23       1.0  0.9345488297557767  0.17149402127997593  0.22745429059490613  1.0000
  O   O24       1.0  0.753439993475375  0.36095560438339197  0.3072609763633665  1.0000
  O   O25       1.0  0.745300561419846  0.0936066188356862  0.3004626216946846  1.0000
  O   O26       1.0  0.859005648261288  0.0959350452925847  0.30300911219597276  1.0000
  O   O27       1.0  0.24998652548450204  0.7500292300517727  0.7500068481222398  1.0000
  O   O28       1.0  0.3760550589211391  0.7250490383793962  0.6689946707481907  1.0000
  O   O29       1.0  0.36098057344624834  0.7534854965957294  0.8072746637076449  1.0000
  O   O30       1.0  0.17197199619523934  0.9339004763124302  0.7271132662736546  1.0000
  O   O31       1.0  0.43398027092060704  0.6719271503407142  0.7271040265717161  1.0000
  O   O32       1.0  0.22500966690309818  0.8760810969894801  0.6690017629784393  1.0000
  O   O33       1.0  0.25348474478922617  0.8610120532026214  0.8072111820822768  1.0000
  O   O34       1.0  0.0960817109781473  0.858165667685959  0.802899566164804  1.0000
  O   O35       1.0  0.16589570862819872  0.6658936296442591  0.7196153569576395  1.0000
  O   O36       1.0  0.0934410672743624  0.744597270610754  0.8004974534905286  1.0000
  O   O37       1.0  0.21973506419529093  0.7195654882410664  0.6658244954623314  1.0000
  O   O38       1.0  0.3590038034024232  0.5959706730854321  0.8029757343468873  1.0000
  O   O39       1.0  0.24533661843994994  0.5935589349482127  0.8004268729653248  1.0000
  O   O40       1.0  0.5000294570497134  0.9999630186076586  0.999987782607839  1.0000
  O   O41       1.0  0.504752616470121  0.15627797435784177  0.9494463003916636  1.0000
  O   O42       1.0  0.3889123031465189  0.9963893336348518  0.9427743715316694  1.0000
  O   O43       1.0  0.6538501777316341  0.8918751710894957  0.9471361643523081  1.0000
  O   O44       1.0  0.3909491682233438  0.15402932059800625  0.9470415875870372  1.0000
  O   O45       1.0  0.6564386039219983  0.005529370839511124  0.9494137330243788  1.0000
  O   O46       1.0  0.4965023062666418  0.8889577105245648  0.9427936273026276  1.0000
  O   O47       1.0  0.5781496661786748  0.8160836507997543  0.02290937648241002  1.0000
  O   O48       1.0  0.5302864615018521  0.030450187663859787  0.0841242117609511  1.0000
  O   O49       1.0  0.524977410546967  0.8739759438658651  0.08099502279419817  1.0000
  O   O50       1.0  0.5841002139356491  0.08420920752771356  0.030351465166098983  1.0000
  O   O51       1.0  0.31547317172780964  0.07862957955869375  0.0225342619776541  1.0000
  O   O52       1.0  0.3737203380788259  0.02535661029394021  0.08053456880986688  1.0000
