data_image0
_chemical_formula_structural       Zn2H60C90N8O8
_chemical_formula_sum              "Zn2 H60 C90 N8 O8"
_cell_length_a       13.268752791266392
_cell_length_b       14.929120256325954
_cell_length_c       14.92916455281909
_cell_angle_alpha    113.4094444022124
_cell_angle_beta     98.07895165190939
_cell_angle_gamma    98.07860246379485

_space_group_name_H-M_alt    "P 1"
_space_group_IT_number       1

loop_
  _space_group_symop_operation_xyz
  'x, y, z'

loop_
  _atom_site_type_symbol
  _atom_site_label
  _atom_site_symmetry_multiplicity
  _atom_site_fract_x
  _atom_site_fract_y
  _atom_site_fract_z
  _atom_site_occupancy
  Zn  Zn1       1.0  0.2500029753730004  0.8791498147160937  0.12085717730281692  1.0000
  Zn  Zn2       1.0  0.7499969832828127  0.1208625208423015  0.8791407004828854  1.0000
  H   H1        1.0  0.31614354916122517  0.6184675989455072  0.1365452457763965  1.0000
  H   H2        1.0  0.18385025187326678  0.8634535502140253  0.38152846093049664  1.0000
  H   H3        1.0  0.6838592214976343  0.38153714815405954  0.8634559093867511  1.0000
  H   H4        1.0  0.8161404132431401  0.1365482217979093  0.6184719525420235  1.0000
  H   H5        1.0  0.3755855454032044  0.46252113052000254  0.12218436962881903  1.0000
  H   H6        1.0  0.12440844326527409  0.8778101904841407  0.5374729196192617  1.0000
  H   H7        1.0  0.6244077052258774  0.5374852151390712  0.8778122152767125  1.0000
  H   H8        1.0  0.875585302526005  0.12219167451540613  0.46252122307326  1.0000
  H   H9        1.0  0.48574964427240264  0.34030281378297633  0.053859130991384056  1.0000
  H   H10       1.0  0.014250030594297403  0.9461351610406227  0.6596896604146139  1.0000
  H   H11       1.0  0.5142441055720964  0.6596891979471237  0.9461390156574012  1.0000
  H   H12       1.0  0.9857440702208178  0.053858366766924314  0.3403078117808533  1.0000
  H   H13       1.0  0.18506627073273302  0.6897439717383235  0.9466779245370559  1.0000
  H   H14       1.0  0.3149278173024044  0.053337058893006904  0.31025872691594  1.0000
  H   H15       1.0  0.8149300340253731  0.3102591997825854  0.0533284655415542  1.0000
  H   H16       1.0  0.6850733505939814  0.946670666429995  0.6897447847883243  1.0000
  H   H17       1.0  0.06903175839718759  0.614702920138896  0.7802172230328068  1.0000
  H   H18       1.0  0.4309599424926915  0.21979367889455406  0.38529412469872437  1.0000
  H   H19       1.0  0.9309574717054471  0.38530256705617927  0.2197865399371466  1.0000
  H   H20       1.0  0.5690472156686823  0.7802102915551856  0.6147079378933923  1.0000
  H   H21       1.0  0.9846127483866525  0.9019731877663446  0.8507420154287786  1.0000
  H   H22       1.0  0.5153812104447298  0.14926106652674062  0.09803078799259173  1.0000
  H   H23       1.0  0.01537669201598391  0.09803315232297653  0.1492554244911304  1.0000
  H   H24       1.0  0.4846282253422486  0.8507428840779525  0.9019722247921678  1.0000
  H   H25       1.0  0.10493491491817507  0.9636853213217832  0.015761034477179497  1.0000
  H   H26       1.0  0.3950560697514689  0.9842470324218978  0.036316130506492  1.0000
  H   H27       1.0  0.8950585581480508  0.036318715500762315  0.984238652416508  1.0000
  H   H28       1.0  0.6049466970390966  0.015757704138167104  0.9636856897481394  1.0000
  H   H29       1.0  0.9745799526862696  0.5593171018918143  0.6495506682783656  1.0000
  H   H30       1.0  0.5254114820568957  0.35045647256673373  0.4406874420606428  1.0000
  H   H31       1.0  0.025413119121459715  0.44068528183976957  0.35045833925798314  1.0000
  H   H32       1.0  0.4745904852053826  0.6495414912404841  0.5593141828102192  1.0000
  H   H33       1.0  0.8619298877182684  0.4922284944276498  0.48339309697502125  1.0000
  H   H34       1.0  0.638082251720192  0.5166086607771022  0.5077748235771083  1.0000
  H   H35       1.0  0.1380741076543686  0.5077716845945304  0.5166110317407373  1.0000
  H   H36       1.0  0.36192502742296984  0.4833892496986679  0.49222946180425003  1.0000
  H   H37       1.0  0.7816861278118807  0.7786023077466453  0.5504210481992686  1.0000
  H   H38       1.0  0.7183160958020735  0.4495837197185891  0.22140235301969108  1.0000
  H   H39       1.0  0.21832529300191078  0.2214069354877566  0.4495803641240741  1.0000
  H   H40       1.0  0.28168561807665776  0.550416468609143  0.7786014905949088  1.0000
  H   H41       1.0  0.8932306118867215  0.8472095755010683  0.7172159883275383  1.0000
  H   H42       1.0  0.6067630630295396  0.2827862341827442  0.15278545208325767  1.0000
  H   H43       1.0  0.10677638204691679  0.15278699806877677  0.2827776649518512  1.0000
  H   H44       1.0  0.3932403550670358  0.7172147270590159  0.847216914189147  1.0000
  H   H45       1.0  0.9129485294803105  0.7223142093701969  0.4119292094186592  1.0000
  H   H46       1.0  0.5870545850084952  0.588070773596364  0.2776759892093493  1.0000
  H   H47       1.0  0.08705011463379718  0.2776725766690618  0.5880654071716266  1.0000
  H   H48       1.0  0.41294838453039523  0.4119249309699954  0.7223255072259606  1.0000
  H   H49       1.0  0.912524644064902  0.8210706939743773  0.3142378127422558  1.0000
  H   H50       1.0  0.587473279965856  0.6857690585169395  0.17893308418184964  1.0000
  H   H51       1.0  0.08747756884432081  0.1789250242333296  0.6857629235678503  1.0000
  H   H52       1.0  0.4125211408734799  0.3142259010520405  0.8210690342921865  1.0000
  H   H53       1.0  0.5871373127315848  0.8310847423459933  0.17079669614975043  1.0000
  H   H54       1.0  0.9128646025118528  0.829207750398197  0.16892015485873907  1.0000
  H   H55       1.0  0.41285965053687324  0.16891786828487906  0.8291974894509837  1.0000
  H   H56       1.0  0.0871381136434906  0.1707901786886623  0.8310835603203017  1.0000
  H   H57       1.0  0.5936434068444356  0.9285699034140652  0.07158179932014977  1.0000
  H   H58       1.0  0.906366651640667  0.9284143139813851  0.07143036795167751  1.0000
  H   H59       1.0  0.4063655489062227  0.0714318995484788  0.9284142440467492  1.0000
  H   H60       1.0  0.09364208572605999  0.07157994454824032  0.9285665773833145  1.0000
  C   C1        1.0  0.37604385816236885  0.7416622098986994  0.05263400060338351  1.0000
  C   C2        1.0  0.12394942852978368  0.9473647136937089  0.25833686757052016  1.0000
  C   C3        1.0  0.6239538810772487  0.2583404397883271  0.9473576196651268  1.0000
  C   C4        1.0  0.8760547461964592  0.052636233906689305  0.7416662588270881  1.0000
  C   C5        1.0  0.41205862344523336  0.647461947915808  0.04142368025897275  1.0000
  C   C6        1.0  0.08793347442333754  0.9585759476252776  0.3525323782080035  1.0000
  C   C7        1.0  0.5879299632729199  0.3525374718676346  0.9585828755579939  1.0000
  C   C8        1.0  0.9120710474052203  0.0414265055130656  0.6474707388277636  1.0000
  C   C9        1.0  0.3726926706768907  0.5913773271903794  0.09172842788854037  1.0000
  C   C10       1.0  0.12730725978241247  0.9082755711011998  0.40861809014032247  1.0000
  C   C11       1.0  0.6273065199292773  0.40862512658191014  0.9082753540941725  1.0000
  C   C12       1.0  0.8726929759990014  0.09173140982443329  0.5913849986653972  1.0000
  C   C13       1.0  0.405892689469475  0.5057996721728486  0.08382897863435092  1.0000
  C   C14       1.0  0.09410256711557001  0.9161730046727358  0.49420108008422403  1.0000
  C   C15       1.0  0.5941029717192237  0.494207295745376  0.9161755352435179  1.0000
  C   C16       1.0  0.9058928326056516  0.0838294962273167  0.5058002314554387  1.0000
  C   C17       1.0  0.4802196270262229  0.4718569024574037  0.02562379951618248  1.0000
  C   C18       1.0  0.01977243610817682  0.9743777969176648  0.5281432285675578  1.0000
  C   C19       1.0  0.5197670993302809  0.5281410390708032  0.9743812454122037  1.0000
  C   C20       1.0  0.9802229245827263  0.025617928127694308  0.4718579826220477  1.0000
  C   C21       1.0  0.5160333840391047  0.3843364126238883  0.01633051453953985  1.0000
  C   C22       1.0  0.9839646650375612  0.9836683024730207  0.6156634038249251  1.0000
  C   C23       1.0  0.4839547226427214  0.6156608595174122  0.9836690718595592  1.0000
  C   C24       1.0  0.016031397594574105  0.016330454727224702  0.3843364584580371  1.0000
  C   C25       1.0  0.13899115941907067  0.733824503976571  0.9218896482655126  1.0000
  C   C26       1.0  0.36099856267626507  0.0781187792148543  0.266174910432099  1.0000
  C   C27       1.0  0.8610067987367315  0.26618249679410877  0.07811249034756425  1.0000
  C   C28       1.0  0.6390001521092118  0.9218882079144707  0.7338279883061888  1.0000
  C   C29       1.0  0.07310567617367518  0.6926780626246157  0.828560548884184  1.0000
  C   C30       1.0  0.42688908914912815  0.1714408906692526  0.3073173480090857  1.0000
  C   C31       1.0  0.9268890409478202  0.30732145881805206  0.1714387861046873  1.0000
  C   C32       1.0  0.5731126402028011  0.8285593398164863  0.6926838352395633  1.0000
  C   C33       1.0  0.013919467654801636  0.7508988729793913  0.7979972394622125  1.0000
  C   C34       1.0  0.48607183707299834  0.2020069542765128  0.2490999382861574  1.0000
  C   C35       1.0  0.986073244913463  0.24910516694500728  0.20200235239776282  1.0000
  C   C36       1.0  0.5139302355129445  0.7979947712076624  0.750901900692142  1.0000
  C   C37       1.0  0.026253260525578533  0.8508787829989616  0.867968891158384  1.0000
  C   C38       1.0  0.4737385923569093  0.1320379065302291  0.1491197190543261  1.0000
  C   C39       1.0  0.973747657508234  0.14912450692437318  0.13202942293320774  1.0000
  C   C40       1.0  0.5262595917570181  0.867960125483755  0.8508781051905032  1.0000
  C   C41       1.0  0.09395425733455201  0.8868486766299031  0.9603470761727168  1.0000
  C   C42       1.0  0.4060433221114578  0.039658634058639584  0.11315374755342589  1.0000
  C   C43       1.0  0.9060359789129961  0.1131545618638157  0.039655893270200665  1.0000
  C   C44       1.0  0.5939596787211556  0.9603438252834027  0.8868491794149096  1.0000
  C   C45       1.0  0.9443813103297457  0.70937232717624  0.6983693078942892  1.0000
  C   C46       1.0  0.5556076576509951  0.3016327662686749  0.29062478761221655  1.0000
  C   C47       1.0  0.055618932840936004  0.29062800436871333  0.3016256994635356  1.0000
  C   C48       1.0  0.4443973670763556  0.6983652272891521  0.709374557027573  1.0000
  C   C49       1.0  0.9326378497049744  0.6088986330351034  0.629872581573764  1.0000
  C   C50       1.0  0.5673539793218367  0.37013727529567575  0.3910998641936345  1.0000
  C   C51       1.0  0.0673623160997181  0.3911014877198085  0.3701357276138069  1.0000
  C   C52       1.0  0.4326569422990615  0.6298599037901197  0.6089025732170228  1.0000
  C   C53       1.0  0.868882617434295  0.5699451382141661  0.535214637387746  1.0000
  C   C54       1.0  0.6311226489018011  0.46477735851770774  0.4300461366674853  1.0000
  C   C55       1.0  0.1311130198499555  0.43004842554768885  0.4647803645092026  1.0000
  C   C56       1.0  0.3688852462004135  0.5352198751334925  0.5699532602423574  1.0000
  C   C57       1.0  0.8137428406019606  0.630758504020349  0.505222663276342  1.0000
  C   C58       1.0  0.6862666183471333  0.49477988800011025  0.3692442750379357  1.0000
  C   C59       1.0  0.1862606399196521  0.36923943250416597  0.49478048184492707  1.0000
  C   C60       1.0  0.3137420217798591  0.5052173003912372  0.63075787727157  1.0000
  C   C61       1.0  0.8240015777375617  0.7307218305133177  0.5728105558311327  1.0000
  C   C62       1.0  0.675995018639881  0.4271844761861344  0.26927667830381796  1.0000
  C   C63       1.0  0.1759996207578922  0.2692793086660146  0.42718088387631775  1.0000
  C   C64       1.0  0.3240048426137889  0.5728142549653584  0.730724324239226  1.0000
  C   C65       1.0  0.8878478626041326  0.769062637119042  0.6674374467854207  1.0000
  C   C66       1.0  0.6121461049197092  0.3325718928210861  0.23093374467705266  1.0000
  C   C67       1.0  0.11215844907709988  0.23093762745310192  0.3325609812081041  1.0000
  C   C68       1.0  0.3878566773440538  0.6674328858969859  0.769065415211628  1.0000
  C   C69       1.0  0.7499993750183832  0.6481007945656074  0.3519109349825698  1.0000
  C   C70       1.0  0.2500042925934309  0.3518979316161364  0.648089877637581  1.0000
  C   C71       1.0  0.8414346222932353  0.7139798604124935  0.36071505504011014  1.0000
  C   C72       1.0  0.658562934488266  0.6392818885542226  0.2860204914664521  1.0000
  C   C73       1.0  0.15856604166237528  0.28601231311198916  0.6392719752653663  1.0000
  C   C74       1.0  0.34143259395134606  0.3607145734508491  0.7139817126794696  1.0000
  C   C75       1.0  0.8409689815491674  0.7694970522110155  0.30496913660565644  1.0000
  C   C76       1.0  0.6590244172540878  0.6950344904123825  0.23050312546448026  1.0000
  C   C77       1.0  0.1590256611950593  0.23049879187070843  0.6950246635438759  1.0000
  C   C78       1.0  0.3409704366697213  0.30496568367399146  0.7695025232126014  1.0000
  C   C79       1.0  0.7499956699730035  0.7612930755210384  0.2387052143857744  1.0000
  C   C80       1.0  0.2499968238640022  0.23869674951075837  0.7612885281773744  1.0000
  C   C81       1.0  0.7499953927343056  0.8203567386110109  0.17964873216863703  1.0000
  C   C82       1.0  0.24999996022000198  0.17963896535534474  0.8203538092039508  1.0000
  C   C83       1.0  0.6599809146004746  0.8501169840346634  0.15008896863282925  1.0000
  C   C84       1.0  0.8400168785074058  0.8499039015338141  0.14988163662633258  1.0000
  C   C85       1.0  0.3400185875986637  0.149873539500696  0.8499072872815957  1.0000
  C   C86       1.0  0.1599810752703661  0.1500798839690631  0.8501123335961367  1.0000
  C   C87       1.0  0.6640538850850817  0.9059710641542439  0.09443811195480824  1.0000
  C   C88       1.0  0.8359556242491948  0.9055613011316838  0.09403257125629236  1.0000
  C   C89       1.0  0.335959871911065  0.09403512397836519  0.90556569450154  1.0000
  C   C90       1.0  0.1640514829296364  0.09442919138517418  0.9059646349953143  1.0000
  N   N1        1.0  0.1501556169662237  0.8297465019072662  0.9876745403609988  1.0000
  N   N2        1.0  0.3498437306008171  0.0123316752843081  0.17025185423304381  1.0000
  N   N3        1.0  0.8498438270234983  0.17025372734451594  0.01232702287797588  1.0000
  N   N4        1.0  0.6501598082926137  0.9876730897924092  0.8297480657808408  1.0000
  N   N5        1.0  0.7500036701891302  0.5914168648739349  0.4085883493871875  1.0000
  N   N6        1.0  0.249998043689601  0.4085833234537902  0.5914154942274125  1.0000
  N   N7        1.0  0.7500034950424066  0.934211647082222  0.06578070348960105  1.0000
  N   N8        1.0  0.2500027109678342  0.06577818535328112  0.9342107591315596  1.0000
  O   O1        1.0  0.3116387319915502  0.7644778846480732  0.111657793577379  1.0000
  O   O2        1.0  0.1883524067560103  0.8883339532693811  0.23552807262622363  1.0000
  O   O3        1.0  0.6883653444304443  0.23553237951259118  0.8883276991693875  1.0000
  O   O4        1.0  0.8116428252165094  0.11166781067094433  0.7644722459571156  1.0000
  O   O5        1.0  0.4065448303465544  0.7913764824114865  0.006887042770514966  1.0000
  O   O6        1.0  0.09345180073570701  0.9931121623232643  0.2086235269831818  1.0000
  O   O7        1.0  0.5934696785313704  0.20862620442985497  0.9931000173249274  1.0000
  O   O8        1.0  0.9065394922919835  0.0068956349422890995  0.7913767540082832  1.0000
