data_image0
_chemical_formula_structural       Zn2H16C24S4N8
_chemical_formula_sum              "Zn2 H16 C24 S4 N8"
_cell_length_a       4.64195862906352
_cell_length_b       9.310347378118307
_cell_length_c       16.823809926747405
_cell_angle_alpha    84.08248337949348
_cell_angle_beta     83.08640395067842
_cell_angle_gamma    76.99274766756534

_space_group_name_H-M_alt    "P 1"
_space_group_IT_number       1

loop_
  _space_group_symop_operation_xyz
  'x, y, z'

loop_
  _atom_site_type_symbol
  _atom_site_label
  _atom_site_symmetry_multiplicity
  _atom_site_fract_x
  _atom_site_fract_y
  _atom_site_fract_z
  _atom_site_occupancy
  Zn  Zn1       1.0  0.6859255077849935  0.25090326702153487  0.7509857571284398  1.0000
  Zn  Zn2       1.0  0.3140947694688307  0.7490988932270852  0.24901345615097634  1.0000
  H   H1        1.0  0.6769036854337996  0.45230250546730827  0.29507645838756963  1.0000
  H   H2        1.0  0.42485916697921766  0.0513725627367521  0.19930050217070772  1.0000
  H   H3        1.0  0.3230994885834447  0.5476884092531263  0.704921581659292  1.0000
  H   H4        1.0  0.575140495406188  0.9486263111624281  0.8007052234369212  1.0000
  H   H5        1.0  0.9894987184614266  0.33457292251193843  0.4007230495073913  1.0000
  H   H6        1.0  0.7155041252487562  0.17060994842466928  0.09187793655700466  1.0000
  H   H7        1.0  0.010518607238772541  0.6654257846276365  0.5992723816590767  1.0000
  H   H8        1.0  0.2844629574132467  0.829400825087383  0.9081239714225191  1.0000
  H   H9        1.0  0.7525001852029896  0.7525002472538845  0.5117781013984057  1.0000
  H   H10       1.0  0.019719718576865827  0.7424575040199528  0.9932119373425791  1.0000
  H   H11       1.0  0.24752204952948637  0.24749957386434565  0.48821630281879175  1.0000
  H   H12       1.0  0.9802917556500215  0.25756126406494667  0.0067876279720522955  1.0000
  H   H13       1.0  0.4479476524767988  0.8522744315350083  0.400881388418469  1.0000
  H   H14       1.0  0.7050374551737235  0.6430583417245116  0.10355901172198406  1.0000
  H   H15       1.0  0.5520452748729028  0.14771201593494251  0.5991181234017944  1.0000
  H   H16       1.0  0.2949766253511184  0.3569502918586807  0.8964347455167002  1.0000
  C   C1        1.0  0.700903944086164  0.5153364838315181  0.34416563316398213  1.0000
  C   C2        1.0  0.5597793737416338  0.9868648790324669  0.15224686200846094  1.0000
  C   C3        1.0  0.29908009581041733  0.4846488693792922  0.65583656975884  1.0000
  C   C4        1.0  0.44021709159630945  0.01314161804696569  0.8477541479362644  1.0000
  C   C5        1.0  0.8780585701920243  0.4500856114268572  0.404521865037765  1.0000
  C   C6        1.0  0.7275225228946168  0.0526708046837356  0.09132823816420206  1.0000
  C   C7        1.0  0.12194213142965526  0.5499020062281091  0.5954780043989487  1.0000
  C   C8        1.0  0.27244921039734044  0.9473454173054066  0.9086687847225717  1.0000
  C   C9        1.0  0.9060916372371468  0.5326279331570872  0.4673559777610805  1.0000
  C   C10       1.0  0.9052388647259447  0.9673208258445315  0.03219070743810459  1.0000
  C   C11       1.0  0.09390075234527709  0.46735413975557794  0.5326461108107593  1.0000
  C   C12       1.0  0.0947383659206336  0.03269880143096769  0.9678077411254763  1.0000
  C   C13       1.0  0.7460714450806591  0.6800929073294241  0.4655834523985263  1.0000
  C   C14       1.0  0.8941681865429343  0.8169926004104013  0.036952404429179485  1.0000
  C   C15       1.0  0.2539288279380258  0.3198924710323681  0.5344158349130409  1.0000
  C   C16       1.0  0.1058285457909209  0.1830303891404057  0.9630425805251901  1.0000
  C   C17       1.0  0.5727431385985113  0.7379070337191606  0.4034357155064754  1.0000
  C   C18       1.0  0.7174112063669609  0.7592979706509267  0.09880404793224075  1.0000
  C   C19       1.0  0.4272364689966893  0.26207714154279665  0.5965650547556506  1.0000
  C   C20       1.0  0.28259404774114216  0.2407140072006085  0.9011922832673916  1.0000
  C   C21       1.0  0.836629568291592  0.5218177724649492  0.8175635785553367  1.0000
  C   C22       1.0  0.1540438981680198  0.989078236970087  0.6807240454164685  1.0000
  C   C23       1.0  0.16337767099985  0.47819104464517187  0.1824385293836741  1.0000
  C   C24       1.0  0.8459648952766159  0.010924960091678294  0.3192751860239937  1.0000
  S   S1        1.0  0.9335752329570395  0.6610613601869842  0.8466670023872567  1.0000
  S   S2        1.0  0.3979741499740826  0.8569413329751683  0.6426529340566701  1.0000
  S   S3        1.0  0.06639832822607147  0.3389518690599971  0.15334199785073108  1.0000
  S   S4        1.0  0.602056682904667  0.14305887677591037  0.3573536949704632  1.0000
  N   N1        1.0  0.5520435142089749  0.6574916221234233  0.3429640232173555  1.0000
  N   N2        1.0  0.5552176469899806  0.8421130661871743  0.15637765864701691  1.0000
  N   N3        1.0  0.4479408574953607  0.3424860517007815  0.6570415108026425  1.0000
  N   N4        1.0  0.44478216031856016  0.15789342312841367  0.8436222762534628  1.0000
  N   N5        1.0  0.7743757460494572  0.41669942109606234  0.7951365007976392  1.0000
  N   N6        1.0  0.9796809383364216  0.08878634237255058  0.7096488046696621  1.0000
  N   N7        1.0  0.2256517042455143  0.5832948762390161  0.2048576928786261  1.0000
  N   N8        1.0  0.020329152746818298  0.9112012639465658  0.29034842874335004  1.0000
