data_image0
_chemical_formula_structural       Zn12H96C144I24N48
_chemical_formula_sum              "Zn12 H96 C144 I24 N48"
_cell_length_a       14.773596589478146
_cell_length_b       18.98007645610621
_cell_length_c       31.179171323640723
_cell_angle_alpha    100.57295645621653
_cell_angle_beta     89.978931835144
_cell_angle_gamma    112.92460400386996

_space_group_name_H-M_alt    "P 1"
_space_group_IT_number       1

loop_
  _space_group_symop_operation_xyz
  'x, y, z'

loop_
  _atom_site_type_symbol
  _atom_site_label
  _atom_site_symmetry_multiplicity
  _atom_site_fract_x
  _atom_site_fract_y
  _atom_site_fract_z
  _atom_site_occupancy
  Zn  Zn1       1.0  0.6955978179216303  0.6636684007036778  0.7323136764110317  1.0000
  Zn  Zn2       1.0  0.5530176028010841  0.8338561755965445  0.908510073629053  1.0000
  Zn  Zn3       1.0  0.22726863482250786  0.2502904733111606  0.5585581314918714  1.0000
  Zn  Zn4       1.0  0.9681972756052416  0.6637333498264085  0.2322799205390425  1.0000
  Zn  Zn5       1.0  0.28100223195217927  0.8340091718030038  0.4085138270525235  1.0000
  Zn  Zn6       1.0  0.0230660114691617  0.2503038560129269  0.05858184558420021  1.0000
  Zn  Zn7       1.0  0.03180622980315919  0.3362679285728874  0.7677198754813759  1.0000
  Zn  Zn8       1.0  0.7189969076295881  0.16598743933231222  0.5914873746849026  1.0000
  Zn  Zn9       1.0  0.9769349847538109  0.7496991712535036  0.9414168622291046  1.0000
  Zn  Zn10      1.0  0.30439736506279746  0.3363311241293943  0.2676849631450011  1.0000
  Zn  Zn11      1.0  0.4469850390139456  0.16614743462281467  0.0914880574147219  1.0000
  Zn  Zn12      1.0  0.7727285795054042  0.7497090541561917  0.4414421118159808  1.0000
  H   H1        1.0  0.05848805692065189  0.7171191455718715  0.7655459262455866  1.0000
  H   H2        1.0  0.9013104634261708  0.7397436890727038  0.7684184965617149  1.0000
  H   H3        1.0  0.7494042516629805  0.531749237686732  0.6816132351610805  1.0000
  H   H4        1.0  0.9006049146046138  0.5003931646481946  0.6750787494659108  1.0000
  H   H5        1.0  0.3093709223914445  0.4602477540038947  0.7010690186886848  1.0000
  H   H6        1.0  0.3280800208674676  0.35235884168089626  0.6462582926503586  1.0000
  H   H7        1.0  0.08512402457934339  0.32581184263199253  0.5684268706956247  1.0000
  H   H8        1.0  0.052378570053228685  0.42783471935458556  0.6210989493047734  1.0000
  H   H9        1.0  0.21791850445673333  0.7253754782318255  0.8217175961064171  1.0000
  H   H10       1.0  0.34668077705292427  0.8050576171057672  0.881865215078996  1.0000
  H   H11       1.0  0.5268750948954447  0.6890689070896415  0.8384360833144129  1.0000
  H   H12       1.0  0.40622920300231863  0.6061629077120614  0.7744054214110536  1.0000
  H   H13       1.0  0.8927215786274799  0.03647278839781621  0.4860972801261952  1.0000
  H   H14       1.0  0.05591352217420819  0.1520225163535471  0.4898908135045801  1.0000
  H   H15       1.0  0.11157117921010949  0.1612241430515695  0.6213864649950765  1.0000
  H   H16       1.0  0.9523280889548076  0.04648357075032551  0.6229617383108207  1.0000
  H   H17       1.0  0.5614090532135095  0.7783063854494259  0.6227814129502747  1.0000
  H   H18       1.0  0.5565014396586675  0.6979815858116325  0.6795463854231444  1.0000
  H   H19       1.0  0.8582463043182572  0.7599953141532013  0.6816327973264222  1.0000
  H   H20       1.0  0.87487082378329  0.8420808988798286  0.62509212306378  1.0000
  H   H21       1.0  0.640887577759585  0.9874562209079086  0.477455090552077  1.0000
  H   H22       1.0  0.4871259690040901  0.9616601194666288  0.4304568315825748  1.0000
  H   H23       1.0  0.3270569241558476  0.764359175749071  0.4791632225346021  1.0000
  H   H24       1.0  0.47445080717372434  0.7812652882262371  0.5274791275487658  1.0000
  H   H25       1.0  0.6587555852215985  0.7171294816827541  0.26562614626906383  1.0000
  H   H26       1.0  0.8386334869048541  0.7398426916104911  0.2684371999731994  1.0000
  H   H27       1.0  0.7825442163137027  0.5319863030190035  0.18154179295552103  1.0000
  H   H28       1.0  0.5999691728686968  0.5006008139427961  0.17502788213437984  1.0000
  H   H29       1.0  0.15090960912886692  0.4603211300287101  0.20104123031627816  1.0000
  H   H30       1.0  0.024334202511305133  0.3523192910935294  0.14624563371990015  1.0000
  H   H31       1.0  0.24089040600594563  0.3259005220310699  0.0684026896936274  1.0000
  H   H32       1.0  0.3756565175667673  0.42800704800324507  0.12106279225932332  1.0000
  H   H33       1.0  0.5075641580950007  0.725606017442864  0.3216991711717796  1.0000
  H   H34       1.0  0.4583477272264603  0.8052941501907754  0.38180998847957437  1.0000
  H   H35       1.0  0.16217855695216338  0.6892794430949678  0.338327273945751  1.0000
  H   H36       1.0  0.20001432961179696  0.606295558254054  0.2743514869329431  1.0000
  H   H37       1.0  0.1436845945481764  0.03669531058223191  0.9861347698827603  1.0000
  H   H38       1.0  0.0961613157280894  0.1522389746386139  0.9900345425257202  1.0000
  H   H39       1.0  0.04989693846357572  0.16127915983442886  0.12156760942141183  1.0000
  H   H40       1.0  0.094192434166068  0.046465512120264  0.12301788183336983  1.0000
  H   H41       1.0  0.21701327595216197  0.7783782411196468  0.12265830567202579  1.0000
  H   H42       1.0  0.14151794354475564  0.6980474362910414  0.17943643606670182  1.0000
  H   H43       1.0  0.9016876293934003  0.7598653920329638  0.1815334411064384  1.0000
  H   H44       1.0  0.9672273618373096  0.8420015379213127  0.12499991587880291  1.0000
  H   H45       1.0  0.34706636357478976  0.9876439755161925  0.9773375800567126  1.0000
  H   H46       1.0  0.47508836313301134  0.9616987359921797  0.9304499761634945  1.0000
  H   H47       1.0  0.4371544819884576  0.7643444432588212  0.9791850534124722  1.0000
  H   H48       1.0  0.30667358398803657  0.7813806946628928  0.027467726686943188  1.0000
  H   H49       1.0  0.34124685841329944  0.2828723807530622  0.7343740355185133  1.0000
  H   H50       1.0  0.16137166556474372  0.26015917592252447  0.7315661894164834  1.0000
  H   H51       1.0  0.2174601532531213  0.46801264593745623  0.8184612719410751  1.0000
  H   H52       1.0  0.4000342396581331  0.4994016323111552  0.824972364492723  1.0000
  H   H53       1.0  0.8490915730832641  0.5396795624792998  0.7989572178434659  1.0000
  H   H54       1.0  0.9756694077436022  0.647684901042183  0.8537512790437776  1.0000
  H   H55       1.0  0.759119017374509  0.6741071720625628  0.9315939705474038  1.0000
  H   H56       1.0  0.6243496154206696  0.5719994835126413  0.878937266980117  1.0000
  H   H57       1.0  0.4924365218932678  0.27438826148263473  0.6783033747131457  1.0000
  H   H58       1.0  0.5416491827186788  0.19470071005127212  0.6181913394699379  1.0000
  H   H59       1.0  0.8378159372541844  0.31071600053678594  0.6616741190894901  1.0000
  H   H60       1.0  0.7999837357794847  0.3936975534249356  0.7256512501020751  1.0000
  H   H61       1.0  0.8563182333690162  0.9633059653541521  0.013863422287364775  1.0000
  H   H62       1.0  0.9038331771221237  0.8477564632878015  0.009963001150630613  1.0000
  H   H63       1.0  0.9500872010712199  0.8387145237932571  0.8784284571583711  1.0000
  H   H64       1.0  0.9058038098007729  0.9535334253481695  0.8769781264961551  1.0000
  H   H65       1.0  0.7829876009731082  0.22161778035949453  0.8773386608901107  1.0000
  H   H66       1.0  0.8584816860699077  0.30195150588483  0.8205624590357914  1.0000
  H   H67       1.0  0.09831502585571884  0.2401423059582585  0.8184664274260742  1.0000
  H   H68       1.0  0.032776633716998994  0.1580020719939768  0.8749978942865867  1.0000
  H   H69       1.0  0.6529379238322904  0.012360217656095105  0.022659974217539507  1.0000
  H   H70       1.0  0.5249181414937  0.03830312458052991  0.06954860142909781  1.0000
  H   H71       1.0  0.562841763221506  0.23565449943951214  0.02081448349603219  1.0000
  H   H72       1.0  0.6933243196830218  0.2186229163829978  0.9725313670412349  1.0000
  H   H73       1.0  0.941508959114131  0.2828786336364929  0.23445604702615705  1.0000
  H   H74       1.0  0.0986866459422231  0.2602529241827867  0.2315843092229741  1.0000
  H   H75       1.0  0.25059285714035434  0.4682473731915309  0.3183879667240746  1.0000
  H   H76       1.0  0.0993944236093256  0.4996051961724462  0.32492168464734317  1.0000
  H   H77       1.0  0.6906255211116629  0.5397529369534199  0.2989287882559211  1.0000
  H   H78       1.0  0.671917192669369  0.6476406824583449  0.3537397051981443  1.0000
  H   H79       1.0  0.9148713450723067  0.6741853502953251  0.43157343388629243  1.0000
  H   H80       1.0  0.947612632516979  0.5721595564695293  0.3789023141498902  1.0000
  H   H81       1.0  0.782082174966476  0.2746187983164462  0.17828334587896683  1.0000
  H   H82       1.0  0.6533224357116225  0.19494307470841227  0.11813259137321101  1.0000
  H   H83       1.0  0.47313288163813644  0.3109399542118254  0.1615607068518798  1.0000
  H   H84       1.0  0.5937772087428286  0.39384012071530355  0.22559360678823032  1.0000
  H   H85       1.0  0.10727166826826111  0.9635255759306603  0.5139060414493883  1.0000
  H   H86       1.0  0.9440803079750283  0.8479770125871583  0.5101107131690982  1.0000
  H   H87       1.0  0.8884279863357561  0.8387806398239093  0.378615645480565  1.0000
  H   H88       1.0  0.04767252377695993  0.9535200463436554  0.3770412045792852  1.0000
  H   H89       1.0  0.4385960050183755  0.22169664423289956  0.37721857768720923  1.0000
  H   H90       1.0  0.4434991721690126  0.30202202747878454  0.3204539912277014  1.0000
  H   H91       1.0  0.14175778456965563  0.24000712980920721  0.3183658453519058  1.0000
  H   H92       1.0  0.12512571271439296  0.15791862469827583  0.3749055540540526  1.0000
  H   H93       1.0  0.35910905331483184  0.012542141947221802  0.5225469476576735  1.0000
  H   H94       1.0  0.5128730910171982  0.0383417468197678  0.5695462374703696  1.0000
  H   H95       1.0  0.6729436757068753  0.23564035595027377  0.5208395867663002  1.0000
  H   H96       1.0  0.5255503762815367  0.2187354095116731  0.4725228491899571  1.0000
  C   C1        1.0  0.16638061812157912  0.515574806192838  0.6968136702269946  1.0000
  C   C2        1.0  0.22692016888714764  0.6139824396195906  0.7561851723681416  1.0000
  C   C3        1.0  0.08160242828741807  0.590385204328804  0.7201862872538811  1.0000
  C   C4        1.0  0.9915184957673518  0.6071578404521105  0.7195801924965509  1.0000
  C   C5        1.0  0.9918575772076608  0.6755818835638081  0.7458960020510831  1.0000
  C   C6        1.0  0.9056673843553823  0.6884317568527649  0.7474812757294913  1.0000
  C   C7        1.0  0.8201713338970577  0.5715416329821251  0.6989725889772629  1.0000
  C   C8        1.0  0.9037240271185709  0.5544960232209989  0.6954812126192992  1.0000
  C   C9        1.0  0.1791733764633676  0.45237597987889444  0.665214260336093  1.0000
  C   C10       1.0  0.2574931626280729  0.4306743787355103  0.6723835465416457  1.0000
  C   C11       1.0  0.2687899610160613  0.37187702386052024  0.6420700985464124  1.0000
  C   C12       1.0  0.1326545582631056  0.35659809583096086  0.598378482224021  1.0000
  C   C13       1.0  0.11504245359147094  0.4137098890571239  0.627571078028069  1.0000
  C   C14       1.0  0.30218945876188746  0.659753921723798  0.7929234642837386  1.0000
  C   C15       1.0  0.2857622196835621  0.716134284533446  0.8238618002879862  1.0000
  C   C16       1.0  0.35731710299472036  0.7602207879018082  0.8576814039428201  1.0000
  C   C17       1.0  0.4570965900400381  0.6946767170727172  0.8333783066063634  1.0000
  C   C18       1.0  0.3896959038011261  0.6486637706352881  0.7980345831691766  1.0000
  C   C19       1.0  0.8187379545679293  0.9642684519864559  0.5546505602204519  1.0000
  C   C20       1.0  0.656796592585735  0.8974075447785239  0.533265200392826  1.0000
  C   C21       1.0  0.7262815272992783  0.8654415136419473  0.5872020766716163  1.0000
  C   C22       1.0  0.9124567527881525  0.031738036175468706  0.5540987851422373  1.0000
  C   C23       1.0  0.9402574852833683  0.062280824938156315  0.5163647783399838  1.0000
  C   C24       1.0  0.029638278853539594  0.1258360962278857  0.5183029095609726  1.0000
  C   C25       1.0  0.06125504045662209  0.1312999404037214  0.592116928172466  1.0000
  C   C26       1.0  0.9738786217404255  0.06763735359017893  0.5928088382827428  1.0000
  C   C27       1.0  0.7189375548227659  0.8164305746744278  0.6199356363252733  1.0000
  C   C28       1.0  0.6282928655604253  0.7753383293926533  0.6352650027875628  1.0000
  C   C29       1.0  0.625419045978049  0.731469882261692  0.6667040565342361  1.0000
  C   C30       1.0  0.7943278872415079  0.7659569611890973  0.6679237611113751  1.0000
  C   C31       1.0  0.8035112469064813  0.8112808954853323  0.6367265198972305  1.0000
  C   C32       1.0  0.5685385100063272  0.8858097885370384  0.5058403491325834  1.0000
  C   C33       1.0  0.5724562751446031  0.9376115055135656  0.4785227692273041  1.0000
  C   C34       1.0  0.4883021617692408  0.9237254762691692  0.4527292894316091  1.0000
  C   C35       1.0  0.39843856573293124  0.8126825573365083  0.4798860703712081  1.0000
  C   C36       1.0  0.4792771451600261  0.8225053762949062  0.5066209052238834  1.0000
  C   C37       1.0  0.3492653483220778  0.5156669624802818  0.19681734912882834  1.0000
  C   C38       1.0  0.3871716415277007  0.6140577474680455  0.2562059411415447  1.0000
  C   C39       1.0  0.5088895770541483  0.5904668963518701  0.22019548720884796  1.0000
  C   C40       1.0  0.6157572038385626  0.607258024016261  0.2195944566074317  1.0000
  C   C41       1.0  0.6838630945458278  0.675664420197819  0.24593032360756686  1.0000
  C   C42       1.0  0.7829255408842498  0.6885383271602521  0.24750250742827973  1.0000
  C   C43       1.0  0.7515719069011766  0.5717629272152748  0.1989255450090965  1.0000
  C   C44       1.0  0.6509333101402676  0.5547027406153048  0.19543699256780658  1.0000
  C   C45       1.0  0.2733377275754592  0.45251694802318804  0.1651781499326503  1.0000
  C   C46       1.0  0.17327274091734773  0.4307822540206275  0.17235507358814323  1.0000
  C   C47       1.0  0.10317819789660379  0.371954752311062  0.14204630151747474  1.0000
  C   C48       1.0  0.22410537065417205  0.3566972909490432  0.0983466216545281  1.0000
  C   C49       1.0  0.2988336091294244  0.41384412054686953  0.1275350968874136  1.0000
  C   C50       1.0  0.3576572815660554  0.6598398674944264  0.2929343073485455  1.0000
  C   C51       1.0  0.4304332042960723  0.7163137833513532  0.32384868216256285  1.0000
  C   C52       1.0  0.4029002798584927  0.7603795314415508  0.3576469977964578  1.0000
  C   C53       1.0  0.23758858877829422  0.694858436985534  0.3333110979056856  1.0000
  C   C54       1.0  0.25902525160834944  0.6488153541622167  0.2979973635285944  1.0000
  C   C55       1.0  0.14548710434328868  0.9643536266070284  0.054610404567412674  1.0000
  C   C56       1.0  0.24057555431523533  0.8975257797602725  0.03316695699616903  1.0000
  C   C57       1.0  0.13918266637053006  0.8655638555034598  0.08715568812812075  1.0000
  C   C58       1.0  0.11925649738748942  0.03182272015879311  0.05413666209653201  1.0000
  C   C59       1.0  0.12202780723750808  0.06245693261661961  0.016437445986362303  1.0000
  C   C60       1.0  0.0963031512579562  0.1260385975823581  0.018427091860821997  1.0000
  C   C61       1.0  0.070209037872111  0.1313959298069776  0.0922487088405788  1.0000
  C   C62       1.0  0.0938349280577668  0.06770584909401832  0.09289126253531782  1.0000
  C   C63       1.0  0.09762033314832039  0.8165369231105117  0.11989845817306129  1.0000
  C   C64       1.0  0.14717898369427465  0.7754483682263498  0.1351836694279385  1.0000
  C   C65       1.0  0.1061534895858429  0.7315680955468269  0.16663017272162509  1.0000
  C   C66       1.0  0.9716608298893235  0.7659245880801535  0.1678579464515337  1.0000
  C   C67       1.0  0.007840865914353368  0.8113056190817503  0.13668321399098463  1.0000
  C   C68       1.0  0.3173166129583223  0.8859267764235669  0.005759714868595694  1.0000
  C   C69       1.0  0.3654165561876326  0.9377268697574622  0.978452536851542  1.0000
  C   C70       1.0  0.435731308930535  0.923770592693039  0.9526974896879707  1.0000
  C   C71       1.0  0.4142653294455129  0.8127410729671709  0.9798982523323191  1.0000
  C   C72       1.0  0.34315927648054156  0.8225967500066248  0.006588688298059298  1.0000
  C   C73       1.0  0.6507374799341504  0.4843343148824388  0.8031818053810156  1.0000
  C   C74       1.0  0.6128312556802058  0.38593419885787483  0.7437976280617278  1.0000
  C   C75       1.0  0.49111169928268344  0.4095326335313843  0.7798060389231907  1.0000
  C   C76       1.0  0.3842453336950059  0.392742674843909  0.7804081615926252  1.0000
  C   C77       1.0  0.31614273417184086  0.3243374445682079  0.754071141053437  1.0000
  C   C78       1.0  0.21707873546197481  0.311461788224527  0.7525000457352891  1.0000
  C   C79       1.0  0.24843004636179697  0.4282366027536638  0.8010759810737015  1.0000
  C   C80       1.0  0.34906816516776473  0.44529854037960354  0.8045647282797788  1.0000
  C   C81       1.0  0.7266648215840236  0.5474878310017176  0.8348210732776311  1.0000
  C   C82       1.0  0.8267300065352785  0.5692242732632666  0.8276424196582328  1.0000
  C   C83       1.0  0.8968242457382941  0.6280471101247542  0.8579538802700952  1.0000
  C   C84       1.0  0.7758998049542286  0.6433127364379985  0.9016496569756927  1.0000
  C   C85       1.0  0.7011699086959665  0.5861612413452805  0.8724635496025785  1.0000
  C   C86       1.0  0.6423433860052227  0.3401503279382184  0.707069388066806  1.0000
  C   C87       1.0  0.5695669852072526  0.2836781626318228  0.6761548872376721  1.0000
  C   C88       1.0  0.5970958600529174  0.2396164956185771  0.6423541392491643  1.0000
  C   C89       1.0  0.7624078309079254  0.30513409126508156  0.6666918951189446  1.0000
  C   C90       1.0  0.7409741676352155  0.3511777576881486  0.7020053734079427  1.0000
  C   C91       1.0  0.8545143698346325  0.0356476496334253  0.9453881084810974  1.0000
  C   C92       1.0  0.7594266893313562  0.1024743272848809  0.9668301430566899  1.0000
  C   C93       1.0  0.8608189010279901  0.13443625430867462  0.9128433366534241  1.0000
  C   C94       1.0  0.8807416848152485  0.9681773868476856  0.9458607590316819  1.0000
  C   C95       1.0  0.8779693002096922  0.9375396725562982  0.9835599065399026  1.0000
  C   C96       1.0  0.9036956016682821  0.8739585900680495  0.9815693631160088  1.0000
  C   C97       1.0  0.9297813000876259  0.8686006735581984  0.9077480026182698  1.0000
  C   C98       1.0  0.9061598696272599  0.9322942579594767  0.90710647961901  1.0000
  C   C99       1.0  0.9023862784721218  0.1834678602320707  0.8801033309810294  1.0000
  C   C100      1.0  0.8528242296353243  0.22455232596504968  0.8648157409238025  1.0000
  C   C101      1.0  0.8938505996411055  0.2684343498419183  0.8333694322964221  1.0000
  C   C102      1.0  0.02834219733811239  0.23407844039422807  0.8321414027738643  1.0000
  C   C103      1.0  0.992160608602603  0.18869565858503987  0.8633162613972516  1.0000
  C   C104      1.0  0.6826852455018867  0.1140739133174549  0.9942368085624551  1.0000
  C   C105      1.0  0.6345845330299298  0.06227499012975813  0.021546041134982406  1.0000
  C   C106      1.0  0.5642674568647408  0.0762306803520048  0.0472990988780566  1.0000
  C   C107      1.0  0.5857390514081828  0.18726195472768836  0.020100455234775397  1.0000
  C   C108      1.0  0.6568371533624459  0.17739985222794272  0.993406739598001  1.0000
  C   C109      1.0  0.8336172733585058  0.48442472231108985  0.30318721459143216  1.0000
  C   C110      1.0  0.7730841065549825  0.3860176719616249  0.24381481455615983  1.0000
  C   C111      1.0  0.9183970961416962  0.40961082268430726  0.2798145287656268  1.0000
  C   C112      1.0  0.008481122673444492  0.39283702346079963  0.28042338071534806  1.0000
  C   C113      1.0  0.008141177752783255  0.3244153126446108  0.2541062269640761  1.0000
  C   C114      1.0  0.09432846438132002  0.3115636898030304  0.25252204188671373  1.0000
  C   C115      1.0  0.17982509843217542  0.42845497971222823  0.30102989607675573  1.0000
  C   C116      1.0  0.09627540488101968  0.44550117354855706  0.3045213371265305  1.0000
  C   C117      1.0  0.8208227751869615  0.5476241278214216  0.33478380249965073  1.0000
  C   C118      1.0  0.7425044359821343  0.5693245622324099  0.32761470714874724  1.0000
  C   C119      1.0  0.7312051155396945  0.6281195805798988  0.3579269333476702  1.0000
  C   C120      1.0  0.8673396560554137  0.643400846134867  0.401620734052294  1.0000
  C   C121      1.0  0.8849489477239201  0.5862861369277538  0.3724297385823264  1.0000
  C   C122      1.0  0.6978178158985601  0.3402467720308309  0.20707530421274362  1.0000
  C   C123      1.0  0.7142395338171214  0.2838634909957136  0.1761372856199088  1.0000
  C   C124      1.0  0.6426878490345231  0.23977932233875515  0.1423176205925216  1.0000
  C   C125      1.0  0.5429129267870323  0.30532981154347993  0.16661950692752475  1.0000
  C   C126      1.0  0.6103072157428214  0.35133808760721064  0.20196271154999584  1.0000
  C   C127      1.0  0.18125781370419963  0.035732246016849004  0.445352058472011  1.0000
  C   C128      1.0  0.34320217467868736  0.10259373444730359  0.4667355583119957  1.0000
  C   C129      1.0  0.273721102437797  0.134558014510894  0.4127981662423039  1.0000
  C   C130      1.0  0.08753747541650374  0.9682649954639903  0.4459034517424528  1.0000
  C   C131      1.0  0.05974022043358212  0.9377210392750827  0.4836370076918115  1.0000
  C   C132      1.0  0.9703611660150957  0.8741651859362992  0.4816997737740537  1.0000
  C   C133      1.0  0.9387410198943018  0.8687013418074798  0.40788607618867456  1.0000
  C   C134      1.0  0.026117332181825995  0.9323610082283763  0.40719255841644053  1.0000
  C   C135      1.0  0.28106547285671724  0.1835724557017286  0.3800649960197475  1.0000
  C   C136      1.0  0.3717111306719474  0.22466528337530184  0.36473473205726503  1.0000
  C   C137      1.0  0.3745812734317937  0.2685331453944998  0.3332949721082131  1.0000
  C   C138      1.0  0.20567581679905805  0.2340460668955232  0.3320752672848712  1.0000
  C   C139      1.0  0.19649002830023218  0.1887186296434678  0.36327179843573293  1.0000
  C   C140      1.0  0.43146025771014257  0.1141914925905709  0.4941616926918684  1.0000
  C   C141      1.0  0.4275384311280065  0.06238977557536881  0.5214795936725025  1.0000
  C   C142      1.0  0.5116948541525231  0.07627230246374948  0.5472723630602234  1.0000
  C   C143      1.0  0.6015620349208745  0.1873169776909478  0.5201189843890432  1.0000
  C   C144      1.0  0.5207243307130583  0.17749590707722265  0.49338241952323614  1.0000
  I   I1        1.0  0.7291153320299273  0.7560141396897537  0.8065625778888262  1.0000
  I   I2        1.0  0.5376199087730525  0.5416862746632204  0.7060785454926304  1.0000
  I   I3        1.0  0.6279969521156941  0.945931600862252  0.8681367817777784  1.0000
  I   I4        1.0  0.6311577792529944  0.7617344434776855  0.9471481174455294  1.0000
  I   I5        1.0  0.24687175717661347  0.29653478061354827  0.4863313375285757  1.0000
  I   I6        1.0  0.34015551952897033  0.20333611197649762  0.597534812736342  1.0000
  I   I7        1.0  0.02707216134272976  0.7560186675802427  0.3065467433821354  1.0000
  I   I8        1.0  0.003923623819851249  0.5416892262711813  0.20596581403886205  1.0000
  I   I9        1.0  0.31835860689670886  0.9460552424768313  0.3680885793847396  1.0000
  I   I10       1.0  0.1304944171494142  0.7617123360329289  0.44699220637820514  1.0000
  I   I11       1.0  0.0497821789708865  0.29643088299243914  0.9863137949016407  1.0000
  I   I12       1.0  0.8630021893955587  0.20324829229532074  0.0974639458537183  1.0000
  I   I13       1.0  0.9729275379016827  0.2439709464114942  0.6934584910932244  1.0000
  I   I14       1.0  0.9960802659838495  0.45831146610412793  0.7940323131440084  1.0000
  I   I15       1.0  0.6816401476116809  0.05394195182981321  0.6319123665107896  1.0000
  I   I16       1.0  0.8695014301181416  0.2382831044420826  0.5530069410992057  1.0000
  I   I17       1.0  0.9502084380855891  0.7035622187105446  0.013682847856777891  1.0000
  I   I18       1.0  0.13699809174620722  0.7967424806033065  0.9025356443608459  1.0000
  I   I19       1.0  0.2708818818459449  0.24398538587582408  0.19343638229938884  1.0000
  I   I20       1.0  0.46237230016607356  0.4583208364084754  0.2939199757700948  1.0000
  I   I21       1.0  0.3720022774093438  0.054063830056847506  0.13185562907537476  1.0000
  I   I22       1.0  0.36884221974072057  0.23825981824610654  0.052842880411972694  1.0000
  I   I23       1.0  0.7531256833297277  0.7034746749355206  0.5136735378120179  1.0000
  I   I24       1.0  0.6598429557696689  0.7966645835168861  0.4024658810797136  1.0000
  N   N1        1.0  0.23647911193772583  0.5532459158660004  0.7300466619950117  1.0000
  N   N2        1.0  0.15206109785056296  0.6361053403724598  0.7518303108412709  1.0000
  N   N3        1.0  0.08637441525047505  0.5310938814604356  0.6906603823847136  1.0000
  N   N4        1.0  0.2077870722003539  0.3357872202455212  0.6055297124089236  1.0000
  N   N5        1.0  0.44169402944467606  0.7501270864186937  0.8624382300195776  1.0000
  N   N6        1.0  0.820989649354473  0.6372992991400677  0.7245194108514641  1.0000
  N   N7        1.0  0.8152276842099723  0.9209790267053818  0.5846306060324196  1.0000
  N   N8        1.0  0.6438475914834141  0.8534020861594483  0.5636872997053359  1.0000
  N   N9        1.0  0.743309696833471  0.952102057080538  0.5263791062287099  1.0000
  N   N10       1.0  0.08928289119980089  0.1591946787823915  0.5553690876174571  1.0000
  N   N11       1.0  0.7069571539132654  0.7268032791196292  0.6828696243642867  1.0000
  N   N12       1.0  0.40288511570038565  0.8621386057855746  0.4531873481690738  1.0000
  N   N13       1.0  0.3168432197173559  0.553335610521394  0.23006506159522647  1.0000
  N   N14       1.0  0.48416794112129946  0.6361930703600863  0.2518426725224643  1.0000
  N   N15       1.0  0.44482196157765236  0.53120418671827  0.19065885571865956  1.0000
  N   N16       1.0  0.1281133057075863  0.33584373926857586  0.10550667981135581  1.0000
  N   N17       1.0  0.3084087633472734  0.7502993306279252  0.3623891022339052  1.0000
  N   N18       1.0  0.8165067730607947  0.6374762352073661  0.2245013169806427  1.0000
  N   N19       1.0  0.10571200473877691  0.921040936903296  0.08459389823504179  1.0000
  N   N20       1.0  0.20955205616074574  0.8535507373125455  0.0636055541113763  1.0000
  N   N21       1.0  0.20877110605873384  0.9522181841595413  0.026309502678941502  1.0000
  N   N22       1.0  0.0700442420853733  0.1593384804188389  0.0555192168777481  1.0000
  N   N23       1.0  0.01990806446390531  0.7268370683033184  0.1828082745090853  1.0000
  N   N24       1.0  0.45942730423116984  0.8621596649775685  0.9531915092202257  1.0000
  N   N25       1.0  0.6831573668242896  0.4466598338815331  0.7699363309968419  1.0000
  N   N26       1.0  0.515836813631907  0.36380529590049804  0.7481609689959329  1.0000
  N   N27       1.0  0.5551806802373703  0.4687994235010893  0.8093392753251152  1.0000
  N   N28       1.0  0.8718921494496072  0.6641627883580625  0.8944908132380576  1.0000
  N   N29       1.0  0.6915898864276214  0.24969495041774784  0.6376150476982758  1.0000
  N   N30       1.0  0.18349624265373882  0.362522713577718  0.7755017480144347  1.0000
  N   N31       1.0  0.8942920839231193  0.07896150610822869  0.9154041028834714  1.0000
  N   N32       1.0  0.7904474796682666  0.14644936891441776  0.9363912253585341  1.0000
  N   N33       1.0  0.791230461000751  0.047781924226264  0.9736885597628842  1.0000
  N   N34       1.0  0.9299466667108688  0.8406552040657047  0.9444768492096287  1.0000
  N   N35       1.0  0.9800969006603991  0.27316712828277184  0.8171915251752752  1.0000
  N   N36       1.0  0.5405721389422949  0.13784161005493437  0.0468063624161914  1.0000
  N   N37       1.0  0.7635249767241631  0.4467565271455243  0.2699513391235016  1.0000
  N   N38       1.0  0.8479391036177119  0.36389068720178847  0.24817082590890752  1.0000
  N   N39       1.0  0.9136225067726256  0.46890506084813655  0.3093388336946461  1.0000
  N   N40       1.0  0.7922048191479336  0.6642111367799048  0.3944687975665389  1.0000
  N   N41       1.0  0.5583123817354121  0.2498759396314441  0.1375591942801648  1.0000
  N   N42       1.0  0.17900572097524756  0.3626978966399221  0.27548281840989836  1.0000
  N   N43       1.0  0.18477389775275552  0.0790251756330633  0.4153733640369381  1.0000
  N   N44       1.0  0.35615377705691037  0.14659627301647762  0.43631185114057314  1.0000
  N   N45       1.0  0.2566863763864903  0.047903310525292404  0.47362403172162715  1.0000
  N   N46       1.0  0.9107137530826891  0.8408077708937044  0.4446340465212231  1.0000
  N   N47       1.0  0.29304510271538226  0.2732009137956055  0.3171279300576799  1.0000
  N   N48       1.0  0.5971121000966804  0.1378609278625618  0.5468170652775727  1.0000
