data_image0
_chemical_formula_structural       Ba2H36C20S2N4O18
_chemical_formula_sum              "Ba2 H36 C20 S2 N4 O18"
_cell_length_a       6.69242586101118
_cell_length_b       10.750244871383705
_cell_length_c       13.144179442373565
_cell_angle_alpha    77.73654892623264
_cell_angle_beta     75.1174888350169
_cell_angle_gamma    73.50722985919302

_space_group_name_H-M_alt    "P 1"
_space_group_IT_number       1

loop_
  _space_group_symop_operation_xyz
  'x, y, z'

loop_
  _atom_site_type_symbol
  _atom_site_label
  _atom_site_symmetry_multiplicity
  _atom_site_fract_x
  _atom_site_fract_y
  _atom_site_fract_z
  _atom_site_occupancy
  Ba  Ba1       1.0  0.6687301787852746  0.6826566611558319  0.22675829684455104  1.0000
  Ba  Ba2       1.0  0.3312713160590163  0.31734016557536643  0.7732471200402742  1.0000
  H   H1        1.0  0.8994723694879453  0.9372644648798383  0.5393989038594356  1.0000
  H   H2        1.0  0.10051444516082597  0.06273796843117198  0.4606012632531318  1.0000
  H   H3        1.0  0.7855516249847697  0.13271296633034516  0.6300583783762689  1.0000
  H   H4        1.0  0.21443866741588372  0.8672885312715053  0.3699422753175838  1.0000
  H   H5        1.0  0.9207583406302148  0.6869916729154113  0.8416907219227809  1.0000
  H   H6        1.0  0.07922126652113091  0.3130057199515405  0.1583090790698094  1.0000
  H   H7        1.0  0.8119974973142944  0.20381422109412733  0.025991001902610826  1.0000
  H   H8        1.0  0.18801422313671884  0.7961802641701251  0.9739998303069157  1.0000
  H   H9        1.0  0.6565131264332179  0.2774043483850264  0.13930698135931147  1.0000
  H   H10       1.0  0.3435041979489952  0.7225990765716187  0.8606829126479738  1.0000
  H   H11       1.0  0.5316216093647196  0.22551407220518624  0.0569367723477612  1.0000
  H   H12       1.0  0.4683865344390981  0.7744853565161802  0.9430550951834391  1.0000
  H   H13       1.0  0.6682852912864449  0.963552344003254  0.3209333000035244  1.0000
  H   H14       1.0  0.33170032656244086  0.03645674544593899  0.6790588887795294  1.0000
  H   H15       1.0  0.5057709623173919  0.12712734825522176  0.30723815283364075  1.0000
  H   H16       1.0  0.49422249774433874  0.872873949209669  0.6927552756355768  1.0000
  H   H17       1.0  0.7818650416688157  0.10230141609807217  0.2936513846714064  1.0000
  H   H18       1.0  0.21812729476943096  0.8976951031593002  0.7063476800064734  1.0000
  H   H19       1.0  0.7290896972393311  0.06149995242530789  0.9629595284820522  1.0000
  H   H20       1.0  0.2709076681861974  0.9384956169354123  0.037039061450812504  1.0000
  H   H21       1.0  0.15327308739262693  0.6362045907330226  0.26736188764077434  1.0000
  H   H22       1.0  0.8467252247113491  0.36379622304627895  0.7326454587789966  1.0000
  H   H23       1.0  0.14394045599913605  0.7640612543176954  0.1857690358247623  1.0000
  H   H24       1.0  0.8560676097549446  0.2359346328667867  0.8142357024990544  1.0000
  H   H25       1.0  0.6880658359709101  0.7186778621721855  0.4785734850860735  1.0000
  H   H26       1.0  0.31195028451830337  0.28132474325006024  0.521422052012241  1.0000
  H   H27       1.0  0.45030704321627707  0.7325463584218922  0.4779350727147715  1.0000
  H   H28       1.0  0.5497026687743868  0.2674680816199809  0.5220613002946308  1.0000
  H   H29       1.0  0.2614903812249524  0.6091289177993671  0.4215021092825637  1.0000
  H   H30       1.0  0.7385133165216118  0.3908700878239627  0.5785086866466428  1.0000
  H   H31       1.0  0.2871762706337363  0.4825684636458546  0.37314395557261554  1.0000
  H   H32       1.0  0.7128259224419081  0.5174304334778481  0.6268640141314207  1.0000
  H   H33       1.0  0.3491241969670967  0.5898518076439242  0.12906301936740047  1.0000
  H   H34       1.0  0.6508788304867962  0.4101450539746309  0.8709429512117168  1.0000
  H   H35       1.0  0.5485488417867189  0.579700844865762  0.03424635639670021  1.0000
  H   H36       1.0  0.45145329895810693  0.42030193731878984  0.9657593476588177  1.0000
  C   C1        1.0  0.921336803714972  0.7999130151257177  0.6848434786256873  1.0000
  C   C2        1.0  0.0786524337990357  0.20008727034294074  0.315150697994504  1.0000
  C   C3        1.0  0.8790172359534619  0.9261487687984981  0.6254778234625108  1.0000
  C   C4        1.0  0.1209758080290371  0.07384979631395787  0.3745230365242875  1.0000
  C   C5        1.0  0.8119164698390549  0.034995765998111494  0.6766422229079083  1.0000
  C   C6        1.0  0.18807204727124835  0.9649987603165964  0.32335772662393225  1.0000
  C   C7        1.0  0.7768367465271877  0.0239845953038866  0.7893265509772789  1.0000
  C   C8        1.0  0.22315390607532468  0.9760197818749388  0.21067121626074228  1.0000
  C   C9        1.0  0.8162812801694342  0.8937768662772849  0.848459213683583  1.0000
  C   C10       1.0  0.1837149465533798  0.10621771178706749  0.15153971676826924  1.0000
  C   C11       1.0  0.8885586050720489  0.7843970027503174  0.7949194162278275  1.0000
  C   C12       1.0  0.11141938920017218  0.2156043139023964  0.2050798379528374  1.0000
  C   C13       1.0  0.7867067975736215  0.8660001587183996  0.9658303391103402  1.0000
  C   C14       1.0  0.21328920696644357  0.13400624629044697  0.034167096968026604  1.0000
  C   C15       1.0  0.6917771850692062  0.06850821545804558  0.16002878072995938  1.0000
  C   C16       1.0  0.3082223961180545  0.93149324609368  0.8399676200267263  1.0000
  C   C17       1.0  0.6732735793676738  0.20092469882956715  0.09221130255122742  1.0000
  C   C18       1.0  0.32673419492139283  0.7990718748522523  0.907784208946083  1.0000
  C   C19       1.0  0.6609188946899563  0.06290497279702827  0.27711062943894393  1.0000
  C   C20       1.0  0.33906708912711997  0.937103233855424  0.7228847260882675  1.0000
  S   S1        1.0  0.013487315202475316  0.6630948763034538  0.6174232551285925  1.0000
  S   S2        1.0  0.9865187717042899  0.3369058174635241  0.3825777696391341  1.0000
  N   N1        1.0  0.7520233391740588  0.9720178204278294  0.01415759936072198  1.0000
  N   N2        1.0  0.24797396460775897  0.027981658531160695  0.9858394824339242  1.0000
  N   N3        1.0  0.7278813170623266  0.9597651838123863  0.12258469813307478  1.0000
  N   N4        1.0  0.27211868597050426  0.0402352477180514  0.8774103243060125  1.0000
  O   O1        1.0  0.180767672269134  0.695787340426406  0.5252566169779698  1.0000
  O   O2        1.0  0.8192519002530502  0.30420690268893935  0.4747545431427582  1.0000
  O   O3        1.0  0.8297762896228634  0.6491745704311921  0.5810117912952037  1.0000
  O   O4        1.0  0.17024697484784918  0.3508181726142324  0.418982432670063  1.0000
  O   O5        1.0  0.09167240671261821  0.5497394825887411  0.6932107731042477  1.0000
  O   O6        1.0  0.9083247387499396  0.45026041350646995  0.3067991863653816  1.0000
  O   O7        1.0  0.7065667929138326  0.13003413840128528  0.8355064470347245  1.0000
  O   O8        1.0  0.2934385957615785  0.8699644849731812  0.16449202491379816  1.0000
  O   O9        1.0  0.7968868630426584  0.7512588316762245  0.015784349477492285  1.0000
  O   O10       1.0  0.20311715356217522  0.24873183946466054  0.9842135550119977  1.0000
  O   O11       1.0  0.09496467947489141  0.6805650262106084  0.20235459768286998  1.0000
  O   O12       1.0  0.9050371383196633  0.31943477824727035  0.7976509627873014  1.0000
  O   O13       1.0  0.5855001743446236  0.7454573820299044  0.43102948004106173  1.0000
  O   O14       1.0  0.4145138032116975  0.2545542094847804  0.5689691679761707  1.0000
  O   O15       1.0  0.32097359162313654  0.5697951596620425  0.3547521913918246  1.0000
  O   O16       1.0  0.6790212241031597  0.4302066389012678  0.6452561834672538  1.0000
  O   O17       1.0  0.5045308325885427  0.5490443509821857  0.10987645931329842  1.0000
  O   O18       1.0  0.49547376472654736  0.45095244737402135  0.8901270349189474  1.0000
