data_image0
_chemical_formula_structural       Nd2H42C24O20
_chemical_formula_sum              "Nd2 H42 C24 O20"
_cell_length_a       8.620279827509
_cell_length_b       9.847571903110948
_cell_length_c       11.804254469943569
_cell_angle_alpha    74.96826845434997
_cell_angle_beta     69.29117962146401
_cell_angle_gamma    86.59192046723754

_space_group_name_H-M_alt    "P 1"
_space_group_IT_number       1

loop_
  _space_group_symop_operation_xyz
  'x, y, z'

loop_
  _atom_site_type_symbol
  _atom_site_label
  _atom_site_symmetry_multiplicity
  _atom_site_fract_x
  _atom_site_fract_y
  _atom_site_fract_z
  _atom_site_occupancy
  Nd  Nd1       1.0  0.7516853518245128  0.4859735401586889  0.5016940755972783  1.0000
  Nd  Nd2       1.0  0.24831005139557052  0.5140291950431788  0.49830642367636807  1.0000
  H   H1        1.0  0.22986757551259268  0.2757517562062759  0.8611774269035378  1.0000
  H   H2        1.0  0.7701290039115419  0.7242488671010464  0.13881984435711558  1.0000
  H   H3        1.0  0.19268757652920235  0.45577620966842153  0.8358724724668743  1.0000
  H   H4        1.0  0.8073088123084703  0.5442191754649314  0.16413107925161785  1.0000
  H   H5        1.0  0.3949549732456746  0.47392917111908156  0.9517095723586448  1.0000
  H   H6        1.0  0.605037622483735  0.526064088292742  0.04829542071897207  1.0000
  H   H7        1.0  0.39243951911954167  0.2890840948158128  0.9948425771876114  1.0000
  H   H8        1.0  0.6075557821060115  0.7109154729373658  0.005156101318064432  1.0000
  H   H9        1.0  0.0896356309832669  0.4733726389076551  0.05860857459690997  1.0000
  H   H10       1.0  0.9103543912017286  0.5266174201101493  0.9413910046262683  1.0000
  H   H11       1.0  0.0782953811081839  0.28816640468664906  0.10389579138363554  1.0000
  H   H12       1.0  0.9217046252298997  0.7118258382435912  0.8961058248363895  1.0000
  H   H13       1.0  0.2957505499875949  0.4673912943946449  0.1725561189146916  1.0000
  H   H14       1.0  0.704242274071099  0.5326082515697054  0.8274415069784521  1.0000
  H   H15       1.0  0.25309144323394855  0.2848928180130201  0.2328081499479353  1.0000
  H   H16       1.0  0.7469038467576467  0.7151067720531615  0.76719560950562  1.0000
  H   H17       1.0  0.7054568163180264  0.972517034526959  0.5520386525078748  1.0000
  H   H18       1.0  0.2945436298277001  0.02748781497785299  0.44795585076502675  1.0000
  H   H19       1.0  0.6989623814937075  0.9784982428574129  0.7021730277911257  1.0000
  H   H20       1.0  0.30103416205992767  0.021501328352520905  0.29782448337152084  1.0000
  H   H21       1.0  0.9523642630310221  0.8608457682414964  0.6013659160268643  1.0000
  H   H22       1.0  0.04763483317512401  0.13915592151438014  0.39863047429503945  1.0000
  H   H23       1.0  0.006618191665126002  0.019725268994797297  0.6230259911254163  1.0000
  H   H24       1.0  0.9933809045410199  0.980276420761079  0.37697039919648756  1.0000
  H   H25       1.0  0.9696738122605739  0.6983647375842639  0.2569457399999705  1.0000
  H   H26       1.0  0.0303276251197175  0.301632750695525  0.7430492752438409  1.0000
  H   H27       1.0  0.5271647475794267  0.7477410435532192  0.5216613754244221  1.0000
  H   H28       1.0  0.4728293434438982  0.2522595802782774  0.47833992417158555  1.0000
  H   H29       1.0  0.553662987923026  0.7005720696779889  0.6499479225293425  1.0000
  H   H30       1.0  0.4463360290528088  0.2994275307584289  0.3500523348951317  1.0000
  H   H31       1.0  0.9802804319106785  0.7396478837324595  0.3716342097265439  1.0000
  H   H32       1.0  0.019721179205141905  0.2603548761908031  0.6283621464812511  1.0000
  H   H33       1.0  0.7483239372719553  0.9429723843287621  0.9823546111031044  1.0000
  H   H34       1.0  0.2516887512260482  0.057028365730602104  0.0176461148404172  1.0000
  H   H35       1.0  0.6545162934416311  0.022665568103001  0.10487824766329368  1.0000
  H   H36       1.0  0.34549154458950676  0.9773383021085635  0.8951213469984862  1.0000
  H   H37       1.0  0.9456577584038327  0.1084627754013496  0.07852634961260926  1.0000
  H   H38       1.0  0.0543498475533752  0.8915348156953443  0.9214823058829392  1.0000
  H   H39       1.0  0.9035316327487521  0.9253166339451226  0.13771358274498624  1.0000
  H   H40       1.0  0.09646982365111259  0.07468193990156642  0.8622888140186545  1.0000
  H   H41       1.0  0.6286003591757774  0.26260825610093974  0.8291846456778769  1.0000
  H   H42       1.0  0.37140627239779184  0.7373966627512659  0.17081587642493898  1.0000
  C   C1        1.0  0.43529961100717424  0.40882398329800657  0.7347456478508005  1.0000
  C   C2        1.0  0.5646944120197973  0.5911745289010356  0.265254437899891  1.0000
  C   C3        1.0  0.2844396492293413  0.3780464568424122  0.8525234230953982  1.0000
  C   C4        1.0  0.7155555727659079  0.6219510215913147  0.14747912251284837  1.0000
  C   C5        1.0  0.3181205013400188  0.37940724554999866  0.9707794855015447  1.0000
  C   C6        1.0  0.6818734462013012  0.6205891698919215  0.029222773702422048  1.0000
  C   C7        1.0  0.15999526681741116  0.3802365409547548  0.0822969959160247  1.0000
  C   C8        1.0  0.8400010521515852  0.6197567362649751  0.9177061887817997  1.0000
  C   C9        1.0  0.2006291252274792  0.3847950259643227  0.1968019249211537  1.0000
  C   C10       1.0  0.7993636498544345  0.6152034939344732  0.8032018686465107  1.0000
  C   C11       1.0  0.05558175282531861  0.4130292184433415  0.3046135469466691  1.0000
  C   C12       1.0  0.9444147511131645  0.586969308106859  0.6953858977672667  1.0000
  C   C13       1.0  0.7494927210800454  0.1758650458441267  0.5717480169499962  1.0000
  C   C14       1.0  0.250503892342266  0.824136633279423  0.4282498612333184  1.0000
  C   C15       1.0  0.7678958009667767  0.018218230611239502  0.6007985148784982  1.0000
  C   C16       1.0  0.2321007765850354  0.9817823964149142  0.3991996032068099  1.0000
  C   C17       1.0  0.9490856030138985  0.9758283320236385  0.5699465216767406  1.0000
  C   C18       1.0  0.05091608545991021  0.024176520937913903  0.4300468142531315  1.0000
  C   C19       1.0  0.7609881161461445  0.16646144494993823  0.9285431322048364  1.0000
  C   C20       1.0  0.2390410891075163  0.8335509789009735  0.07145248172712117  1.0000
  C   C21       1.0  0.7664781689321458  0.0289951346655215  0.020853256187500297  1.0000
  C   C22       1.0  0.23353816357513316  0.9710035438822973  0.9791495284787999  1.0000
  C   C23       1.0  0.9237027991337426  0.012803242550752703  0.05356186122796199  1.0000
  C   C24       1.0  0.07631481157211792  0.9871964915512025  0.9464395161933152  1.0000
  O   O1        1.0  0.5818885473379324  0.3978656886300982  0.7393933855736988  1.0000
  O   O2        1.0  0.41810426548681795  0.6021338796472548  0.2606093212673243  1.0000
  O   O3        1.0  0.4193842187903342  0.4506693298568791  0.6277921224457257  1.0000
  O   O4        1.0  0.580611186302079  0.5493334016261571  0.37220753000327267  1.0000
  O   O5        1.0  0.9081966954258149  0.40511808402234106  0.30726192744258896  1.0000
  O   O6        1.0  0.09179246590034748  0.5948835706418976  0.6927421079742401  1.0000
  O   O7        1.0  0.08394601390861572  0.4465872053671377  0.394035336661119  1.0000
  O   O8        1.0  0.9160457075593555  0.5534165529677182  0.6059641906163833  1.0000
  O   O9        1.0  0.8506023680713424  0.25225797554281115  0.5883564664843206  1.0000
  O   O10       1.0  0.14939555754772724  0.7477458149511095  0.411640611376626  1.0000
  O   O11       1.0  0.6354747511674219  0.2346148802968458  0.5326830610452402  1.0000
  O   O12       1.0  0.364523165090013  0.7653889287912464  0.4673182509389377  1.0000
  O   O13       1.0  0.8988368611791983  0.707084080215239  0.34080841437563697  1.0000
  O   O14       1.0  0.1011659280130104  0.29291656409464656  0.6591838669945246  1.0000
  O   O15       1.0  0.6124655110691107  0.7135806564730984  0.5606567031796883  1.0000
  O   O16       1.0  0.3875298581527958  0.2864210229125348  0.4393431891712962  1.0000
  O   O17       1.0  0.6368724065607979  0.16679160897808745  0.8859392203589918  1.0000
  O   O18       1.0  0.3631404141852598  0.8332133717838629  0.11406562692444308  1.0000
  O   O19       1.0  0.8581348580117307  0.2679975362191058  0.8973255611194516  1.0000
  O   O20       1.0  0.141881119535185  0.7319906139170981  0.10267792891746544  1.0000
