data_image0
_chemical_formula_structural       CdH28C28N8Cl2
_chemical_formula_sum              "Cd1 H28 C28 N8 Cl2"
_cell_length_a       7.772570058454234
_cell_length_b       8.790654739476713
_cell_length_c       11.129698404240685
_cell_angle_alpha    106.75970528857074
_cell_angle_beta     91.11625515566372
_cell_angle_gamma    108.63815914459026

_space_group_name_H-M_alt    "P 1"
_space_group_IT_number       1

loop_
  _space_group_symop_operation_xyz
  'x, y, z'

loop_
  _atom_site_type_symbol
  _atom_site_label
  _atom_site_symmetry_multiplicity
  _atom_site_fract_x
  _atom_site_fract_y
  _atom_site_fract_z
  _atom_site_occupancy
  Cd  Cd1       1.0  0.9999994571178947  0.9999999408806629  2.4132834966753158e-06  1.0000
  H   H1        1.0  0.6591863141737664  0.1800227696139771  0.1300785194265686  1.0000
  H   H2        1.0  0.34081287522740683  0.8199805718349396  0.8699220792282105  1.0000
  H   H3        1.0  0.13739489006242425  0.18278762851925018  0.3191897512079649  1.0000
  H   H4        1.0  0.8626061436195515  0.8172245394378662  0.6808119920966291  1.0000
  H   H5        1.0  0.9566668233545033  0.3540693591023185  0.4936614733222129  1.0000
  H   H6        1.0  0.04333067769194795  0.6459364730911046  0.5063414698544904  1.0000
  H   H7        1.0  0.5393856289824016  0.3454729174081094  0.2948421267790096  1.0000
  H   H8        1.0  0.46060649285956873  0.6545177625307942  0.7051545843971994  1.0000
  H   H9        1.0  0.7058211290298502  0.5045478606859674  0.4180741687825105  1.0000
  H   H10       1.0  0.29416940753644394  0.4954528586487186  0.5819248178976224  1.0000
  H   H11       1.0  0.3436079582095034  0.07994886031702461  0.3326198286273723  1.0000
  H   H12       1.0  0.6563782517759054  0.9200505486760733  0.667377902978096  1.0000
  H   H13       1.0  0.1834538674233599  0.9558056713827482  0.4913119496808705  1.0000
  H   H14       1.0  0.8165461681164532  0.044196416107595796  0.5086928657610557  1.0000
  H   H15       1.0  0.2999145299516571  0.0900007914068439  0.7202891263941281  1.0000
  H   H16       1.0  0.7000966912819918  0.9100001806499163  0.27971468241424446  1.0000
  H   H17       1.0  0.7212302102940172  0.4845328069082128  0.6330209706465268  1.0000
  H   H18       1.0  0.27876937379166833  0.5154680318470211  0.366974568258847  1.0000
  H   H19       1.0  0.6440406249833828  0.5086101758370346  0.8582199208091055  1.0000
  H   H20       1.0  0.35596969824521824  0.49138827728371837  0.1417788075464301  1.0000
  H   H21       1.0  0.504072463411191  0.32310081893201914  0.8901266756720148  1.0000
  H   H22       1.0  0.4959318439011754  0.6768988188848012  0.10987044760672403  1.0000
  H   H23       1.0  0.6384678598203167  0.10453035744149729  0.9082500401951208  1.0000
  H   H24       1.0  0.36153942984385157  0.8954668001489449  0.09174835196385796  1.0000
  H   H25       1.0  0.9800301573674376  0.5205670393067761  0.8089267277142653  1.0000
  H   H26       1.0  0.019972305664118905  0.4794237720018514  0.1910692509146656  1.0000
  H   H27       1.0  0.18909469485029723  0.3390863604339174  0.866457082042622  1.0000
  H   H28       1.0  0.8109044449726356  0.6609131981030457  0.1335489401692698  1.0000
  C   C1        1.0  0.76898090402932  0.20282100176686405  0.2021413607523783  1.0000
  C   C2        1.0  0.2310181832734557  0.7971747867376137  0.7978620014444573  1.0000
  C   C3        1.0  0.012556352709417186  0.20849007681808723  0.3051886322180266  1.0000
  C   C4        1.0  0.9874450250981965  0.7915158098265421  0.6948107803702116  1.0000
  C   C5        1.0  0.9261545423801538  0.2947711093660813  0.3923037637818183  1.0000
  C   C6        1.0  0.07384037394094632  0.7052346874805692  0.6077009343374086  1.0000
  C   C7        1.0  0.6365698162513455  0.3676370067402103  0.3762871888875594  1.0000
  C   C8        1.0  0.36342370168610943  0.6323612366612538  0.6237103721487643  1.0000
  C   C9        1.0  0.54111804848948  0.29185150761828277  0.4727112634303979  1.0000
  C   C10       1.0  0.4588728843957314  0.708146701867463  0.5272871543737594  1.0000
  C   C11       1.0  0.39063233077613563  0.14166475276694968  0.4333997840284595  1.0000
  C   C12       1.0  0.609356466222799  0.8583346815555543  0.5666024798572876  1.0000
  C   C13       1.0  0.3023005730235582  0.0711596287267469  0.5222732228676534  1.0000
  C   C14       1.0  0.6976959807664971  0.9288399001876542  0.47773096158801565  1.0000
  C   C15       1.0  0.36768391839300557  0.14634922383648064  0.6508181570457836  1.0000
  C   C16       1.0  0.6323208902786065  0.853655444196356  0.349183717387092  1.0000
  C   C17       1.0  0.5215104186692374  0.2934304291120072  0.6911739395208586  1.0000
  C   C18       1.0  0.47849518165956806  0.7065692235161053  0.3088241026359952  1.0000
  C   C19       1.0  0.6046401023477801  0.36680349780036176  0.601464009653121  1.0000
  C   C20       1.0  0.395358189375223  0.6331973232814861  0.3985324067235112  1.0000
  C   C21       1.0  0.6024879209572519  0.3699345481363067  0.8284169857557444  1.0000
  C   C22       1.0  0.3975168348673179  0.6300663512951059  0.17158133048738478  1.0000
  C   C23       1.0  0.7616413977392329  0.19016179874557068  0.8882063350466608  1.0000
  C   C24       1.0  0.23836639164977677  0.8098403962161456  0.11179231739301801  1.0000
  C   C25       1.0  0.9419349638683842  0.40547405269294495  0.8346932330653444  1.0000
  C   C26       1.0  0.05806586169421725  0.5945230265479322  0.1653032592271373  1.0000
  C   C27       1.0  0.0429959158197875  0.3147805271807228  0.8637907957505887  1.0000
  C   C28       1.0  0.9570070502054192  0.685215307188649  0.1362144249058943  1.0000
  N   N1        1.0  0.9135980153620057  0.1521326858209235  0.187440491452854  1.0000
  N   N2        1.0  0.08640162287824885  0.8478719158115237  0.8125621983409985  1.0000
  N   N3        1.0  0.772592476988841  0.2909436751283323  0.325187402163408  1.0000
  N   N4        1.0  0.22740755658968942  0.7090584209483309  0.6748120242304054  1.0000
  N   N5        1.0  0.7639289376317607  0.32511734684312177  0.85142669156685  1.0000
  N   N6        1.0  0.23607357791996014  0.6748772344979841  0.1485719470771301  1.0000
  N   N7        1.0  0.9289822751382105  0.18061688570521275  0.8969331985782744  1.0000
  N   N8        1.0  0.07101855205880261  0.8193801863803996  0.1030677845876369  1.0000
  Cl  Cl1       1.0  0.6476038283141676  0.8048130011107517  0.935137748104637  1.0000
  Cl  Cl2       1.0  0.352394860708401  0.19518530582899266  0.06486079392006872  1.0000
