data_image0
_chemical_formula_structural       H36Pb2C20O8
_chemical_formula_sum              "H36 Pb2 C20 O8"
_cell_length_a       4.658880108927023
_cell_length_b       7.20922049407024
_cell_length_c       18.182882906862986
_cell_angle_alpha    92.58230018462368
_cell_angle_beta     97.06020919991998
_cell_angle_gamma    88.96269965251004

_space_group_name_H-M_alt    "P 1"
_space_group_IT_number       1

loop_
  _space_group_symop_operation_xyz
  'x, y, z'

loop_
  _atom_site_type_symbol
  _atom_site_label
  _atom_site_symmetry_multiplicity
  _atom_site_fract_x
  _atom_site_fract_y
  _atom_site_fract_z
  _atom_site_occupancy
  H   H1        1.0  0.8414314952269564  0.27651495803714  0.6102499919840481  1.0000
  H   H2        1.0  0.15856078145748137  0.7234843145227003  0.38975339694920297  1.0000
  H   H3        1.0  0.7160531445978221  0.047026789434305306  0.6057526156722374  1.0000
  H   H4        1.0  0.2839327004462362  0.9529780662256258  0.3942489939329547  1.0000
  H   H5        1.0  0.7662223591086885  0.0401738660223501  0.7486602311809063  1.0000
  H   H6        1.0  0.23377639459896932  0.9598224753952065  0.25134057409943006  1.0000
  H   H7        1.0  0.9155559631025127  0.2601243644929738  0.7518961761329164  1.0000
  H   H8        1.0  0.08443420531595079  0.739880455681849  0.24810612030749712  1.0000
  H   H9        1.0  0.3528829596170909  0.649243055174118  0.7740304275537537  1.0000
  H   H10       1.0  0.647120319248323  0.350772515708293  0.225965279550337  1.0000
  H   H11       1.0  0.23043987741474578  0.8830120813988104  0.7724388069079068  1.0000
  H   H12       1.0  0.7695655845415529  0.11700480551156998  0.2275553371883631  1.0000
  H   H13       1.0  0.5450830941684117  0.2056100312993578  0.48798379843869083  1.0000
  H   H14       1.0  0.4549328890017748  0.794377775973942  0.5120174394821289  1.0000
  H   H15       1.0  0.3691848143030684  0.3804157949272451  0.5386397666576099  1.0000
  H   H16       1.0  0.6308139259032971  0.6195747750778366  0.46135326068109334  1.0000
  H   H17       1.0  0.24597766181395292  0.1482374182963682  0.5338270821295408  1.0000
  H   H18       1.0  0.7540297344673518  0.8517559508615095  0.4661706577203119  1.0000
  H   H19       1.0  0.9686966029908176  0.6809077918611307  0.579616400412682  1.0000
  H   H20       1.0  0.0312784349049622  0.3190971447199543  0.42038321703937936  1.0000
  H   H21       1.0  0.3110464258309236  0.641467082697943  0.6310326780122251  1.0000
  H   H22       1.0  0.6889242695502985  0.3585336153501969  0.3689623446038154  1.0000
  H   H23       1.0  0.1624610606069723  0.8690794574781221  0.6270337842555802  1.0000
  H   H24       1.0  0.8375226100484311  0.1309211029482356  0.3729621986058972  1.0000
  H   H25       1.0  0.8311442802670895  0.8128541278959531  0.843799490089857  1.0000
  H   H26       1.0  0.1688763556431638  0.18717115947782048  0.15620404873613575  1.0000
  H   H27       1.0  0.9155626620060316  0.5710435638704536  0.8387234346536513  1.0000
  H   H28       1.0  0.0844493224923468  0.42898035941203017  0.16127706108154163  1.0000
  H   H29       1.0  0.3058902777730808  0.152858379634587  0.6772768188322542  1.0000
  H   H30       1.0  0.6940954361373882  0.8471311734288777  0.32272348118281247  1.0000
  H   H31       1.0  0.4370709325770079  0.3799633571773384  0.6827564367709369  1.0000
  H   H32       1.0  0.5629061738407444  0.6200318824365282  0.31724476621411657  1.0000
  H   H33       1.0  0.7607599300379773  0.7721736558189748  0.6978176584899882  1.0000
  H   H34       1.0  0.2392281326900019  0.22783669638760531  0.3021829953274703  1.0000
  H   H35       1.0  0.8998748576953942  0.5441404462882674  0.6998595670790093  1.0000
  H   H36       1.0  0.10011749590154298  0.4558671405592562  0.30014338590405737  1.0000
  Pb  Pb1       1.0  0.2762032479183105  0.248144233537495  0.9514330318692995  1.0000
  Pb  Pb2       1.0  0.7237713930254301  0.7518177432933301  0.04856874630370809  1.0000
  C   C1        1.0  0.6440651841014358  0.19344477954138742  0.6082599120376954  1.0000
  C   C2        1.0  0.3559227217381604  0.8065504259010082  0.3917449334908482  1.0000
  C   C3        1.0  0.7073569056218857  0.18878149004859074  0.7488933735721657  1.0000
  C   C4        1.0  0.29262670468568064  0.8112150456913694  0.2511075033704201  1.0000
  C   C5        1.0  0.1578773631122843  0.7382700729696481  0.7716513178811792  1.0000
  C   C6        1.0  0.8421322978354837  0.261734361565388  0.22834609243101056  1.0000
  C   C7        1.0  0.44067831158133686  0.2341179105854536  0.5383425896345739  1.0000
  C   C8        1.0  0.5593290718225674  0.765875536488558  0.4616579008658731  1.0000
  C   C9        1.0  0.586935679850839  0.2322431065664432  0.8211797353920216  1.0000
  C   C10       1.0  0.4130413909980816  0.7677508849846576  0.17882639973412034  1.0000
  C   C11       1.0  0.10850894132882867  0.7220956418348693  0.630569829764269  1.0000
  C   C12       1.0  0.8914682698438127  0.27790920687913717  0.36942765551987106  1.0000
  C   C13       1.0  0.008229475294584203  0.710323052658282  0.840839765726116  1.0000
  C   C14       1.0  0.991791072289452  0.28968959966006486  0.15915865065889526  1.0000
  C   C15       1.0  0.5055707480989895  0.2332280021246618  0.6793371439366067  1.0000
  C   C16       1.0  0.49442375350790974  0.7667781864601012  0.32066640849914296  1.0000
  C   C17       1.0  0.21484983686656992  0.7370544115635268  0.9114593594847373  1.0000
  C   C18       1.0  0.785196771171691  0.26296754344495105  0.08853615942999227  1.0000
  C   C19       1.0  0.9634818660571298  0.6904483019790105  0.6996774486106644  1.0000
  C   C20       1.0  0.0365061569268548  0.30955790087534046  0.3003236982469558  1.0000
  O   O1        1.0  0.3471414579516789  0.8896219928496619  0.9247071751236643  1.0000
  O   O2        1.0  0.6529199192260647  0.11035813406505922  0.07528825135926807  1.0000
  O   O3        1.0  0.7383677165634379  0.1947127954127481  0.8827032456674571  1.0000
  O   O4        1.0  0.2616482469786945  0.8052722040704551  0.11729685393314776  1.0000
  O   O5        1.0  0.3326554703822708  0.3013069525409407  0.8201404194611538  1.0000
  O   O6        1.0  0.6673516291748169  0.698658946461883  0.17986739226119394  1.0000
  O   O7        1.0  0.25437001449273566  0.605183353168826  0.9572655176547965  1.0000
  O   O8        1.0  0.7456395375249726  0.3948085709766076  0.04273117125737968  1.0000
