data_image0
_chemical_formula_structural       Cd4H56C48N8O18
_chemical_formula_sum              "Cd4 H56 C48 N8 O18"
_cell_length_a       10.338204092174255
_cell_length_b       10.375887529624535
_cell_length_c       14.1909
_cell_angle_alpha    102.17024904668271
_cell_angle_beta     111.15213951012178
_cell_angle_gamma    102.22066014552642

_space_group_name_H-M_alt    "P 1"
_space_group_IT_number       1

loop_
  _space_group_symop_operation_xyz
  'x, y, z'

loop_
  _atom_site_type_symbol
  _atom_site_label
  _atom_site_symmetry_multiplicity
  _atom_site_fract_x
  _atom_site_fract_y
  _atom_site_fract_z
  _atom_site_occupancy
  Cd  Cd1       1.0  0.6287630202183507  0.9454573184355866  0.10944241715011319  1.0000
  Cd  Cd2       1.0  0.835191950359004  0.0191444069726074  0.3905021536455636  1.0000
  Cd  Cd3       1.0  0.3712367183724865  0.05454363634300561  0.8905570975608728  1.0000
  Cd  Cd4       1.0  0.16480848039957152  0.9808555087608326  0.6094973828614273  1.0000
  H   H1        1.0  0.494842604373993  0.3443333299473252  0.03227762802266202  1.0000
  H   H2        1.0  0.312275822300137  0.9632229124880993  0.468346822000747  1.0000
  H   H3        1.0  0.5051567892202158  0.6556665857861077  0.9677216358351333  1.0000
  H   H4        1.0  0.6877249534550671  0.0367780422904929  0.531653670036377  1.0000
  H   H5        1.0  0.6234962630990921  0.3403870364503447  0.9790230616261228  1.0000
  H   H6        1.0  0.3609594065998678  0.1443181767413861  0.5212341367621605  1.0000
  H   H7        1.0  0.3765034754917451  0.6596139183282475  0.020976453084863067  1.0000
  H   H8        1.0  0.6390403319909694  0.855682778037206  0.47876537794882523  1.0000
  H   H9        1.0  0.8104363594791337  0.5417976272988483  0.14935954703415888  1.0000
  H   H10       1.0  0.3926176162655395  0.1604576651270264  0.3502544666673445  1.0000
  H   H11       1.0  0.18956303411507494  0.4582022884345919  0.8506390121467008  1.0000
  H   H12       1.0  0.6073821223252978  0.8395432896515657  0.649745752720584  1.0000
  H   H13       1.0  0.6708279524550562  0.5827308111623921  0.05839345590141685  1.0000
  H   H14       1.0  0.5248307074948713  0.1120734884601973  0.44122925232511534  1.0000
  H   H15       1.0  0.32917282330015507  0.41727014361620013  0.9416056267818291  1.0000
  H   H16       1.0  0.4751697232637042  0.8879264272732428  0.5587702841818825  1.0000
  H   H17       1.0  0.5242901639927098  0.5524218640041312  0.1669442236705622  1.0000
  H   H18       1.0  0.3855238585129328  0.8581120656085516  0.3337761011769659  1.0000
  H   H19       1.0  0.47570922960149886  0.4475780517293018  0.8330543355102906  1.0000
  H   H20       1.0  0.6144758800779044  0.1418888891700405  0.6662241182109555  1.0000
  H   H21       1.0  0.6721724568068836  0.5257464577513389  0.2625980646087882  1.0000
  H   H22       1.0  0.2631950726053347  0.9102762885476352  0.23799414297639035  1.0000
  H   H23       1.0  0.3278276289550561  0.47425241893694187  0.7374012210450119  1.0000
  H   H24       1.0  0.7368036288211286  0.089724666230957  0.7620058037623354  1.0000
  H   H25       1.0  0.9368121904283485  0.8677305066042322  0.12782006236238896  1.0000
  H   H26       1.0  0.7399398448256775  0.3095159658634756  0.37225918069664493  1.0000
  H   H27       1.0  0.06318685816921742  0.1322683700840557  0.8721789506422157  1.0000
  H   H28       1.0  0.2600616230972648  0.6904839498699644  0.6277413331364913  1.0000
  H   H29       1.0  0.5989768201494954  0.8659849107445865  0.8498720927623824  1.0000
  H   H30       1.0  0.0158354684698878  0.2492232926803339  0.6502363606090287  1.0000
  H   H31       1.0  0.40102257344470615  0.1340150049888535  0.15012717109541282  1.0000
  H   H32       1.0  0.9841642701209495  0.7507776620982582  0.34976385877889987  1.0000
  H   H33       1.0  0.8179948891003763  0.8014591676017986  0.7979882367128399  1.0000
  H   H34       1.0  0.003688581995909602  0.5192700893030278  0.7016214575569037  1.0000
  H   H35       1.0  0.1820045044938254  0.1985407481316344  0.2020117318218908  1.0000
  H   H36       1.0  0.9963097744339251  0.48072982643041223  0.29837823832863103  1.0000
  H   H37       1.0  0.13988269040215326  0.8524451133356264  0.0448043391924884  1.0000
  H   H38       1.0  0.8089842061706065  0.5950029734827922  0.45505509653555987  1.0000
  H   H39       1.0  0.8601156660276744  0.1475548023978135  0.9551946520161112  1.0000
  H   H40       1.0  0.19101518742359497  0.4049969422506408  0.544944871999178  1.0000
  H   H41       1.0  0.061828819311927005  0.7790854082888501  0.905092421945433  1.0000
  H   H42       1.0  0.8745169076313317  0.6557289284953853  0.59477297251793  1.0000
  H   H43       1.0  0.9381705742822747  0.22091450744458288  0.09490684191236205  1.0000
  H   H44       1.0  0.1254845602916177  0.3442709872380547  0.40522683663826353  1.0000
  H   H45       1.0  0.8024186975472745  0.5443266632050268  0.8602920599712932  1.0000
  H   H46       1.0  0.6839403010906651  0.4422321644091411  0.6398341380462613  1.0000
  H   H47       1.0  0.1975796588825531  0.4556732525284133  0.1397076359142417  1.0000
  H   H48       1.0  0.3160618590000226  0.5577667122791468  0.3601671022598226  1.0000
  H   H49       1.0  0.2328250387608932  0.6899259826219719  0.11789513061189891  1.0000
  H   H50       1.0  0.572953687648635  0.6151947379711871  0.3820362523104564  1.0000
  H   H51       1.0  0.7671743548333082  0.3100739331114681  0.8821048379228387  1.0000
  H   H52       1.0  0.42704778027430734  0.384805177762253  0.6179649661996224  1.0000
  H   H53       1.0  0.9593434213770353  0.10370501878544049  0.26323861160637574  1.0000
  H   H54       1.0  0.840307603204799  0.1955586885380711  0.236682124232594  1.0000
  H   H55       1.0  0.04065597221716641  0.8962948969479924  0.7367606522514193  1.0000
  H   H56       1.0  0.15969282755377634  0.8044412271953618  0.7633181169513465  1.0000
  C   C1        1.0  0.666154233579242  0.2688903393656759  0.11112478661144112  1.0000
  C   C2        1.0  0.15777481330164284  0.0550309485204963  0.38919969045031894  1.0000
  C   C3        1.0  0.3338455050115954  0.7311106154129163  0.8888747280995446  1.0000
  C   C4        1.0  0.8422259624535685  0.9449700062580959  0.6108008015868053  1.0000
  C   C5        1.0  0.6130602741636295  0.3691904071796586  0.05452803587070323  1.0000
  C   C6        1.0  0.31482203721116525  0.05879437007028089  0.44591464222352073  1.0000
  C   C7        1.0  0.386939119430572  0.6308095085537815  0.9454712279870849  1.0000
  C   C8        1.0  0.6851787385440389  0.9412065847083184  0.5540858498136033  1.0000
  C   C9        1.0  0.6917424853127869  0.523096892607235  0.11456729925013319  1.0000
  C   C10       1.0  0.4088966522759279  0.0771262437320246  0.3854621275104507  1.0000
  C   C11       1.0  0.3082572532780503  0.4769040621713572  0.8854322154608527  1.0000
  C   C12       1.0  0.5911041234792832  0.9228747110465675  0.6145383645266731  1.0000
  C   C13       1.0  0.6444499845813709  0.5774399932354157  0.20129516591082117  1.0000
  C   C14       1.0  0.376269201863451  0.9434103994811166  0.29905303785286463  1.0000
  C   C15       1.0  0.35555044617720455  0.4225599224980243  0.7987043705961697  1.0000
  C   C16       1.0  0.6237305367273791  0.0565905552974755  0.7009471815350637  1.0000
  C   C17       1.0  0.7078205604793908  0.7337923909568147  0.25450048878106907  1.0000
  C   C18       1.0  0.4793276198298031  0.9529862396254599  0.2452449891691941  1.0000
  C   C19       1.0  0.2921791781114464  0.2662085638217775  0.7454990259299166  1.0000
  C   C20       1.0  0.5206724659321438  0.0470126370628208  0.7547550011615487  1.0000
  C   C21       1.0  0.8739608300054158  0.8591490326727893  0.04565205314285238  1.0000
  C   C22       1.0  0.8133620841311995  0.3283621668767225  0.45435727536829523  1.0000
  C   C23       1.0  0.1260375264244189  0.1408508830606436  0.9543476427426825  1.0000
  C   C24       1.0  0.1866380016307403  0.6716367098115583  0.5456420102855121  1.0000
  C   C25       1.0  0.7019658786073961  0.8565410293348704  0.8996203520921853  1.0000
  C   C26       1.0  0.9565781758663618  0.3021803070723408  0.6003364900980019  1.0000
  C   C27       1.0  0.2980345521511722  0.1434588863985695  0.10037918441481251  1.0000
  C   C28       1.0  0.04342225489221363  0.6978196086610993  0.3996637510859388  1.0000
  C   C29       1.0  0.8076601287987515  0.8209433423399446  0.8726752695016629  1.0000
  C   C30       1.0  0.9484536865572508  0.43455465976215635  0.6271014875395764  1.0000
  C   C31       1.0  0.19233926479545  0.1790565733934955  0.12732540371001733  1.0000
  C   C32       1.0  0.05154536204032209  0.5654442169261245  0.372898934818906  1.0000
  C   C33       1.0  0.043108068440425064  0.7770083570249042  0.9762703555922985  1.0000
  C   C34       1.0  0.8014372572137488  0.5665383314738648  0.5235794412733554  1.0000
  C   C35       1.0  0.9568913251537765  0.22299155870853576  0.023728908265496815  1.0000
  C   C36       1.0  0.1985624813770883  0.4334626233047274  0.4764207781145657  1.0000
  C   C37       1.0  0.8898867379765105  0.5252560284383918  0.9215576430795097  1.0000
  C   C38       1.0  0.6036192738129174  0.4683651890912515  0.5785227712790049  1.0000
  C   C39       1.0  0.11011507494306728  0.4747449263402003  0.0784431216068171  1.0000
  C   C40       1.0  0.3963825412811417  0.5316326485518772  0.42147821817388836  1.0000
  C   C41       1.0  0.020256239616202296  0.6332658112991396  0.9880882529474564  1.0000
  C   C42       1.0  0.6455163008260598  0.5321812643934791  0.5118532151449815  1.0000
  C   C43       1.0  0.9797459183000043  0.3667361825246047  0.01191205791512563  1.0000
  C   C44       1.0  0.3544851670968896  0.4678186513399609  0.4881487080420329  1.0000
  C   C45       1.0  0.1301305351044206  0.6066932705166508  0.06679787805603607  1.0000
  C   C46       1.0  0.5403844910625892  0.563387946565264  0.43309275598412  1.0000
  C   C47       1.0  0.8698702406507834  0.3933076842619414  0.9332019093041525  1.0000
  C   C48       1.0  0.4596159396959862  0.4366119691681689  0.5669074851998134  1.0000
  N   N1        1.0  0.7449156334285689  0.8802052827297686  0.00759006895759741  1.0000
  N   N2        1.0  0.872067522796165  0.23737194364752412  0.49246316956688235  1.0000
  N   N3        1.0  0.2550827230012587  0.1197946330036643  0.9924096269279375  1.0000
  N   N4        1.0  0.1279332529590391  0.7626290111310681  0.5075373224702417  1.0000
  N   N5        1.0  0.9159082653427502  0.8234464021172556  0.966185510105895  1.0000
  N   N6        1.0  0.8576474780433402  0.4494909338588329  0.5336063355268906  1.0000
  N   N7        1.0  0.0840897460904486  0.1765524745710252  0.0338132302495069  1.0000
  N   N8        1.0  0.1423515705542329  0.5505079428294479  0.4663926774777139  1.0000
  O   O1        1.0  0.5848137509834784  0.1407823060804461  0.06732799382886878  1.0000
  O   O2        1.0  0.0728613487134453  0.0170507309861847  0.43292927239998863  1.0000
  O   O3        1.0  0.4151859876073587  0.8592186486981462  0.9326715208821171  1.0000
  O   O4        1.0  0.9271387370484947  0.982948145702096  0.5670707179307543  1.0000
  O   O5        1.0  0.7850853658714172  0.3127328496619626  0.1942057696212417  1.0000
  O   O6        1.0  0.118962204731119  0.0909850280034306  0.3060834855376201  1.0000
  O   O7        1.0  0.2149140277227843  0.6872670660714775  0.8057934942365537  1.0000
  O   O8        1.0  0.8810371888630827  0.9090148877300095  0.6939157783201751  1.0000
  O   O9        1.0  0.7564305707210367  0.8093455203248467  0.2072318569674537  1.0000
  O   O10       1.0  0.6022337551421941  0.0484049575699217  0.291816050658568  1.0000
  O   O11       1.0  0.2435691678698007  0.1906554344537454  0.7927676577435321  1.0000
  O   O12       1.0  0.39776633061974564  0.9515939191183663  0.7081846443491174  1.0000
  O   O13       1.0  0.7110141694489656  0.7845809181112742  0.34594848590603544  1.0000
  O   O14       1.0  0.4385416360120757  0.8650373015636319  0.15389892487534948  1.0000
  O   O15       1.0  0.2889862613096099  0.21541899762216588  0.6540510506009554  1.0000
  O   O16       1.0  0.5614581025787614  0.1349636532149603  0.8461019991895143  1.0000
  O   O17       1.0  0.8568155983680583  0.1066444775276665  0.24981030089038117  1.0000
  O   O18       1.0  0.14318517738714578  0.8933564772509257  0.7501894864698074  1.0000
