data_image0
_chemical_formula_structural       Zn4H20C16N16O8
_chemical_formula_sum              "Zn4 H20 C16 N16 O8"
_cell_length_a       8.30010778801052
_cell_length_b       9.309128319215333
_cell_length_c       11.98113634291441
_cell_angle_alpha    109.90953586581273
_cell_angle_beta     110.25556818179881
_cell_angle_gamma    89.99986845469849

_space_group_name_H-M_alt    "P 1"
_space_group_IT_number       1

loop_
  _space_group_symop_operation_xyz
  'x, y, z'

loop_
  _atom_site_type_symbol
  _atom_site_label
  _atom_site_symmetry_multiplicity
  _atom_site_fract_x
  _atom_site_fract_y
  _atom_site_fract_z
  _atom_site_occupancy
  Zn  Zn1       1.0  0.41054384598159294  0.0327898918937848  0.3475897958117854  1.0000
  Zn  Zn2       1.0  0.06294285026058327  0.46723719769681765  0.6524769540099482  1.0000
  Zn  Zn3       1.0  0.5894563818857321  0.9672107905423882  0.6524098117416484  1.0000
  Zn  Zn4       1.0  0.9370572034586356  0.53276233189856  0.34752230515743293  1.0000
  H   H1        1.0  0.016643839284256497  0.6050515885204745  0.1297566883993467  1.0000
  H   H2        1.0  0.8869080992154253  0.8950038155587309  0.8702854418706064  1.0000
  H   H3        1.0  0.9833576701909125  0.39494909086483426  0.8702440617705771  1.0000
  H   H4        1.0  0.1130906679283115  0.10499571270461418  0.12971434161455864  1.0000
  H   H5        1.0  0.14237307720560466  0.7564863141230587  0.12851999898555266  1.0000
  H   H6        1.0  0.01382199917381401  0.7435374993489957  0.8714581676244247  1.0000
  H   H7        1.0  0.8576269740297917  0.2435132132808704  0.8714800936489623  1.0000
  H   H8        1.0  0.9861769421180285  0.2564631817551444  0.12854196424679296  1.0000
  H   H9        1.0  0.25396480103954394  0.7426725116044678  0.5832463922639446  1.0000
  H   H10       1.0  0.6707728254559271  0.7572945652004959  0.41674764195963815  1.0000
  H   H11       1.0  0.7460341427361143  0.25732817169112104  0.41675290614013943  1.0000
  H   H12       1.0  0.3292259441716325  0.24270496525429042  0.5832513080583863  1.0000
  H   H13       1.0  0.3079072082307804  0.0116476387623408  0.9293501015223169  1.0000
  H   H14       1.0  0.3785437689127065  0.48831416165194946  0.0706723427118802  1.0000
  H   H15       1.0  0.6920917330610622  0.9883530423418064  0.07065003034890065  1.0000
  H   H16       1.0  0.6214562823226971  0.5116853657519796  0.9293277499226347  1.0000
  H   H17       1.0  0.3918288802217802  0.8391046226785831  0.923818682548912  1.0000
  H   H18       1.0  0.4679409635148062  0.660872850621672  0.07618835261039435  1.0000
  H   H19       1.0  0.6081689486426711  0.16089720993433324  0.07618232202614907  1.0000
  H   H20       1.0  0.532059090204413  0.3391266789736989  0.923810906556987  1.0000
  C   C1        1.0  0.1820118461230251  0.7468691747558792  0.3036888593965016  1.0000
  C   C2        1.0  0.8782684678277378  0.7531575920475787  0.6963085476323837  1.0000
  C   C3        1.0  0.817988379260477  0.2531315054888523  0.6963115816240729  1.0000
  C   C4        1.0  0.12173158092384281  0.2468419331649088  0.3036923784692575  1.0000
  C   C5        1.0  0.25261725571991883  0.7614333368440069  0.4983364815760535  1.0000
  C   C6        1.0  0.754255050928819  0.7384915690696232  0.5016448130790888  1.0000
  C   C7        1.0  0.7473816855719164  0.23856734426013304  0.501663650295171  1.0000
  C   C8        1.0  0.24574500279040729  0.2615079605257549  0.4983544460882923  1.0000
  C   C9        1.0  0.37163782712032395  0.9684829842784167  0.10137449017420133  1.0000
  C   C10       1.0  0.27029104471896653  0.5314746177864859  0.8986611291751384  1.0000
  C   C11       1.0  0.6283596559317459  0.03151654484434369  0.8986249841616069  1.0000
  C   C12       1.0  0.7297102906080964  0.46852490875802744  0.10133927260872608  1.0000
  C   C13       1.0  0.4103462071130152  0.9614836551191739  0.9852322488324031  1.0000
  C   C14       1.0  0.42509906195026304  0.5384912041741075  0.014787794805414506  1.0000
  C   C15       1.0  0.5896527341788199  0.0385170259849659  0.014767883038814484  1.0000
  C   C16       1.0  0.574901163433232  0.46150947607061704  0.98521264621516  1.0000
  N   N1        1.0  0.32507329696813503  0.8524568892423614  0.3750237073921239  1.0000
  N   N2        1.0  0.9500365730859314  0.6475609204915925  0.6249806195458728  1.0000
  N   N3        1.0  0.6749267567510843  0.1475426403530165  0.6249755517752503  1.0000
  N   N4        1.0  0.049963480633287795  0.35243860910377817  0.3750186396215013  1.0000
  N   N5        1.0  0.3670758666392047  0.861844786937979  0.5004815156327067  1.0000
  N   N6        1.0  0.8666097750719147  0.6381284015441794  0.49951211660803085  1.0000
  N   N7        1.0  0.6329241870800145  0.1381547426573917  0.49951774353466755  1.0000
  N   N8        1.0  0.13339156025514853  0.3618711250003343  0.5004882851758337  1.0000
  N   N9        1.0  0.1343399736331747  0.6869558206077641  0.3792218994518634  1.0000
  N   N10       1.0  0.7550645077405137  0.813018288095563  0.6207787291184628  1.0000
  N   N11       1.0  0.865659903454123  0.31304255395536973  0.6207778447965919  1.0000
  N   N12       1.0  0.24493554349488994  0.1869812393083663  0.379221363516052  1.0000
  N   N13       1.0  0.09528494303670239  0.708572568787467  0.1779768894922994  1.0000
  N   N14       1.0  0.9172527568696222  0.7914443370062186  0.8220408646659433  1.0000
  N   N15       1.0  0.9047162181422621  0.29142580491625136  0.8220231639055054  1.0000
  N   N16       1.0  0.0827474685138725  0.20855634323850578  0.17795957635463103  1.0000
  O   O1        1.0  0.21939952383215203  0.9269176809580981  0.08848973635346606  1.0000
  O   O2        1.0  0.1309498011493915  0.5730353841377535  0.9115856131152636  1.0000
  O   O3        1.0  0.7805995916077892  0.07308415298684419  0.9115107439038113  1.0000
  O   O4        1.0  0.8690515341776714  0.42696414240676006  0.08841478866860082  1.0000
  O   O5        1.0  0.4980346989616605  0.018284117364153498  0.2110503610012627  1.0000
  O   O6        1.0  0.28699585735802213  0.4815795373594582  0.7889586698715189  1.0000
  O   O7        1.0  0.5019655239380185  0.9817165606891294  0.7889509134864381  1.0000
  O   O8        1.0  0.7130029122695374  0.5184199930953353  0.2110402801465126  1.0000
