data_image0
_chemical_formula_structural       Zn4H24C36N16O8
_chemical_formula_sum              "Zn4 H24 C36 N16 O8"
_cell_length_a       4.821590563000078
_cell_length_b       10.985585836000643
_cell_length_c       18.5162510960008
_cell_angle_alpha    90.00003355367188
_cell_angle_beta     89.99999759610031
_cell_angle_gamma    89.99997961683587

_space_group_name_H-M_alt    "P 1"
_space_group_IT_number       1

loop_
  _space_group_symop_operation_xyz
  'x, y, z'

loop_
  _atom_site_type_symbol
  _atom_site_label
  _atom_site_symmetry_multiplicity
  _atom_site_fract_x
  _atom_site_fract_y
  _atom_site_fract_z
  _atom_site_occupancy
  Zn  Zn1       1.0  0.006468803674465599  0.0040280931176255004  0.178381681862291  1.0000
  Zn  Zn2       1.0  0.9935307933017228  0.5040271578559298  0.8216183416511953  1.0000
  Zn  Zn3       1.0  0.006468589799602899  0.5040269879867978  0.3216186466639499  1.0000
  Zn  Zn4       1.0  0.993531007176955  0.0040273527030266  0.6783813768493729  1.0000
  H   H1        1.0  0.41420751133765066  0.4554942162039879  0.2147595321024269  1.0000
  H   H2        1.0  0.5857917202772142  0.9554942190423148  0.7852406480909551  1.0000
  H   H3        1.0  0.4142073033322617  0.9554939854082249  0.2852409486555416  1.0000
  H   H4        1.0  0.5857919282829724  0.4554935395543538  0.7147592315376841  1.0000
  H   H5        1.0  0.6594066615374814  0.5238291429703211  0.10684028890115371  1.0000
  H   H6        1.0  0.340594993418243  0.0238289117586277  0.8931602815504505  1.0000
  H   H7        1.0  0.6594047667525017  0.023828639778699295  0.39316003937396  1.0000
  H   H8        1.0  0.34059481419924953  0.5238285046664258  0.6068399910113698  1.0000
  H   H9        1.0  0.22822740816605597  0.2573831886944191  0.9779280217167142  1.0000
  H   H10       1.0  0.771774057779801  0.7573833185650116  0.022071549656814706  1.0000
  H   H11       1.0  0.22822724262504576  0.7573826978341671  0.5220717930590125  1.0000
  H   H12       1.0  0.7717721493167459  0.257382899141966  0.4779283183804921  1.0000
  H   H13       1.0  0.9647230576959981  0.19260052837583427  0.0857090624425183  1.0000
  H   H14       1.0  0.03527846067686369  0.6926007448354596  0.9142910265145545  1.0000
  H   H15       1.0  0.9647228288673443  0.6926004251079476  0.4142907810072458  1.0000
  H   H16       1.0  0.035276615501175  0.19260084810324676  0.585708767883709  1.0000
  H   H17       1.0  0.7523013187027913  0.3546269234526491  0.9494422479090049  1.0000
  H   H18       1.0  0.24769799454155356  0.8546271634313951  0.0505573572126465  1.0000
  H   H19       1.0  0.7523011485650031  0.8546273710258916  0.5505575948976826  1.0000
  H   H20       1.0  0.24769816467929923  0.35462671585841576  0.4494425502901009  1.0000
  H   H21       1.0  0.7879409482768691  0.5004389162969147  0.9851687273926047  1.0000
  H   H22       1.0  0.21205865160364107  0.0004387475022155999  0.0148312948753997  1.0000
  H   H23       1.0  0.7879411885422555  0.0004389495228665  0.5148309921055017  1.0000
  H   H24       1.0  0.21205841133825487  0.5004387142762567  0.4851690301625027  1.0000
  C   C1        1.0  0.0269474106884289  0.2728886041132839  0.22242088059386592  1.0000
  C   C2        1.0  0.9730519687049008  0.7728885388182435  0.7775792362268703  1.0000
  C   C3        1.0  0.026949277923698393  0.7728883657460841  0.2775790009500767  1.0000
  C   C4        1.0  0.9730521754740236  0.2728887771852797  0.7224211158706453  1.0000
  C   C5        1.0  0.1728847167667809  0.3175124899371653  0.1585694095140298  1.0000
  C   C6        1.0  0.8271146265134561  0.8175125105630772  0.8414307227932767  1.0000
  C   C7        1.0  0.172886573699472  0.8175114043845256  0.3414304859242421  1.0000
  C   C8        1.0  0.8271127695814968  0.3175117755482617  0.6585696463827518  1.0000
  C   C9        1.0  0.36606159489649304  0.4126698965912395  0.16311408142378533  1.0000
  C   C10       1.0  0.6339355973706801  0.9126699429365744  0.8368860839075865  1.0000
  C   C11       1.0  0.36606345256213757  0.9126697168312817  0.3368858449312668  1.0000
  C   C12       1.0  0.6339358137094775  0.41267012269610587  0.6631137803339726  1.0000
  C   C13       1.0  0.5077700084725264  0.4507898066336793  0.1015001031990153  1.0000
  C   C14       1.0  0.4922313009538541  0.9507899360271992  0.8985000753617314  1.0000
  C   C15       1.0  0.5077697821918717  0.9507896877610661  0.398499834839491  1.0000
  C   C16       1.0  0.49222945323011646  0.4507900548999687  0.6015003437212627  1.0000
  C   C17       1.0  0.4639525457944274  0.39468079850315974  0.034692833766385406  1.0000
  C   C18       1.0  0.5360467350352351  0.8946809870635659  0.9653073253219446  1.0000
  C   C19       1.0  0.4639523087338944  0.8946807456497508  0.4653070852777148  1.0000
  C   C20       1.0  0.536046972095768  0.39468103991697495  0.5346930738106153  1.0000
  C   C21       1.0  0.268035907456337  0.3005474612132417  0.030064991865856396  1.0000
  C   C22       1.0  0.7319655235576262  0.8005476237079491  0.9699351345538149  1.0000
  C   C23       1.0  0.2680356696490662  0.8005474129330709  0.46993489664692584  1.0000
  C   C24       1.0  0.731963687360512  0.3005476719882836  0.5300652297727596  1.0000
  C   C25       1.0  0.12246777148315857  0.2631275593019637  0.09095960215312722  1.0000
  C   C26       1.0  0.8775316158095445  0.7631276388553375  0.9090399712139643  1.0000
  C   C27       1.0  0.1224675435017204  0.7631274508454878  0.4090402749612423  1.0000
  C   C28       1.0  0.87753184379131  0.2631268370283521  0.590959838471818  1.0000
  C   C29       1.0  0.6313971995907295  0.43238246865170993  0.9701041119146508  1.0000
  C   C30       1.0  0.3686041247322436  0.9323826693046372  0.0298960602579044  1.0000
  C   C31       1.0  0.6313970327869  0.932382895806825  0.52989575919581  1.0000
  C   C32       1.0  0.3686042915357461  0.43238315243297604  0.47010387291077654  1.0000
  C   C33       1.0  0.4687807225688515  0.4814658586663611  0.9064416664358533  1.0000
  C   C34       1.0  0.531218488027676  0.9814660967998848  0.0935585227709339  1.0000
  C   C35       1.0  0.46878054549294745  0.9814654384492414  0.5935582234827166  1.0000
  C   C36       1.0  0.5312207391083844  0.4814656067328401  0.406441425657782  1.0000
  N   N1        1.0  0.8124952829217306  0.1516178508501937  0.2971109203781879  1.0000
  N   N2        1.0  0.18750419461320428  0.6516178345951362  0.7028886142898402  1.0000
  N   N3        1.0  0.8124950882040735  0.6516184489578549  0.20288891050951463  1.0000
  N   N4        1.0  0.18750646333487708  0.15161814677102833  0.7971106241586554  1.0000
  N   N5        1.0  0.8139740022194245  0.2591205524225657  0.3260341804096143  1.0000
  N   N6        1.0  0.18602538831610363  0.7591205078167037  0.6739653915668455  1.0000
  N   N7        1.0  0.8139758861735231  0.7591202116642819  0.1739656877702203  1.0000
  N   N8        1.0  0.18602557836672418  0.25911993829137  0.8260344242721942  1.0000
  N   N9        1.0  0.9468035853981216  0.3374859352717293  0.2807064433165963  1.0000
  N   N10       1.0  0.05319574171807059  0.837485956231987  0.7192936959224312  1.0000
  N   N11       1.0  0.9468033880338351  0.8374856393066709  0.219293450610607  1.0000
  N   N12       1.0  0.053195939082769386  0.33748534191305174  0.7807061485621389  1.0000
  N   N13       1.0  0.9444040393345503  0.1567354237815906  0.23263404594554524  1.0000
  N   N14       1.0  0.0555954340584037  0.6567364021556158  0.7673660305648156  1.0000
  N   N15       1.0  0.9444038342129982  0.6567360856058357  0.2673663253452929  1.0000
  N   N16       1.0  0.0555956391799555  0.15673574033137777  0.7326337511650678  1.0000
  O   O1        1.0  0.20810947417917444  0.49610324481224677  0.9134430876569012  1.0000
  O   O2        1.0  0.7918917985761168  0.9961034352609844  0.0865565665636012  1.0000
  O   O3        1.0  0.20810929823300475  0.9961028176763024  0.5865568101852716  1.0000
  O   O4        1.0  0.791891974522656  0.49610295211319766  0.41344284403506754  1.0000
  O   O5        1.0  0.592349899033195  0.5060152615610605  0.8472795861678935  1.0000
  O   O6        1.0  0.40764969633447373  0.006015198441112102  0.1527204380353808  1.0000
  O   O7        1.0  0.5923501170490297  0.006015431049888801  0.652720677465382  1.0000
  O   O8        1.0  0.40764947831863907  0.5060150289522909  0.3472793467378921  1.0000
