data_image0
_chemical_formula_structural       Cd2H18C28S4N14
_chemical_formula_sum              "Cd2 H18 C28 S4 N14"
_cell_length_a       7.597150568378802
_cell_length_b       9.749665314619392
_cell_length_c       14.234899327731771
_cell_angle_alpha    110.00606722037257
_cell_angle_beta     105.7992240319413
_cell_angle_gamma    89.95989803885308

_space_group_name_H-M_alt    "P 1"
_space_group_IT_number       1

loop_
  _space_group_symop_operation_xyz
  'x, y, z'

loop_
  _atom_site_type_symbol
  _atom_site_label
  _atom_site_symmetry_multiplicity
  _atom_site_fract_x
  _atom_site_fract_y
  _atom_site_fract_z
  _atom_site_occupancy
  Cd  Cd1       1.0  7.481217927821619e-06  0.999999118007324  0.5000027508400535  1.0000
  Cd  Cd2       1.0  0.5000062747529341  0.5000012435028652  0.49999973931110736  1.0000
  H   H1        1.0  0.7500494429087257  0.25162585603106885  0.9999591857668265  1.0000
  H   H2        1.0  0.24994699490088124  0.7483764459938059  4.1798241937813644e-05  1.0000
  H   H3        1.0  0.9422499102805731  0.32864595745975583  0.6214615844643134  1.0000
  H   H4        1.0  0.557226321269667  0.7072489001074092  0.37809920454719054  1.0000
  H   H5        1.0  0.05775026630402643  0.6713530977247475  0.378539083156099  1.0000
  H   H6        1.0  0.44276706743495703  0.2927566769316812  0.6218944513373188  1.0000
  H   H7        1.0  0.8590917070814117  0.4895768947882787  0.7800004119546032  1.0000
  H   H8        1.0  0.6408508915018702  0.7094635651365808  0.21965015534173926  1.0000
  H   H9        1.0  0.14090299480203336  0.5104232003491874  0.21999842847140638  1.0000
  H   H10       1.0  0.3591446838402278  0.2905376541620584  0.7803420270744184  1.0000
  H   H11       1.0  0.7967681209935267  0.0996462176215829  0.8531938979667829  1.0000
  H   H12       1.0  0.7033193268501918  0.2465174553984468  0.146807254764262  1.0000
  H   H13       1.0  0.20323789656389837  0.9003550891885937  0.146809424968133  1.0000
  H   H14       1.0  0.2966799080496614  0.7534859748503709  0.8531936359763251  1.0000
  H   H15       1.0  0.878705391163422  0.9577708917383561  0.6931937678838764  1.0000
  H   H16       1.0  0.6208068757687358  0.2646659460942118  0.30662896070867174  1.0000
  H   H17       1.0  0.12130144729378861  0.04222384321064251  0.3068102007762263  1.0000
  H   H18       1.0  0.379194399630869  0.7353429838262073  0.6933741912720564  1.0000
  C   C1        1.0  0.402820092936878  0.8543539304172685  0.5660559908441628  1.0000
  C   C2        1.0  0.09741279186943073  0.2888990251126486  0.43464106017578535  1.0000
  C   C3        1.0  0.5971797199872527  0.14563963398062904  0.4339461384269328  1.0000
  C   C4        1.0  0.902598782217588  0.7110935847460527  0.5653573550115426  1.0000
  C   C5        1.0  0.9087584052377624  0.2833969059348362  0.6754391890732521  1.0000
  C   C6        1.0  0.5908090861210695  0.6079929959054341  0.324235565196645  1.0000
  C   C7        1.0  0.09124444765213724  0.7166010806767462  0.324562254124345  1.0000
  C   C8        1.0  0.40918330311753703  0.39201365859155873  0.6757610380015038  1.0000
  C   C9        1.0  0.8631241198491683  0.3721169395325675  0.7632311597843541  1.0000
  C   C10       1.0  0.63683966012902  0.6088463752982066  0.23651529258677337  1.0000
  C   C11       1.0  0.1368717062020437  0.6278809761318983  0.23676729913884031  1.0000
  C   C12       1.0  0.3631509931834317  0.39115807231137734  0.7634791670286206  1.0000
  C   C13       1.0  0.8247667641517042  0.30927958023159624  0.8314493661820707  1.0000
  C   C14       1.0  0.6753719468337921  0.4778148470532458  0.16839858685293055  1.0000
  C   C15       1.0  0.17523328903673274  0.690719477364013  0.16854988051292005  1.0000
  C   C16       1.0  0.32462007874434573  0.5221863166571412  0.8315994779959013  1.0000
  C   C17       1.0  0.8292010284581154  0.15722689460984182  0.8055409646642886  1.0000
  C   C18       1.0  0.6707699859781047  0.35176157118259266  0.19438207911927216  1.0000
  C   C19       1.0  0.17080611326708353  0.8427722327273345  0.1944619767678121  1.0000
  C   C20       1.0  0.32922514387508534  0.6482418143279532  0.8056182998895595  1.0000
  C   C21       1.0  0.8749646066070441  0.07619293753943883  0.7157207709029125  1.0000
  C   C22       1.0  0.6247151114548474  0.36059933580833103  0.28414432559980446  1.0000
  C   C23       1.0  0.12504253511815483  0.9238061897977446  0.2842821705291883  1.0000
  C   C24       1.0  0.3752831213677865  0.6394073711063656  0.7158572226836384  1.0000
  C   C25       1.0  0.7829206402389205  0.4022420212973544  0.9253821200257377  1.0000
  C   C26       1.0  0.7174547473553191  0.47681680594369885  0.07450484917236375  1.0000
  C   C27       1.0  0.21707971882871396  0.5977592294784557  0.07461838921202711  1.0000
  C   C28       1.0  0.2825400766186804  0.523184386386646  0.9254942672936864  1.0000
  S   S1        1.0  0.3550235548645376  0.016152279598792105  0.6300394747510367  1.0000
  S   S2        1.0  0.14417541252367272  0.3873924305451055  0.37085228715341156  1.0000
  S   S3        1.0  0.6449686097769886  0.9838356864526364  0.36997374964794016  1.0000
  S   S4        1.0  0.8558347302107735  0.6126012652103798  0.6291441021085549  1.0000
  N   N1        1.0  0.4369846772630979  0.7364594056100914  0.5193024116195775  1.0000
  N   N2        1.0  0.06377782180540953  0.21720393056563134  0.48116062528462333  1.0000
  N   N3        1.0  0.5630164935651081  0.2635429705324556  0.48069072914562133  1.0000
  N   N4        1.0  0.936232993079898  0.7827952499486984  0.5188378546402391  1.0000
  N   N5        1.0  0.9160471716927749  0.13790698084929434  0.6521451124944805  1.0000
  N   N6        1.0  0.5833273800193978  0.48583570260236536  0.34758812630595765  1.0000
  N   N7        1.0  0.08395692876105444  0.8620888238781819  0.34785737012573054  1.0000
  N   N8        1.0  0.41666774591698913  0.5141709817201419  0.6524088180466949  1.0000
  N   N9        1.0  0.7710319349149515  0.5466310789699449  0.9535241487874658  1.0000
  N   N10       1.0  0.7295557978625666  0.5930657821748754  0.04637754530903491  1.0000
  N   N11       1.0  0.2289666278340405  0.45336686652002817  0.04647465129023232  1.0000
  N   N12       1.0  0.27044157902057014  0.4069343439936547  0.9536209258087638  1.0000
  N   N13       1.0  0.7501342541944354  0.35549732748545904  0.9999444716179013  1.0000
  N   N14       1.0  0.24986561781656755  0.6444984349148515  5.6078345124974336e-05  1.0000
