data_image0
_chemical_formula_structural       Rb2H16C28S2O12
_chemical_formula_sum              "Rb2 H16 C28 S2 O12"
_cell_length_a       4.654602626892065
_cell_length_b       13.58334968064804
_cell_length_c       11.604044204736221
_cell_angle_alpha    106.41466148965024
_cell_angle_beta     90.05004168727562
_cell_angle_gamma    89.97186596778087

_space_group_name_H-M_alt    "P 1"
_space_group_IT_number       1

loop_
  _space_group_symop_operation_xyz
  'x, y, z'

loop_
  _atom_site_type_symbol
  _atom_site_label
  _atom_site_symmetry_multiplicity
  _atom_site_fract_x
  _atom_site_fract_y
  _atom_site_fract_z
  _atom_site_occupancy
  Rb  Rb1       1.0  0.881520923804942  0.4999405974364919  0.7501431979741751  1.0000
  Rb  Rb2       1.0  0.1184673856936911  0.5000762105207813  0.24985852734612018  1.0000
  H   H1        1.0  0.47668315568351727  0.80521040417603  0.4208163585659717  1.0000
  H   H2        1.0  0.47652817960504723  0.1948186007702901  0.07931437426420018  1.0000
  H   H3        1.0  0.523300854224189  0.19479488168406797  0.5791764127632533  1.0000
  H   H4        1.0  0.523483787473694  0.8051821280361225  0.9207018973562029  1.0000
  H   H5        1.0  0.17786312612337704  0.9536588049001722  0.5252600057565431  1.0000
  H   H6        1.0  0.1776767793321241  0.0464214014773106  0.9748358485294304  1.0000
  H   H7        1.0  0.8221294757744319  0.046349548630132596  0.4747329124208903  1.0000
  H   H8        1.0  0.8223180017413866  0.9535777951297105  0.025180778793242063  1.0000
  H   H9        1.0  0.05420495844609972  0.8231606641817282  0.8208984332081072  1.0000
  H   H10       1.0  0.0544564687317077  0.17655642510342778  0.6787791547885647  1.0000
  H   H11       1.0  0.9458284730406846  0.17684924059174284  0.17910448097911313  1.0000
  H   H12       1.0  0.9455361657684945  0.8234312578086291  0.3212328305385554  1.0000
  H   H13       1.0  0.3687049481859007  0.6756058574230933  0.7177471447610271  1.0000
  H   H14       1.0  0.3691080067684851  0.3240451708834158  0.7818984492511092  1.0000
  H   H15       1.0  0.6313606980584084  0.3244132380240999  0.2822501746724981  1.0000
  H   H16       1.0  0.6308781731032482  0.67595094098818  0.21810940791205977  1.0000
  C   C1        1.0  0.6259661438723967  0.6414361987648433  0.49967887455220955  1.0000
  C   C2        1.0  0.6261213759974352  0.3583847875493048  0.00027996128719107036  1.0000
  C   C3        1.0  0.3740500795037107  0.3585798110116301  0.5003079436021379  1.0000
  C   C4        1.0  0.37387769028988066  0.6416051735039757  0.9997207082886133  1.0000
  C   C5        1.0  0.4414707526710728  0.7307788917979747  0.562569961147396  1.0000
  C   C6        1.0  0.4415556467299736  0.26905554053160335  0.9373383712233119  1.0000
  C   C7        1.0  0.5585153940399293  0.26922099771826413  0.43740897420107666  1.0000
  C   C8        1.0  0.5584326809990614  0.7309351954744017  0.06266599793266173  1.0000
  C   C9        1.0  0.3859504091178679  0.8091651267867092  0.5084169004512801  1.0000
  C   C10       1.0  0.3859644906591201  0.1907652306651002  0.9915806914216816  1.0000
  C   C11       1.0  0.6140250040099247  0.1908378503451686  0.4915716643290579  1.0000
  C   C12       1.0  0.6140474760478298  0.8092255158520699  0.008429717790704588  1.0000
  C   C13       1.0  0.21564173471238493  0.8922843021149517  0.5665683231883705  1.0000
  C   C14       1.0  0.21558232320556672  0.10767825936918743  0.9333851894051932  1.0000
  C   C15       1.0  0.78435516087756  0.10772558098414459  0.43342251258534487  1.0000
  C   C16       1.0  0.7843952659677528  0.892320929748493  0.066627123542922  1.0000
  C   C17       1.0  0.09781593410203021  0.8959861952752418  0.6786621859116052  1.0000
  C   C18       1.0  0.09784763832443841  0.10388543199410091  0.8211747036055497  1.0000
  C   C19       1.0  0.9021594830732625  0.1039998974156404  0.3213208358593675  1.0000
  C   C20       1.0  0.9021385470717361  0.8961030119576848  0.17883408333242556  1.0000
  C   C21       1.0  0.15113496382500102  0.8187878661336685  0.7342268933975901  1.0000
  C   C22       1.0  0.1513475864326352  0.1809827310742165  0.7655217432091632  1.0000
  C   C23       1.0  0.8489113579447292  0.1812112880935217  0.26576990846582754  1.0000
  C   C24       1.0  0.848649339364151  0.8190049413378874  0.23448506881090475  1.0000
  C   C25       1.0  0.3243456183064524  0.7364292162965429  0.6760059442984242  1.0000
  C   C26       1.0  0.32451029133183346  0.2633486996698409  0.8237800762388544  1.0000
  C   C27       1.0  0.6756835014315359  0.26357375074901773  0.323979179653989  1.0000
  C   C28       1.0  0.6754737397588713  0.7366451082018699  0.17622616238840993  1.0000
  S   S1        1.0  0.8692714986525659  0.9999547288034946  0.7498997728532826  1.0000
  S   S2        1.0  0.13072110619015834  4.5184212837100035e-05  0.2500912361506025  1.0000
  O   O1        1.0  0.7884290122107488  0.6022605668996733  0.5624154802729393  1.0000
  O   O2        1.0  0.7889985692175047  0.39736147408623873  0.9376166163341323  1.0000
  O   O3        1.0  0.211604397355849  0.39776004668107834  0.43757285233014187  1.0000
  O   O4        1.0  0.21101123138637232  0.6026146512941039  0.06236917177795221  1.0000
  O   O5        1.0  0.6157549923593563  0.6088490275339353  0.3854760070807544  1.0000
  O   O6        1.0  0.615497070082796  0.3911825409717054  0.11444569906210231  1.0000
  O   O7        1.0  0.3842311556458925  0.3911646850575393  0.6145117751128453  1.0000
  O   O8        1.0  0.38451272647742485  0.6088219860880315  0.8855519983773021  1.0000
  O   O9        1.0  0.7137059352680951  0.030588521415097596  0.6571934200264806  1.0000
  O   O10       1.0  0.713972659354603  0.9693113939170672  0.842600745362084  1.0000
  O   O11       1.0  0.2862587811218873  0.9694137725138603  0.3428371453249354  1.0000
  O   O12       1.0  0.28602857339733123  0.030672457926499395  0.1574134308741506  1.0000
