data_image0
_chemical_formula_structural       Cu6H8C16N44O4
_chemical_formula_sum              "Cu6 H8 C16 N44 O4"
_cell_length_a       8.633109305714175
_cell_length_b       8.636188825997275
_cell_length_c       12.720412183490929
_cell_angle_alpha    90.57082004292205
_cell_angle_beta     90.02015187348091
_cell_angle_gamma    90.02906789484129

_space_group_name_H-M_alt    "P 1"
_space_group_IT_number       1

loop_
  _space_group_symop_operation_xyz
  'x, y, z'

loop_
  _atom_site_type_symbol
  _atom_site_label
  _atom_site_symmetry_multiplicity
  _atom_site_fract_x
  _atom_site_fract_y
  _atom_site_fract_z
  _atom_site_occupancy
  Cu  Cu1       1.0  0.9999293803908882  0.00026009464562549994  0.5000167823245576  1.0000
  Cu  Cu2       1.0  0.49994844177280134  0.9999829426910624  0.9999754622457004  1.0000
  Cu  Cu3       1.0  0.5392751345960036  0.3587245490823037  0.8781223482991294  1.0000
  Cu  Cu4       1.0  0.039461561571933104  0.6410162707928749  0.6216268549631323  1.0000
  Cu  Cu5       1.0  0.4607886554981917  0.6413499000712619  0.12187971770838149  1.0000
  Cu  Cu6       1.0  0.9605570165022286  0.35896059760236904  0.3783276630835672  1.0000
  H   H1        1.0  0.22610674548341342  0.1129307176674814  0.39628790003987296  1.0000
  H   H2        1.0  0.7258852983333881  0.8870730685907232  0.1037817556013607  1.0000
  H   H3        1.0  0.7741585172602327  0.8867713584608053  0.6037819444883964  1.0000
  H   H4        1.0  0.2741530103153949  0.11300141908633071  0.8962273828022944  1.0000
  H   H5        1.0  0.21988034159561207  0.2237471407908984  0.5052822725086514  1.0000
  H   H6        1.0  0.7194867653885737  0.7765347420004858  0.9946546028611323  1.0000
  H   H7        1.0  0.7804336422717171  0.7763237782432526  0.49470094253140934  1.0000
  H   H8        1.0  0.28050173377300774  0.22349252155838434  0.005396014363221  1.0000
  C   C1        1.0  0.8352710268423919  0.5069877538806294  0.7707338460843829  1.0000
  C   C2        1.0  0.3352074448457216  0.49300038445302635  0.7293019829274812  1.0000
  C   C3        1.0  0.16472549452366542  0.4928567406844593  0.2291635597538004  1.0000
  C   C4        1.0  0.6646339725603098  0.5070574039212515  0.2708202727983178  1.0000
  C   C5        1.0  0.830272693321554  0.3980530106021192  0.6847565958246803  1.0000
  C   C6        1.0  0.33030086447264034  0.6018261875147033  0.8152964938999856  1.0000
  C   C7        1.0  0.1696821270650872  0.6017937492286123  0.3151345245202393  1.0000
  C   C8        1.0  0.669657539851812  0.39825453486336926  0.18478577031367394  1.0000
  C   C9        1.0  0.784948229093075  0.2452296957731122  0.6641881979991952  1.0000
  C   C10       1.0  0.2851908671174357  0.7546883625123967  0.8355790296747116  1.0000
  C   C11       1.0  0.21504250802905034  0.7546023198513794  0.3357500389012884  1.0000
  C   C12       1.0  0.7149030596167165  0.24544066876634227  0.16444683340427696  1.0000
  C   C13       1.0  0.7108707838529966  0.1324498121224948  0.7306026473902634  1.0000
  C   C14       1.0  0.21120807281160128  0.8674176717836202  0.7691379587998456  1.0000
  C   C15       1.0  0.28900876240226847  0.867418067036695  0.2693349273964927  1.0000
  C   C16       1.0  0.7889831503638902  0.13271245223633338  0.23087376953208152  1.0000
  N   N1        1.0  0.8300420242253992  0.2105078921707317  0.563957564639999  1.0000
  N   N2        1.0  0.33003805392678487  0.7895073769236872  0.9358444205511559  1.0000
  N   N3        1.0  0.17001125157418068  0.7892801367471164  0.4359805112684398  1.0000
  N   N4        1.0  0.6700442905019272  0.21064238970702578  0.0641650115155912  1.0000
  N   N5        1.0  0.8988713165293803  0.33572536935358227  0.526533645413835  1.0000
  N   N6        1.0  0.39845617482576046  0.6646866029419272  0.973712431917697  1.0000
  N   N7        1.0  0.10112867816648928  0.6640926179774027  0.4733833129337484  1.0000
  N   N8        1.0  0.6015427771563678  0.33545066494426834  0.026337821815729995  1.0000
  N   N9        1.0  0.9012570562378028  0.4496964055828698  0.5964877917532617  1.0000
  N   N10       1.0  0.4011275212256534  0.5501092531016382  0.9036260700972889  1.0000
  N   N11       1.0  0.098641001507545  0.5501594383876949  0.4033774137761696  1.0000
  N   N12       1.0  0.5988100348148536  0.44997725878364037  0.09645699993631499  1.0000
  N   N13       1.0  0.9364906501827904  0.6255113794410504  0.761884998996635  1.0000
  N   N14       1.0  0.43621507286272987  0.3744262868543302  0.7381474064943987  1.0000
  N   N15       1.0  0.06355914304588589  0.37426610683549905  0.23803416861783688  1.0000
  N   N16       1.0  0.5636101032711166  0.6256147855807511  0.2618961687067412  1.0000
  N   N17       1.0  0.9175737665024213  0.7159486956662704  0.8469127523289542  1.0000
  N   N18       1.0  0.4172950799785724  0.2841788379474438  0.6529892673613276  1.0000
  N   N19       1.0  0.0824748773656907  0.28383361228537035  0.1530363071432106  1.0000
  N   N20       1.0  0.5824455420145043  0.7159244528481706  0.34700893959598744  1.0000
  N   N21       1.0  0.8086342539729684  0.6536300032190425  0.9049937172576463  1.0000
  N   N22       1.0  0.30855524875596535  0.3467581278095082  0.5948863047849855  1.0000
  N   N23       1.0  0.19138891757571488  0.34621931010924095  0.094932011474647  1.0000
  N   N24       1.0  0.6911842499274811  0.6534162137945146  0.4051774242833445  1.0000
  N   N25       1.0  0.7536955197711633  0.5217686859865579  0.8589508089579425  1.0000
  N   N26       1.0  0.2537536695981472  0.4785316477819703  0.6409817345564407  1.0000
  N   N27       1.0  0.24627667771812156  0.4780896379156943  0.1409372131912434  1.0000
  N   N28       1.0  0.7460449213290798  0.5216316245360701  0.3591597875987205  1.0000
  N   N29       1.0  0.6453250169049979  0.1623100031711573  0.8248249177579153  1.0000
  N   N30       1.0  0.1453261189923651  0.8375684762245258  0.674983279172075  1.0000
  N   N31       1.0  0.35464605965278645  0.8376079219658904  0.17514902242241703  1.0000
  N   N32       1.0  0.8549508166629992  0.1625466111211722  0.3250276157056716  1.0000
  N   N33       1.0  0.5945740915449207  0.024037004348628  0.8582844191420875  1.0000
  N   N34       1.0  0.0944891152931362  0.9758858153720453  0.6416351730572245  1.0000
  N   N35       1.0  0.4052973855694049  0.9759446034522552  0.1416928976116552  1.0000
  N   N36       1.0  0.9056674353878548  0.024499357246945398  0.3584254830079345  1.0000
  N   N37       1.0  0.6259217383214805  0.9147268891830508  0.789038348295989  1.0000
  N   N38       1.0  0.1260874847286502  0.0851181027749064  0.7108735680157778  1.0000
  N   N39       1.0  0.37376786676032486  0.08522210911140604  0.21091680962722137  1.0000
  N   N40       1.0  0.8740053236571368  0.9150590851679467  0.2892593951790801  1.0000
  N   N41       1.0  0.6990392827765816  0.9798151287959912  0.7081513239281989  1.0000
  N   N42       1.0  0.1994953471294494  0.0200352527677268  0.7916626454892108  1.0000
  N   N43       1.0  0.3006479807969171  0.020069970712640398  0.2917705708268059  1.0000
  N   N44       1.0  0.8006206028663881  0.9800653803214133  0.20844880129634188  1.0000
  O   O1        1.0  0.157388898240022  0.16054711950348383  0.45303543568511634  1.0000
  O   O2        1.0  0.656947066933853  0.839502652507278  0.047026512975946795  1.0000
  O   O3        1.0  0.8430733241661841  0.8393217738376677  0.547038216112341  1.0000
  O   O4        1.0  0.34309588168239463  0.1605835060540883  0.9529968213103146  1.0000
