data_image0
_chemical_formula_structural       Zn4H24C16N4Cl4O16
_chemical_formula_sum              "Zn4 H24 C16 N4 Cl4 O16"
_cell_length_a       8.502974615001714
_cell_length_b       8.556556358002307
_cell_length_c       9.848997858002942
_cell_angle_alpha    90.00006964395669
_cell_angle_beta     90.00005542470873
_cell_angle_gamma    89.99995322860687

_space_group_name_H-M_alt    "P 1"
_space_group_IT_number       1

loop_
  _space_group_symop_operation_xyz
  'x, y, z'

loop_
  _atom_site_type_symbol
  _atom_site_label
  _atom_site_symmetry_multiplicity
  _atom_site_fract_x
  _atom_site_fract_y
  _atom_site_fract_z
  _atom_site_occupancy
  Zn  Zn1       1.0  0.8225326118237744  0.15369766856198197  0.9416373464034677  1.0000
  Zn  Zn2       1.0  0.3225329004644735  0.34630394589692753  0.0583636174590296  1.0000
  Zn  Zn3       1.0  0.1774673481364317  0.653696706926695  0.5583628128417573  1.0000
  Zn  Zn4       1.0  0.677467520618592  0.8463031133044792  0.4416375438371105  1.0000
  H   H1        1.0  0.7918831760807948  0.6173678942817915  0.99391294858723  1.0000
  H   H2        1.0  0.29188455271408026  0.8826330019506938  0.006087504281488501  1.0000
  H   H3        1.0  0.2081156377026403  0.11736757802383829  0.5060871721406812  1.0000
  H   H4        1.0  0.7081158384866483  0.38263179173907247  0.49391268019911644  1.0000
  H   H5        1.0  0.8929994762888427  0.5135934773466174  0.7764430948959814  1.0000
  H   H6        1.0  0.3929998335543843  0.9864073369687809  0.22355845831193485  1.0000
  H   H7        1.0  0.10700059891154722  0.013593546061727592  0.7235569158100645  1.0000
  H   H8        1.0  0.6070004722889665  0.4864059056184899  0.2764428515227735  1.0000
  H   H9        1.0  0.9901971837888014  0.6847663069082297  0.82676002086518  1.0000
  H   H10       1.0  0.49019762584632076  0.8152344286635436  0.173241614056316  1.0000
  H   H11       1.0  0.0098027506159326  0.18476638424796474  0.6732401713198399  1.0000
  H   H12       1.0  0.509802820792217  0.31523431487034503  0.3267595143000221  1.0000
  H   H13       1.0  0.5146131228148932  0.606964250122935  0.9387985897416229  1.0000
  H   H14       1.0  0.014613376176043903  0.8930345333482063  0.06120163002604781  1.0000
  H   H15       1.0  0.4853868755844958  0.10696495473635537  0.5612015199572866  1.0000
  H   H16       1.0  0.9853858304092069  0.3930353590934386  0.4387985654829407  1.0000
  H   H17       1.0  0.6144934589981189  0.47982771209071706  0.8370460800219419  1.0000
  H   H18       1.0  0.11449413230505462  0.02017173351892859  0.162953693610433  1.0000
  H   H19       1.0  0.3855062327070796  0.9798278963614776  0.6629523943264601  1.0000
  H   H20       1.0  0.8855053809733491  0.5201729240235619  0.3370471219179692  1.0000
  H   H21       1.0  0.552119887862993  0.6538030587798858  0.7771100988782536  1.0000
  H   H22       1.0  0.05212035971317161  0.846196862999953  0.22289015242185434  1.0000
  H   H23       1.0  0.44788007201021424  0.15380285040579614  0.7228900604791022  1.0000
  H   H24       1.0  0.9478788853977848  0.34619749380976106  0.2771099934293133  1.0000
  C   C1        1.0  0.7250887724628114  0.8451394117511766  0.9258929228960326  1.0000
  C   C2        1.0  0.22509158821411293  0.6548603698996797  0.07410848915073129  1.0000
  C   C3        1.0  0.2749098539710175  0.3451379674756509  0.5741074393167054  1.0000
  C   C4        1.0  0.7749089903372663  0.1548613481751245  0.4258924691761621  1.0000
  C   C5        1.0  0.7517289179218594  0.6705492853525853  0.8984281183397869  1.0000
  C   C6        1.0  0.251730444576495  0.8294504747165944  0.1015733161026517  1.0000
  C   C7        1.0  0.2482710281765108  0.17055023832114802  0.6015720587726892  1.0000
  C   C8        1.0  0.7482699903693586  0.32944909891084245  0.3984278273250013  1.0000
  C   C9        1.0  0.8767110145675119  0.6402694547878763  0.7904862083106821  1.0000
  C   C10       1.0  0.37671263645727754  0.8597313727229261  0.2095153312041447  1.0000
  C   C11       1.0  0.12328895643745601  0.1402694907374026  0.7095139366983574  1.0000
  C   C12       1.0  0.6232877735815023  0.35972994774741796  0.2904858443275558  1.0000
  C   C13       1.0  0.8425722681353633  0.7096080148636967  0.6527382060389755  1.0000
  C   C14       1.0  0.34257292431546205  0.7903916716087307  0.3472612741111263  1.0000
  C   C15       1.0  0.15742764583557542  0.2096082151143647  0.8472609971517926  1.0000
  C   C16       1.0  0.6574287188152397  0.2903923644069407  0.15273881257589042  1.0000
  N   N1        1.0  0.5980991613776184  0.5973364573065323  0.8612282911539425  1.0000
  N   N2        1.0  0.098100669216123  0.9026622585288561  0.13877199880049323  1.0000
  N   N3        1.0  0.4018996688817964  0.09733616895873347  0.6387707930047526  1.0000
  N   N4        1.0  0.9018997055095923  0.4026630438123531  0.3612292222480988  1.0000
  Cl  Cl1       1.0  0.7191827492914555  0.2615739227968844  0.7555991432213816  1.0000
  Cl  Cl2       1.0  0.21918333372975954  0.23842543800068222  0.2444017337543656  1.0000
  Cl  Cl3       1.0  0.2808159458771726  0.761574305382666  0.7444011303954383  1.0000
  Cl  Cl4       1.0  0.780817176086252  0.7384254311207026  0.2555982978367198  1.0000
  O   O1        1.0  0.5907381230851457  0.9002504267072238  0.9325615944167183  1.0000
  O   O2        1.0  0.09074215280310942  0.5997482950898954  0.0674376740186702  1.0000
  O   O3        1.0  0.4092616340759675  0.40025003298919143  0.5674378108945461  1.0000
  O   O4        1.0  0.9092608231974  0.09974917381802577  0.4325622105471112  1.0000
  O   O5        1.0  0.8554054958379071  0.9241372707597075  0.9400568971368984  1.0000
  O   O6        1.0  0.3554083608024925  0.5758624053158383  0.05994360913467741  1.0000
  O   O7        1.0  0.14459424167534962  0.42413708101398123  0.5599425334995161  1.0000
  O   O8        1.0  0.6445946348459585  0.07586234020997294  0.4400572654382914  1.0000
  O   O9        1.0  0.9454174030165916  0.7063308891109865  0.559693248110932  1.0000
  O   O10       1.0  0.445418160063376  0.7936675453488531  0.44030733383163323  1.0000
  O   O11       1.0  0.05458251365037369  0.20633130234413943  0.9403069669372357  1.0000
  O   O12       1.0  0.5545823043138043  0.29366819180201986  0.0596927563279763  1.0000
  O   O13       1.0  0.7055272507245576  0.7673462363519901  0.6311309045669519  1.0000
  O   O14       1.0  0.20552797844578663  0.732654729841009  0.3688694757025672  1.0000
  O   O15       1.0  0.294472615755268  0.2673463556888008  0.8688693751700853  1.0000
  O   O16       1.0  0.7944725361170982  0.23265411280758017  0.13113054977003463  1.0000
