data_image0
_chemical_formula_structural       Zn4H52C56N8O20
_chemical_formula_sum              "Zn4 H52 C56 N8 O20"
_cell_length_a       8.821868714
_cell_length_b       11.408692692594222
_cell_length_c       14.505
_cell_angle_alpha    90.0
_cell_angle_beta     90.0
_cell_angle_gamma    94.49583686086237

_space_group_name_H-M_alt    "P 1"
_space_group_IT_number       1

loop_
  _space_group_symop_operation_xyz
  'x, y, z'

loop_
  _atom_site_type_symbol
  _atom_site_label
  _atom_site_symmetry_multiplicity
  _atom_site_fract_x
  _atom_site_fract_y
  _atom_site_fract_z
  _atom_site_occupancy
  Zn  Zn1       1.0  0.3896924231895935  0.9211956271134696  0.9081206480523961  1.0000
  Zn  Zn2       1.0  0.11031090735100689  0.5788041297794422  0.4081220268872769  1.0000
  Zn  Zn3       1.0  0.610310102321641  0.0788062623517547  0.09187935194760402  1.0000
  Zn  Zn4       1.0  0.8896890836793148  0.42119512199584364  0.591879351947604  1.0000
  H   H1        1.0  0.0330632757163585  0.1467979959475443  0.6843447087211276  1.0000
  H   H2        1.0  0.46694012043884203  0.3532016299401022  0.184345398138575  1.0000
  H   H3        1.0  0.9669379379898257  0.853202135057721  0.31565598069631323  1.0000
  H   H4        1.0  0.5330598705914795  0.6467976218351836  0.815654601861425  1.0000
  H   H5        1.0  0.8097600428810878  0.05416232523784  0.7568693553946917  1.0000
  H   H6        1.0  0.6902401875373556  0.44583817987977886  0.2568693553946915  1.0000
  H   H7        1.0  0.19024230437177883  0.9458378057674253  0.2431299551878681  1.0000
  H   H8        1.0  0.3097587590754641  0.5541619511254865  0.7431292657704207  1.0000
  H   H9        1.0  0.6930950087243062  0.6943314322525964  0.6777063081695971  1.0000
  H   H10       1.0  0.8069008892803706  0.8056718415602333  0.17770906583936613  1.0000
  H   H11       1.0  0.30690498230601543  0.3056678195226894  0.32229438124784343  1.0000
  H   H12       1.0  0.19309596849745955  0.19433004790499814  0.822292312995522  1.0000
  H   H13       1.0  0.2267419032101401  0.7765913099664274  0.739525680799723  1.0000
  H   H14       1.0  0.273256804014558  0.7234075676965047  0.2395249913822823  1.0000
  H   H15       1.0  0.7732580878201816  0.22340794180885842  0.2604743192002772  1.0000
  H   H16       1.0  0.7267420534690812  0.276591684078781  0.7604750086177177  1.0000
  H   H17       1.0  0.9823316095123572  0.6168255510415008  0.7781041020337797  1.0000
  H   H18       1.0  0.5176685552914932  0.8831750850813905  0.2781027231988986  1.0000
  H   H19       1.0  0.017670737740509392  0.3831745799637716  0.2218965873836609  1.0000
  H   H20       1.0  0.4823280350987814  0.1168241666938954  0.7218979662185492  1.0000
  H   H21       1.0  0.08771489076872999  0.8838406621763754  0.5603267838676302  1.0000
  H   H22       1.0  0.41228739535437586  0.616159973946516  0.0603281627025183  1.0000
  H   H23       1.0  0.9122828331682199  0.1161585895989106  0.4396732161323698  1.0000
  H   H24       1.0  0.587713907480996  0.3838410362887288  0.9396725267149295  1.0000
  H   H25       1.0  0.17300109819605317  0.9132983834316661  0.0497138917614635  1.0000
  H   H26       1.0  0.3269989208336881  0.5867022526912251  0.5497145811789039  1.0000
  H   H27       1.0  0.8269978484167664  0.0867017475735992  0.9502854188210963  1.0000
  H   H28       1.0  0.6730022928724962  0.4132978783140473  0.4502867976559841  1.0000
  H   H29       1.0  0.1006284049083703  0.7748170238664615  0.0935822130299897  1.0000
  H   H30       1.0  0.39937292592642126  0.725185370716389  0.5935808341951017  1.0000
  H   H31       1.0  0.8993729870561821  0.22518486559876294  0.9064177869700103  1.0000
  H   H32       1.0  0.6006261989447664  0.2748165187488425  0.4064184763874508  1.0000
  H   H33       1.0  0.9731295904091651  0.8757473502089965  0.0524053774560471  1.0000
  H   H34       1.0  0.5268705743946782  0.6242532859138947  0.5524067562909352  1.0000
  H   H35       1.0  0.026870578879524498  0.1242536600262483  0.9475932437090648  1.0000
  H   H36       1.0  0.4731306393114991  0.3757468450913706  0.4475946225439529  1.0000
  H   H37       1.0  0.7747139585329065  0.6319597366899998  0.9248590141330555  1.0000
  H   H38       1.0  0.7252873398176262  0.8680408994328914  0.4248569458807339  1.0000
  H   H39       1.0  0.2252872551732779  0.36804039431526553  0.07514098586694472  1.0000
  H   H40       1.0  0.27471387388855817  0.1319592315723739  0.5751416752843852  1.0000
  H   H41       1.0  0.8702510530815813  0.672702374740652  0.0290244743192005  1.0000
  H   H42       1.0  0.6297492008514496  0.8272991406122188  0.5290244743192005  1.0000
  H   H43       1.0  0.1297502497537835  0.3272986354945928  0.9709755256807997  1.0000
  H   H44       1.0  0.3702499240197453  0.1727027488530126  0.47097621509823995  1.0000
  H   H45       1.0  0.8309957234027506  0.45737455644946584  0.0113464322647374  1.0000
  H   H46       1.0  0.669005640562382  0.0426259486681602  0.511345742847297  1.0000
  H   H47       1.0  0.16900322321007613  0.5426255745557995  0.9886535677352626  1.0000
  H   H48       1.0  0.3309955731438022  0.9573741823371122  0.4886542571527032  1.0000
  H   H49       1.0  0.9317464374014577  0.4624283703754273  0.9058379869010693  1.0000
  H   H50       1.0  0.5682524812119353  0.0375703762822326  0.4058393657359503  1.0000
  H   H51       1.0  0.06825468717553919  0.5375708813998585  0.09416132368149023  1.0000
  H   H52       1.0  0.4317474206891986  0.9624279962630738  0.5941606342640497  1.0000
  C   C1        1.0  0.893686090780399  0.7786645342596472  0.61346432264736  1.0000
  C   C2        1.0  0.6063141631526321  0.7213369810932235  0.1134636332299195  1.0000
  C   C3        1.0  0.10631294496160848  0.2213364759756047  0.3865363667700805  1.0000
  C   C4        1.0  0.3936848725893682  0.2786640291420213  0.8865363667700805  1.0000
  C   C5        1.0  0.7366737234246726  0.8745814912553059  0.7223757325060305  1.0000
  C   C6        1.0  0.7633243525441812  0.6254209033275444  0.222377800758359  1.0000
  C   C7        1.0  0.263326445864017  0.125419518979939  0.2776228886590815  1.0000
  C   C8        1.0  0.23667799470867826  0.37457922767772095  0.777620820406753  1.0000
  C   C9        1.0  0.9632309563728256  0.9804064908973943  0.6593491899345025  1.0000
  C   C10       1.0  0.5367657186617975  0.5195932659955176  0.1593491899345025  1.0000
  C   C11       1.0  0.0367667675641314  0.0195927608778916  0.3406508100654975  1.0000
  C   C12       1.0  0.4632309608576648  0.4804068650097477  0.8406521889003784  1.0000
  C   C13       1.0  0.5959792855585844  0.8698538716519835  0.7802847294036539  1.0000
  C   C14       1.0  0.9040187012810816  0.6301476437008873  0.2802854188210944  1.0000
  C   C15       1.0  0.40402088373010503  0.1301471385832684  0.21971527059634616  1.0000
  C   C16       1.0  0.095982423295915  0.3698516080743985  0.7197138917614581  1.0000
  C   C17       1.0  0.8347453935778616  0.9772500552686196  0.716839710444674  1.0000
  C   C18       1.0  0.6652581718660286  0.5227505808542716  0.2168403998621145  1.0000
  C   C19       1.0  0.16525468658164036  0.022750075736652803  0.283158910720438  1.0000
  C   C20       1.0  0.33474304184015574  0.4772495501509937  0.783160289555326  1.0000
  C   C21       1.0  0.7674196952233885  0.7746104048211251  0.6720006894174446  1.0000
  C   C22       1.0  0.7325817813855053  0.7253919897617251  0.1720013788348851  1.0000
  C   C23       1.0  0.23257925138943136  0.2253897261841402  0.3279993105825554  1.0000
  C   C24       1.0  0.2674217885432242  0.2746090204735196  0.8280006894174434  1.0000
  C   C25       1.0  0.16044911121420566  0.7638143398947363  0.8019096863150637  1.0000
  C   C26       1.0  0.3395523087497735  0.7361889339180934  0.3019089968976232  1.0000
  C   C27       1.0  0.8395510580744838  0.2361866703405084  0.1980903136849363  1.0000
  C   C28       1.0  0.6604475040221729  0.2638085593972335  0.6980903136849363  1.0000
  C   C29       1.0  0.040026095045504896  0.6845491194933331  0.8203419510513612  1.0000
  C   C30       1.0  0.45997252305000547  0.8154488789396197  0.3203412616339208  1.0000
  C   C31       1.0  0.9599739851139972  0.3154510115119322  0.1796580489486388  1.0000
  C   C32       1.0  0.5400285123978108  0.1845494936056937  0.6796573595311983  1.0000
  C   C33       1.0  0.9903220075934555  0.8811809914863886  0.6065673905549787  1.0000
  C   C34       1.0  0.5096784245979435  0.6188222823264411  0.10657014822474763  1.0000
  C   C35       1.0  0.009678072566046598  0.1188191395188767  0.39343329886246187  1.0000
  C   C36       1.0  0.4903194775973816  0.3811787279088037  0.8934305411926928  1.0000
  C   C37       1.0  0.9268162255873803  0.6724122288472003  0.5592954153740095  1.0000
  C   C38       1.0  0.5731816721231054  0.8275884072756908  0.05929748362633801  1.0000
  C   C39       1.0  0.07318140922039618  0.327586143698106  0.44070389520855013  1.0000
  C   C40       1.0  0.42681727448971424  0.1724117237295744  0.9407032057911096  1.0000
  C   C41       1.0  0.08455361061405849  0.8413729749046439  0.040428128231646106  1.0000
  C   C42       1.0  0.4154440521931377  0.6586267819882679  0.5404281282316461  1.0000
  C   C43       1.0  0.9154453359987683  0.1586271561006214  0.9595711823509137  1.0000
  C   C44       1.0  0.5845536717438193  0.3413724697870251  0.4595725611858015  1.0000
  C   C45       1.0  0.09370120430121888  0.79261791404479  0.9457869700103387  1.0000
  C   C46       1.0  0.4062968150227135  0.7073853597680398  0.4457869700103387  1.0000
  C   C47       1.0  0.9062956534766113  0.20738397542043427  0.0542116511547732  1.0000
  C   C48       1.0  0.5937023098484744  0.2926165296971845  0.554213719407102  1.0000
  C   C49       1.0  0.8832208889447768  0.6312484396360531  0.9616828679765634  1.0000
  C   C50       1.0  0.6167790976006983  0.8687504380268791  0.4616835573940038  1.0000
  C   C51       1.0  0.11677796853885516  0.3687508121392399  0.03831713202343681  1.0000
  C   C52       1.0  0.3832221161054861  0.1312496929783862  0.5383157531885558  1.0000
  C   C53       1.0  0.9255294562795483  0.5047799992897737  0.9739000344708728  1.0000
  C   C54       1.0  0.5744694858484323  0.9952197576031381  0.4739007238883133  1.0000
  C   C55       1.0  0.07447053475077328  0.4952192524855121  0.0260999655291272  1.0000
  C   C56       1.0  0.42553050518188223  0.0047794941721548  0.5260992761116867  1.0000
  N   N1        1.0  0.9993166248547638  0.7033980518080156  0.9109362288865912  1.0000
  N   N2        1.0  0.500683483304158  0.7966034635448552  0.41093553946915057  1.0000
  N   N3        1.0  0.0006821759839538984  0.2966020791972568  0.08906446053084953  1.0000
  N   N4        1.0  0.4993154633086617  0.2033966674604102  0.5890651499482971  1.0000
  N   N5        1.0  0.19335094731700045  0.830331604813793  0.8801385729058924  1.0000
  N   N6        1.0  0.3066489825835531  0.6696681520791188  0.3801378834884517  1.0000
  N   N7        1.0  0.8066502663891837  0.1696685261914723  0.11986211651154832  1.0000
  N   N8        1.0  0.6933509193175806  0.3303302204661875  0.6198634953464293  1.0000
  O   O1        1.0  0.04984239818251979  0.6779496192622503  0.5130127542226788  1.0000
  O   O2        1.0  0.4501543093363622  0.8220518960906205  0.0130141330575668  1.0000
  O   O3        1.0  0.9501554148836178  0.322050511743015  0.4869858669424332  1.0000
  O   O4        1.0  0.549844726405638  0.1779491141446243  0.9869872457773212  1.0000
  O   O5        1.0  0.8303853044358502  0.582663949392348  0.5634457083764204  1.0000
  O   O6        1.0  0.6696139942088735  0.9173393244204888  0.0634463977938609  1.0000
  O   O7        1.0  0.16961504311120723  0.4173388193028629  0.4365556704584606  1.0000
  O   O8        1.0  0.3303861750798162  0.0826616858147631  0.9365542916235797  1.0000
  O   O9        1.0  0.5057476935655387  0.777947082595837  0.780971389176145  1.0000
  O   O10       1.0  0.9942559610075391  0.7220544327570338  0.2809720785935853  1.0000
  O   O11       1.0  0.49425569810482267  0.2220521691794559  0.2190293002412957  1.0000
  O   O12       1.0  0.005747698050377898  0.2779474567081905  0.7190286108238555  1.0000
  O   O13       1.0  0.5689124951254312  0.9623075417557914  0.8272113064460527  1.0000
  O   O14       1.0  0.9310888923542819  0.5376939735970794  0.3272113064460528  1.0000
  O   O15       1.0  0.4310899412566157  0.0376934684794605  0.1727880041365069  1.0000
  O   O16       1.0  0.06891232135190249  0.4623061574081859  0.672789382971388  1.0000
  O   O17       1.0  0.06500616334950847  0.0748928097100645  0.6518110996208222  1.0000
  O   O18       1.0  0.4349961883881973  0.4251076954075614  0.1518110996208222  1.0000
  O   O19       1.0  0.9349918279749971  0.9251090797551669  0.348187521544297  1.0000
  O   O20       1.0  0.5650071141529834  0.5748906771377449  0.8481875215442969  1.0000
