data_image0
_chemical_formula_structural       Co2H26C34S6N10O10
_chemical_formula_sum              "Co2 H26 C34 S6 N10 O10"
_cell_length_a       9.498874738763735
_cell_length_b       10.24077489057578
_cell_length_c       11.014154017794464
_cell_angle_alpha    101.27656658129378
_cell_angle_beta     96.87787717609072
_cell_angle_gamma    105.29623503003675

_space_group_name_H-M_alt    "P 1"
_space_group_IT_number       1

loop_
  _space_group_symop_operation_xyz
  'x, y, z'

loop_
  _atom_site_type_symbol
  _atom_site_label
  _atom_site_symmetry_multiplicity
  _atom_site_fract_x
  _atom_site_fract_y
  _atom_site_fract_z
  _atom_site_occupancy
  Co  Co1       1.0  0.9218388909497007  0.10135993313424758  0.1499386767508142  1.0000
  Co  Co2       1.0  0.07815614013970414  0.8986459440555945  0.8500578823479756  1.0000
  H   H1        1.0  0.5432212779882021  0.9282465780599832  0.8292867889316682  1.0000
  H   H2        1.0  0.45677483046279127  0.0717498203700231  0.1707135781841487  1.0000
  H   H3        1.0  0.584288712649645  0.7659653586119288  0.8048481015656535  1.0000
  H   H4        1.0  0.41571513675997096  0.23402875439332854  0.19515623020436124  1.0000
  H   H5        1.0  0.42245947231298686  0.6991925168576002  0.13148588305235617  1.0000
  H   H6        1.0  0.5775446395151179  0.3007931911679407  0.868507847919652  1.0000
  H   H7        1.0  0.8131076982265881  0.47428580826897365  0.36093244583334183  1.0000
  H   H8        1.0  0.18688873293024946  0.5257147845064053  0.6390641849203504  1.0000
  H   H9        1.0  0.6563134959846977  0.3392662059522351  0.3681026732585125  1.0000
  H   H10       1.0  0.34368502630062636  0.6607311868567505  0.6318926641606737  1.0000
  H   H11       1.0  0.8875591224037508  0.2257074570519037  0.9165451866035427  1.0000
  H   H12       1.0  0.11242814236207703  0.7742912548693109  0.08344475807319175  1.0000
  H   H13       1.0  0.042939141882563064  0.4069780593105036  0.8281426266707186  1.0000
  H   H14       1.0  0.9570659983504443  0.5930328310762432  0.17184675965081195  1.0000
  H   H15       1.0  0.2949192445695488  0.5502130238574239  0.9487492524075948  1.0000
  H   H16       1.0  0.7050884259602198  0.4497767986761474  0.05125102988763079  1.0000
  H   H17       1.0  0.20407568657113725  0.32851411335688124  0.2408333045862889  1.0000
  H   H18       1.0  0.7959066529772301  0.6714731634750349  0.7591549640465304  1.0000
  H   H19       1.0  0.6668394864263973  0.6281899723432784  0.381518317787183  1.0000
  H   H20       1.0  0.33316720779915693  0.37180932284327634  0.6184908764280479  1.0000
  H   H21       1.0  0.9249585785872368  0.7880744627597166  0.4660142587271919  1.0000
  H   H22       1.0  0.07504915710921976  0.21193426028819556  0.5339931402376052  1.0000
  H   H23       1.0  0.02303508704508757  0.9839022196763733  0.3620281119655147  1.0000
  H   H24       1.0  0.9769649160806536  0.01610563754736209  0.6379765590786377  1.0000
  H   H25       1.0  0.6298528326562689  0.8742829315063927  0.10865288877545244  1.0000
  H   H26       1.0  0.3701464009744981  0.12570079081460508  0.8913445416213007  1.0000
  C   C1        1.0  0.7770101611134733  0.9458454876085154  0.8760245542470032  1.0000
  C   C2        1.0  0.22298773390673435  0.05415296763930399  0.12397999709735072  1.0000
  C   C3        1.0  0.622495109605822  0.8748463347710499  0.7965411189294118  1.0000
  C   C4        1.0  0.3775020221695017  0.12515004039074273  0.203455711735046  1.0000
  C   C5        1.0  0.6770119731137997  0.03343159281488539  0.6324332667772269  1.0000
  C   C6        1.0  0.32299396879506037  0.9665750738514161  0.36756903939210156  1.0000
  C   C7        1.0  0.7697148497407228  0.26053179062244414  0.5944484108454021  1.0000
  C   C8        1.0  0.23029282566837847  0.7394643331003861  0.40555212368350624  1.0000
  C   C9        1.0  0.7778772825963287  0.3735146482338009  0.38642859146071373  1.0000
  C   C10       1.0  0.22212160570514775  0.6264869363033368  0.6135684609979323  1.0000
  C   C11       1.0  0.8361419837676607  0.27102484954259143  0.3022732286561407  1.0000
  C   C12       1.0  0.16384947418331555  0.7289769140116248  0.6977149619855681  1.0000
  C   C13       1.0  0.9961779059529974  0.29126569333463687  0.9685684248214627  1.0000
  C   C14       1.0  0.0038187985505259278  0.7087359460268131  0.03141843776821669  1.0000
  C   C15       1.0  0.08448949616619218  0.3925166187073046  0.9195191898981534  1.0000
  C   C16       1.0  0.9155195084972689  0.6074899785905359  0.08047159835017233  1.0000
  C   C17       1.0  0.22390098921579948  0.4726649083751795  0.9879232994011601  1.0000
  C   C18       1.0  0.7761087111868008  0.5273311701198224  0.01206743652424082  1.0000
  C   C19       1.0  0.2699868638950349  0.449167009609006  0.10536542088041759  1.0000
  C   C20       1.0  0.7300179450429809  0.5508239332411264  0.8946275255024859  1.0000
  C   C21       1.0  0.1731534220593574  0.3471680038013432  0.1486252900962768  1.0000
  C   C22       1.0  0.8268433269239992  0.6528304821301559  0.8513673520616081  1.0000
  C   C23       1.0  0.4200451968836632  0.5190420872066283  0.18512791091490746  1.0000
  C   C24       1.0  0.5799537792079477  0.4809563412833453  0.8148803725135352  1.0000
  C   C25       1.0  0.6296633192986646  0.7364065449501564  0.23621766142506567  1.0000
  C   C26       1.0  0.3703385293128818  0.26360021478903656  0.7637987905496929  1.0000
  C   C27       1.0  0.713538221874977  0.713440123299044  0.33940070887691587  1.0000
  C   C28       1.0  0.28646642219334245  0.2865686708621453  0.6606145737411637  1.0000
  C   C29       1.0  0.8567913669429006  0.8030848564552072  0.385785196843564  1.0000
  C   C30       1.0  0.143211136637774  0.19692398991307408  0.6142253473071265  1.0000
  C   C31       1.0  0.9114791345333444  0.912290930614091  0.3299716803761612  1.0000
  C   C32       1.0  0.0885208613740147  0.08771692704584667  0.6700320821010594  1.0000
  C   C33       1.0  0.6915813887552104  0.851281171300826  0.1879248244821241  1.0000
  C   C34       1.0  0.30841265861035794  0.1487152745380271  0.8120807984025475  1.0000
  S   S1        1.0  0.8477566833632009  0.4155697971375289  0.5532955835454061  1.0000
  S   S2        1.0  0.1522527040922199  0.584434689390605  0.44669939320949237  1.0000
  S   S3        1.0  0.7239891937019891  0.0912388578454468  0.5004718524650471  1.0000
  S   S4        1.0  0.2760188754272761  0.9087646066734505  0.49953370320442764  1.0000
  S   S5        1.0  0.6174703976615632  0.8575499133415009  0.6300043207564485  1.0000
  S   S6        1.0  0.3825243251587623  0.14245176863055778  0.3699977918383226  1.0000
  N   N1        1.0  0.0397836376186333  0.2682789633078215  0.0815830761192302  1.0000
  N   N2        1.0  0.960211705248426  0.7317216566616052  0.9184089139834414  1.0000
  N   N3        1.0  0.829129750265409  0.9366423916021843  0.23295929911455465  1.0000
  N   N4        1.0  0.1708635615592868  0.06335512321855667  0.7670419091913203  1.0000
  N   N5        1.0  0.48697033183719174  0.6518323206258001  0.17662881944085737  1.0000
  N   N6        1.0  0.5130349802662623  0.3481628056646286  0.8233831047531979  1.0000
  N   N7        1.0  0.7508845223783284  0.2637931084756032  0.7112194566383607  1.0000
  N   N8        1.0  0.24912704048713863  0.7362144744771582  0.2887844732519582  1.0000
  N   N9        1.0  0.6981737854486596  0.13499561360435305  0.733572191363365  1.0000
  N   N10       1.0  0.30183392254378555  0.8650099603756441  0.2664319015003329  1.0000
  O   O1        1.0  0.7642150514894654  0.21982539502030107  0.1903612976145652  1.0000
  O   O2        1.0  0.23577290082882732  0.7801848537871691  0.8096262975728906  1.0000
  O   O3        1.0  0.9517832736969324  0.23965614325021525  0.3413348930569171  1.0000
  O   O4        1.0  0.04820742334820939  0.7603372385925125  0.6586462332381374  1.0000
  O   O5        1.0  0.7785482594896392  0.9940765037975222  0.9912377984649295  1.0000
  O   O6        1.0  0.22143173002032773  0.005912925542311597  0.008763348800272302  1.0000
  O   O7        1.0  0.8899364289544351  0.9498502126830958  0.8241830872547882  1.0000
  O   O8        1.0  0.1100604548391644  0.05015456658599501  0.1758261613415399  1.0000
  O   O9        1.0  0.47983652937646337  0.45650375589877257  0.25156699669898336  1.0000
  O   O10       1.0  0.5201597655829886  0.5434957820026723  0.7484566649904139  1.0000
