data_image0
_chemical_formula_structural       Hg4H32C30S8Br8
_chemical_formula_sum              "Hg4 H32 C30 S8 Br8"
_cell_length_a       7.8379188538805735
_cell_length_b       10.73029337700666
_cell_length_c       13.879609136645586
_cell_angle_alpha    83.45138835266232
_cell_angle_beta     84.01910917190799
_cell_angle_gamma    86.88726561977263

_space_group_name_H-M_alt    "P 1"
_space_group_IT_number       1

loop_
  _space_group_symop_operation_xyz
  'x, y, z'

loop_
  _atom_site_type_symbol
  _atom_site_label
  _atom_site_symmetry_multiplicity
  _atom_site_fract_x
  _atom_site_fract_y
  _atom_site_fract_z
  _atom_site_occupancy
  Hg  Hg1       1.0  0.7982190430547857  0.7577764717525072  0.16940297261902512  1.0000
  Hg  Hg2       1.0  0.2017824995987709  0.24222178317632637  0.8305992300648698  1.0000
  Hg  Hg3       1.0  0.45679981539566217  0.8850664326722182  0.6745090872270723  1.0000
  Hg  Hg4       1.0  0.543174915072477  0.11492987251713059  0.3254919734313191  1.0000
  H   H1        1.0  0.39814459303708793  0.45070222349008304  0.3516327431744841  1.0000
  H   H2        1.0  0.6018489573905085  0.5493007154502652  0.6483637563943461  1.0000
  H   H3        1.0  0.25619063077554216  0.6492131610707759  0.39810264178880334  1.0000
  H   H4        1.0  0.7438028594730139  0.3507907167881612  0.6018937796510856  1.0000
  H   H5        1.0  0.7497066401806477  0.7856449871916665  0.4397284729892661  1.0000
  H   H6        1.0  0.2502885501671628  0.2143523117681738  0.5602734643922817  1.0000
  H   H7        1.0  0.8899156802250657  0.5844090348159413  0.3970445412210211  1.0000
  H   H8        1.0  0.1100756021306779  0.4155891919605351  0.6029575443568902  1.0000
  H   H9        1.0  0.4508580371410815  0.5742182940842325  0.13633457569987686  1.0000
  H   H10       1.0  0.5491458364479268  0.42578374135395336  0.8636585159032749  1.0000
  H   H11       1.0  0.1941465970690642  0.47392302337827635  0.09786101213890672  1.0000
  H   H12       1.0  0.8058604977920466  0.526068675375889  0.9021407150403746  1.0000
  H   H13       1.0  0.9964184423053905  0.4569447291574633  0.25439254952434  1.0000
  H   H14       1.0  0.003579190745376987  0.5430544492295796  0.7456119632762822  1.0000
  H   H15       1.0  0.9515735482931689  0.3090985084432489  0.2174146374265433  1.0000
  H   H16       1.0  0.04842909535378229  0.6909025640363494  0.7825886967090128  1.0000
  H   H17       1.0  0.7536635876271802  0.23172844078035132  0.0982433269240772  1.0000
  H   H18       1.0  0.24634529172582365  0.7682754756750896  0.9017550717750993  1.0000
  H   H19       1.0  0.49619980170617584  0.1287585807344911  0.06459050602787642  1.0000
  H   H20       1.0  0.5038145062748355  0.8712406486665781  0.935411584749531  1.0000
  H   H21       1.0  0.16324848855342108  0.8513843328886993  0.3672338079187654  1.0000
  H   H22       1.0  0.8367500122913327  0.1486214390627865  0.6327614348560574  1.0000
  H   H23       1.0  0.12946948961529609  0.9668895643529611  0.4507923950131315  1.0000
  H   H24       1.0  0.8705316371540801  0.03311527753405841  0.5492020543669724  1.0000
  H   H25       1.0  0.11851098023154802  0.8037893468203734  0.4968209566205958  1.0000
  H   H26       1.0  0.8814888639334908  0.19621549136599734  0.5031735682012766  1.0000
  H   H27       1.0  0.2732941323042367  0.027117518863832415  0.02422665548217401  1.0000
  H   H28       1.0  0.7267138814024177  0.9728798098384107  0.9757781306823079  1.0000
  H   H29       1.0  0.052072123317273594  0.023232350816478196  0.0727073206265061  1.0000
  H   H30       1.0  0.9479371735306329  0.9767649830392174  0.927296669456098  1.0000
  H   H31       1.0  0.21124880360513026  0.044700890010979294  0.1510793106616148  1.0000
  H   H32       1.0  0.7887589693853625  0.9553001943655842  0.848925162987115  1.0000
  C   C1        1.0  0.47470931427874047  0.523984631118161  0.3714838354841135  1.0000
  C   C2        1.0  0.5252842345381267  0.4760183034637535  0.6285148260050804  1.0000
  C   C3        1.0  0.6526687010936101  0.5047188306001118  0.37117769010115614  1.0000
  C   C4        1.0  0.3473212395525777  0.4952803342999204  0.628822951509342  1.0000
  C   C5        1.0  0.39480276225006605  0.6360332539453922  0.39793840152556476  1.0000
  C   C6        1.0  0.6051895646784188  0.363968739470117  0.6020596928942086  1.0000
  C   C7        1.0  0.67257486450967  0.7121079897660963  0.42103290913416913  1.0000
  C   C8        1.0  0.32741758170306656  0.2878921229066265  0.578966782823727  1.0000
  C   C9        1.0  0.7512854447529235  0.5992804341147178  0.39647770869168414  1.0000
  C   C10       1.0  0.24871213080335497  0.4007196904549629  0.6035231227793931  1.0000
  C   C11       1.0  0.461001092979174  0.4768181060644778  0.12022323145271942  1.0000
  C   C12       1.0  0.5390141999324313  0.5231858303470105  0.879774069397506  1.0000
  C   C13       1.0  0.3161602295028059  0.42005963161453513  0.09854404486241462  1.0000
  C   C14       1.0  0.6838386915214015  0.5799395650012684  0.901453186095225  1.0000
  C   C15       1.0  0.8936679516447085  0.39901170769444855  0.23829654662547034  1.0000
  C   C16       1.0  0.10633096562112598  0.6009874787516694  0.7617057288130199  1.0000
  C   C17       1.0  0.6191077936557928  0.40947957586573125  0.11996566811516371  1.0000
  C   C18       1.0  0.38089595527984693  0.590524325787129  0.8800330323510792  1.0000
  C   C19       1.0  0.49323794415220573  0.7306166408186101  0.4224294120305033  1.0000
  C   C20       1.0  0.5067569479849539  0.26938535999818214  0.5775685315057402  1.0000
  C   C21       1.0  0.32708374453129346  0.2946019477814161  0.07813734611735873  1.0000
  C   C22       1.0  0.672928240567934  0.7053935229024689  0.9218630461389739  1.0000
  C   C23       1.0  0.630346655332694  0.28398188976234445  0.09980767540791655  1.0000
  C   C24       1.0  0.36966625075971377  0.7160192166808628  0.9001928932731433  1.0000
  C   C25       1.0  0.4848252266762357  0.22627170332061305  0.0798116791909464  1.0000
  C   C26       1.0  0.515182789714977  0.7737256326456861  0.9201895037729316  1.0000
  C   C27       1.0  0.18135010512533967  0.8717627330446761  0.4410981946548206  1.0000
  C   C28       1.0  0.8186485155405802  0.12824115961684165  0.558897925018002  1.0000
  C   C29       1.0  0.17524505542963448  0.06520974299368729  0.07651316947310251  1.0000
  C   C30       1.0  0.8247628991718015  0.9347885275327529  0.9234900972822049  1.0000
  S   S1        1.0  0.13764609520874416  0.2319622216914611  0.0491756565186705  1.0000
  S   S2        1.0  0.8623618610034285  0.7680360531934197  0.950825448316266  1.0000
  S   S3        1.0  0.40593439177718676  0.8754893300060902  0.4554600297706699  1.0000
  S   S4        1.0  0.594063066105562  0.12451267966481079  0.5445370422419202  1.0000
  S   S5        1.0  0.7486899289782583  0.3579267367401755  0.3455788603480769  1.0000
  S   S6        1.0  0.2512975087859316  0.6420714876512362  0.6544191277144051  1.0000
  S   S7        1.0  0.8053451910953625  0.4885269628027658  0.13432438430136528  1.0000
  S   S8        1.0  0.19466264583255105  0.5114731928248943  0.8656751229954552  1.0000
  Br  Br1       1.0  0.7565160574477117  0.795377427242663  0.6609855060451438  1.0000
  Br  Br2       1.0  0.24346209958015658  0.2046254614786847  0.33901478138537305  1.0000
  Br  Br3       1.0  0.5050264623442402  0.8577615260785122  0.16589644742317944  1.0000
  Br  Br4       1.0  0.4949737391366681  0.1422376684266951  0.8341035906531789  1.0000
  Br  Br5       1.0  0.1058319213937224  0.7153709926745788  0.20037214935565836  1.0000
  Br  Br6       1.0  0.8941706008213256  0.28463195473656105  0.799632469802262  1.0000
  Br  Br7       1.0  0.15598621928260303  0.9673171611688077  0.7108136267856153  1.0000
  Br  Br8       1.0  0.8439867293782014  0.03266693358332161  0.2891871591522773  1.0000
