data_image0
_chemical_formula_structural       Cu8H24C20I8N8
_chemical_formula_sum              "Cu8 H24 C20 I8 N8"
_cell_length_a       4.090540307143357
_cell_length_b       15.12980939924935
_cell_length_c       15.967934731294456
_cell_angle_alpha    113.59919362636514
_cell_angle_beta     90.00087236071604
_cell_angle_gamma    89.9993642292769

_space_group_name_H-M_alt    "P 1"
_space_group_IT_number       1

loop_
  _space_group_symop_operation_xyz
  'x, y, z'

loop_
  _atom_site_type_symbol
  _atom_site_label
  _atom_site_symmetry_multiplicity
  _atom_site_fract_x
  _atom_site_fract_y
  _atom_site_fract_z
  _atom_site_occupancy
  Cu  Cu1       1.0  0.9126580899268859  0.5215715370777047  0.3094307414144311  1.0000
  Cu  Cu2       1.0  0.5873364890411779  0.5215779849498218  0.8094337574708135  1.0000
  Cu  Cu3       1.0  0.08734372738895499  0.47842860967963213  0.6905676913601797  1.0000
  Cu  Cu4       1.0  0.4126628835854333  0.4784228740475384  0.19056431146974254  1.0000
  Cu  Cu5       1.0  0.9316173470019818  0.9324327671341661  0.7041482084666697  1.0000
  Cu  Cu6       1.0  0.5683697641853341  0.9324385121930946  0.2041526914106413  1.0000
  Cu  Cu7       1.0  0.06839424905787439  0.0675659730867224  0.2958522112054852  1.0000
  Cu  Cu8       1.0  0.43161982987960096  0.06755949786094818  0.7958468328331493  1.0000
  H   H1        1.0  0.6499643617215296  0.7209454071956073  0.3660696012122528  1.0000
  H   H2        1.0  0.8500672375881706  0.7209492675914858  0.8660745944996435  1.0000
  H   H3        1.0  0.3500667916080999  0.2790547574843599  0.6339300908330119  1.0000
  H   H4        1.0  0.14992969039014528  0.27905377299124007  0.1339255309999956  1.0000
  H   H5        1.0  0.18151448029266956  0.5828180703327062  0.5004610715792168  1.0000
  H   H6        1.0  0.3184942136207454  0.582822566321134  0.0004592062906922313  1.0000
  H   H7        1.0  0.818497115809535  0.41717996662416096  0.49954034153346777  1.0000
  H   H8        1.0  0.6814929356278939  0.41717826576500966  0.9995369737974543  1.0000
  H   H9        1.0  0.18717985667338868  0.7358652836900101  0.6422503217944068  1.0000
  H   H10       1.0  0.31280901122110544  0.7358719620254914  0.14224986432410688  1.0000
  H   H11       1.0  0.812809737409495  0.264132735337938  0.3577498320599872  1.0000
  H   H12       1.0  0.6871683594594132  0.264126742329168  0.8577480368479443  1.0000
  H   H13       1.0  0.7712195603810201  0.9548344102201509  0.5188630104925946  1.0000
  H   H14       1.0  0.728763340508145  0.9548391768076597  0.01886902765536284  1.0000
  H   H15       1.0  0.2287895910319548  0.0451643389767398  0.48113803878603534  1.0000
  H   H16       1.0  0.27121891951208715  0.045162430337903486  0.9811311958688125  1.0000
  H   H17       1.0  0.4212970726258333  0.9249507494049921  0.5661490614781288  1.0000
  H   H18       1.0  0.07869468423555052  0.9249600917854006  0.06615553773896449  1.0000
  H   H19       1.0  0.5787047447991328  0.07504727858636778  0.4338517220074678  1.0000
  H   H20       1.0  0.9212875757294157  0.07504366104783596  0.9338442239060215  1.0000
  H   H21       1.0  0.4644745281642955  0.8813363911551234  0.44413903820314715  1.0000
  H   H22       1.0  0.03551869613274759  0.8813436940165287  0.9441452933904345  1.0000
  H   H23       1.0  0.5355321786147228  0.11866092459410989  0.5558621091206248  1.0000
  H   H24       1.0  0.964468453186271  0.11865934657458148  0.055854832092727194  1.0000
  C   C1        1.0  0.7638611826252769  0.809765219376146  0.5074089652502847  1.0000
  C   C2        1.0  0.7361365128870573  0.8097706496677544  0.007412124974628316  1.0000
  C   C3        1.0  0.2361479688300605  0.1902328265567164  0.4925930774688753  1.0000
  C   C4        1.0  0.2638506364384198  0.1902316697115367  0.992587734727863  1.0000
  C   C5        1.0  0.76769137520494  0.7242848354206116  0.42857989903804133  1.0000
  C   C6        1.0  0.7323216904721689  0.7242859681119638  0.9285802841987946  1.0000
  C   C7        1.0  0.23232999951420646  0.27571390479189256  0.5714205206505909  1.0000
  C   C8        1.0  0.26766545885976  0.27571563005550087  0.07141930972302649  1.0000
  C   C9        1.0  0.0617515709441392  0.6479091702281534  0.5021630431310058  1.0000
  C   C10       1.0  0.4382497851392059  0.6479142088668368  0.0021637362263788617  1.0000
  C   C11       1.0  0.9382575804738733  0.3520910303662885  0.49783916731956884  1.0000
  C   C12       1.0  0.561744698164219  0.3520859289228894  0.9978340669252647  1.0000
  C   C13       1.0  0.0638105798132571  0.7324881160411039  0.5805146211170396  1.0000
  C   C14       1.0  0.4361919783854233  0.7324916798923623  0.08051225726870107  1.0000
  C   C15       1.0  0.9362059056982729  0.2675070629859703  0.41948761771300985  1.0000
  C   C16       1.0  0.5638000602531718  0.26750845789946  0.9194855458788214  1.0000
  C   C17       1.0  0.5939186369158378  0.8969221364574477  0.5086057958929899  1.0000
  C   C18       1.0  0.906078162354916  0.8969294477712636  0.008610955534187793  1.0000
  C   C19       1.0  0.40610518240925586  0.10307512543371189  0.4913915737960295  1.0000
  C   C20       1.0  0.0939089869820506  0.10307360179375277  0.9913897995595706  1.0000
  I   I1        1.0  0.4430495220201535  0.895589429232963  0.7947672335127721  1.0000
  I   I2        1.0  0.05695899102048679  0.8955944367814653  0.2947688937258803  1.0000
  I   I3        1.0  0.5569571847330365  0.10441077136357527  0.20523497693367432  1.0000
  I   I4        1.0  0.9430281584026189  0.10440503364612398  0.7052324212963301  1.0000
  I   I5        1.0  0.9119783493508605  0.5835143156614248  0.17738239451009  1.0000
  I   I6        1.0  0.5880110928050186  0.5835157049149726  0.6773829227742925  1.0000
  I   I7        1.0  0.08801613397554318  0.4164872824997515  0.8226171994240944  1.0000
  I   I8        1.0  0.4120005031816092  0.4164851720196977  0.3226164054080698  1.0000
  N   N1        1.0  0.9197742502919439  0.8142020615221028  0.5841995130070574  1.0000
  N   N2        1.0  0.5802252481558199  0.8142077234326806  0.08419962862702585  1.0000
  N   N3        1.0  0.0802300117411505  0.18580028476420543  0.415802235556079  1.0000
  N   N4        1.0  0.419761901182568  0.18579315352295814  0.9157996995141249  1.0000
  N   N5        1.0  0.9166218283206077  0.643476970783915  0.42480441467038327  1.0000
  N   N6        1.0  0.5834039600217408  0.6434848588800078  0.9248073193662664  1.0000
  N   N7        1.0  0.0833971017272574  0.35652249064251135  0.5751962707948053  1.0000
  N   N8        1.0  0.4165929679450784  0.35651745151699993  0.07519191074210597  1.0000
