data_image0
_chemical_formula_structural       Zn2H44C56N4O20
_chemical_formula_sum              "Zn2 H44 C56 N4 O20"
_cell_length_a       10.082713082682682
_cell_length_b       10.91553294145765
_cell_length_c       23.685272718302084
_cell_angle_alpha    94.02434285008498
_cell_angle_beta     89.91727708455328
_cell_angle_gamma    89.71440308602483

_space_group_name_H-M_alt    "P 1"
_space_group_IT_number       1

loop_
  _space_group_symop_operation_xyz
  'x, y, z'

loop_
  _atom_site_type_symbol
  _atom_site_label
  _atom_site_symmetry_multiplicity
  _atom_site_fract_x
  _atom_site_fract_y
  _atom_site_fract_z
  _atom_site_occupancy
  Zn  Zn1       1.0  0.35473301775827787  0.5003947425717213  0.5001952621128821  1.0000
  Zn  Zn2       1.0  0.6479254694924065  0.5004726906099461  0.4989297721494097  1.0000
  H   H1        1.0  0.466157931008979  0.19895675740211516  0.9297930416282938  1.0000
  H   H2        1.0  0.441079896299378  0.8033193962896304  0.06931177721891402  1.0000
  H   H3        1.0  0.4923600497801742  0.188107017212559  0.0355792957104057  1.0000
  H   H4        1.0  0.4764593257618869  0.8155888093809052  0.9640600628763281  1.0000
  H   H5        1.0  0.7083931231175454  0.8066859705301253  0.1989245112599534  1.0000
  H   H6        1.0  0.7507272874543885  0.21202441878210712  0.7970994341325125  1.0000
  H   H7        1.0  0.6967319222633463  0.7262252069368527  0.3108130453437852  1.0000
  H   H8        1.0  0.588795409390407  0.702836966128572  0.36813717490465336  1.0000
  H   H9        1.0  0.7276676308142241  0.6067110066802002  0.35694137488830074  1.0000
  H   H10       1.0  0.6482318655802998  0.3525024154522  0.620456140441398  1.0000
  H   H11       1.0  0.7593878006640296  0.3397547873286512  0.6777438248715199  1.0000
  H   H12       1.0  0.6176261003083923  0.24647786356943863  0.6726483302810138  1.0000
  H   H13       1.0  0.40191979445468445  0.2836545171799329  0.3700080243079071  1.0000
  H   H14       1.0  0.2723966104716808  0.25821331658998037  0.319426166439861  1.0000
  H   H15       1.0  0.4285909630601807  0.19020370807613318  0.3067489483891848  1.0000
  H   H16       1.0  0.42679948564035175  0.8096726058748517  0.6919790705953374  1.0000
  H   H17       1.0  0.40079265064120045  0.7150800599024975  0.629131736784842  1.0000
  H   H18       1.0  0.27215600258114137  0.7393948698318268  0.6804438436018856  1.0000
  H   H19       1.0  0.24408117524593106  0.15491056607954323  0.19031027770239456  1.0000
  H   H20       1.0  0.24494697395675757  0.8448922577613299  0.8096146551319306  1.0000
  H   H21       1.0  0.7500017584909742  0.18961323028511853  0.5570361767205938  1.0000
  H   H22       1.0  0.8289956336730027  0.048027726016996994  0.5358466560300599  1.0000
  H   H23       1.0  0.8097929433120183  0.1634267666667668  0.4875176746869769  1.0000
  H   H24       1.0  0.2591737275259831  0.7939389500156576  0.4582663779487389  1.0000
  H   H25       1.0  0.20175264331649595  0.8530440080082184  0.525102715523083  1.0000
  H   H26       1.0  0.18327926931482344  0.9414719027491358  0.4656442009699191  1.0000
  H   H27       1.0  0.7391159063190711  0.8074292664191914  0.4364526922982819  1.0000
  H   H28       1.0  0.823347053132366  0.945785140704494  0.4570673730078809  1.0000
  H   H29       1.0  0.8075613130792189  0.8281709033039985  0.5044727176939077  1.0000
  H   H30       1.0  0.2703892676466353  0.21582616986588474  0.548884361698299  1.0000
  H   H31       1.0  0.20070126490454496  0.15591036091218058  0.48456149090327466  1.0000
  H   H32       1.0  0.19113818873126576  0.07050762390915108  0.5453244841735128  1.0000
  H   H33       1.0  0.7554845785110301  0.6801646390173842  0.5629349064890974  1.0000
  H   H34       1.0  0.8483411217851254  0.6256226703620411  0.619045232082172  1.0000
  H   H35       1.0  0.9085164734125397  0.7507761510407602  0.5830833639516015  1.0000
  H   H36       1.0  0.25036463792675784  0.35665350935841633  0.42324826371689983  1.0000
  H   H37       1.0  0.11272197580871789  0.25718005216490525  0.4140355113390939  1.0000
  H   H38       1.0  0.12304619947997252  0.3887346108661446  0.3748116020316771  1.0000
  H   H39       1.0  0.7593423217897948  0.3212096449989657  0.4348299470553485  1.0000
  H   H40       1.0  0.8506058677849206  0.38044864549048885  0.3795148231764357  1.0000
  H   H41       1.0  0.9139731539259368  0.2533691750619268  0.4133972051919912  1.0000
  H   H42       1.0  0.24662350700333485  0.6473929297483421  0.5758616218463928  1.0000
  H   H43       1.0  0.10248856615071127  0.7371772886797172  0.591059553326879  1.0000
  H   H44       1.0  0.12793887872040696  0.5997022788074273  0.6248863705114189  1.0000
  C   C1        1.0  0.5090940640023902  0.26692857939070075  0.5072326464595278  1.0000
  C   C2        1.0  0.5041303344371639  0.7342147411188263  0.49262831681192404  1.0000
  C   C3        1.0  0.49664509661256057  0.4815412488273408  0.38934820703271095  1.0000
  C   C4        1.0  0.49787310722648215  0.5182128866572526  0.6097872257229824  1.0000
  C   C5        1.0  0.4994643812748761  0.6277004867880362  0.8855715308121859  1.0000
  C   C6        1.0  0.4966012040661666  0.37627440541319146  0.11427110058127  1.0000
  C   C7        1.0  0.4551124968623553  0.4019436169800272  0.8725060138056335  1.0000
  C   C8        1.0  0.4385210282950922  0.5998814241061011  0.1266028396292285  1.0000
  C   C9        1.0  0.4667761688884298  0.39533562637745917  0.9344518103413221  1.0000
  C   C10       1.0  0.45440465081549775  0.6072718489352765  0.06482851355848139  1.0000
  C   C11       1.0  0.47072305175812096  0.5047916753349  0.9698758643457452  1.0000
  C   C12       1.0  0.4681970693406967  0.49821145487950946  0.029544390952310096  1.0000
  C   C13       1.0  0.4776282808967095  0.6206938331517974  0.9470368606394785  1.0000
  C   C14       1.0  0.4799604263496633  0.38271168045799436  0.0525175457212654  1.0000
  C   C15       1.0  0.47045871591312494  0.28218068422008696  0.9579659720750157  1.0000
  C   C16       1.0  0.4531103109266608  0.7204371134152509  0.0412973535161854  1.0000
  C   C17       1.0  0.48217522401968427  0.2760373682153058  0.016833840743352393  1.0000
  C   C18       1.0  0.46995718278470366  0.7272565381970678  0.9826547149455678  1.0000
  C   C19       1.0  0.5637160237156705  0.5653292189707242  0.2391450268315936  1.0000
  C   C20       1.0  0.5762512894386872  0.4403773824800579  0.7602125221553563  1.0000
  C   C21       1.0  0.5684000140381186  0.5668942738446175  0.2986288384919789  1.0000
  C   C22       1.0  0.5760601710421084  0.4347090345623953  0.7004663735052787  1.0000
  C   C23       1.0  0.49765071947444284  0.4761743956109612  0.3253919728208032  1.0000
  C   C24       1.0  0.5022317460047744  0.523662221045626  0.6736915500356986  1.0000
  C   C25       1.0  0.4277104794850571  0.3825279139576381  0.294932804513472  1.0000
  C   C26       1.0  0.4315281372049852  0.6177014032267748  0.7043853745528139  1.0000
  C   C27       1.0  0.41078484233501916  0.3915924940189156  0.23613401945877394  1.0000
  C   C28       1.0  0.4167254861079286  0.6100035906134379  0.7633124073427952  1.0000
  C   C29       1.0  0.48021972440187694  0.48141278117374475  0.20866072292604088  1.0000
  C   C30       1.0  0.49062413038846847  0.5226596565268051  0.7908809781701791  1.0000
  C   C31       1.0  0.628699724204992  0.06268254803265448  0.5065026459365143  1.0000
  C   C32       1.0  0.38311555948088477  0.9382968101155877  0.4964921179618713  1.0000
  C   C33       1.0  0.6265695651690066  0.9354644947335226  0.49104435830087567  1.0000
  C   C34       1.0  0.3850947142748637  0.06660808023398347  0.5078453719316015  1.0000
  C   C35       1.0  0.5041681964092602  0.8719229590391532  0.4906630683365947  1.0000
  C   C36       1.0  0.5077809861836612  0.12949233920680567  0.5100864526326986  1.0000
  C   C37       1.0  0.9292591390532079  0.5761033487918185  0.5366855122860912  1.0000
  C   C38       1.0  0.07081309146401787  0.42809725375151675  0.4614014435294251  1.0000
  C   C39       1.0  0.9308270170081979  0.4254325913352587  0.4621781889877211  1.0000
  C   C40       1.0  0.06919161179751399  0.5712752383508712  0.5386756496044569  1.0000
  C   C41       1.0  0.6511135405064719  0.6449591406034184  0.20611161350387158  1.0000
  C   C42       1.0  0.6715536263381876  0.3668229041708954  0.7926321137944042  1.0000
  C   C43       1.0  0.6505917250234247  0.6562781825105686  0.3348519983276717  1.0000
  C   C44       1.0  0.6542118896831255  0.33868353230386106  0.6656126597532364  1.0000
  C   C45       1.0  0.37911721582054264  0.27391011779353386  0.32475361080205534  1.0000
  C   C46       1.0  0.37914340243310096  0.7251124933933892  0.6745100713879069  1.0000
  C   C47       1.0  0.3121939864182649  0.3142234734964758  0.20292930338503365  1.0000
  C   C48       1.0  0.31622580043750753  0.6861453257959906  0.7965972900913911  1.0000
  C   C49       1.0  0.761402269929249  0.11920459949967464  0.5222534406415491  1.0000
  C   C50       1.0  0.24999605353083607  0.8780280067858184  0.48590818951331727  1.0000
  C   C51       1.0  0.7560474723820931  0.8758687425390049  0.47154766957520877  1.0000
  C   C52       1.0  0.25518906619141996  0.13111041871731288  0.5223005151123843  1.0000
  C   C53       1.0  0.8561202696264089  0.6630275677607996  0.5772082547026257  1.0000
  C   C54       1.0  0.14392110661489707  0.3536231612809359  0.4163365495853881  1.0000
  C   C55       1.0  0.8595692870466678  0.340217672677987  0.42069244086035706  1.0000
  C   C56       1.0  0.1409855697140898  0.6431039118452301  0.5846761824992015  1.0000
  N   N1        1.0  0.4807067240710408  0.5177766933287625  0.851215209675935  1.0000
  N   N2        1.0  0.4704891287876689  0.4855792262865036  0.1482710181643228  1.0000
  N   N3        1.0  0.13867675115233874  0.49938591669730653  0.5002312547704832  1.0000
  N   N4        1.0  0.8616381882402917  0.5012364642402146  0.4991305808025075  1.0000
  O   O1        1.0  0.4049467006141895  0.3172538140814039  0.4884933340210793  1.0000
  O   O2        1.0  0.6104841052971891  0.6750815148023717  0.4794200748399362  1.0000
  O   O3        1.0  0.4001477943497988  0.6841387898022402  0.5113676166303236  1.0000
  O   O4        1.0  0.6158218664372724  0.3253695837469336  0.5194913376138501  1.0000
  O   O5        1.0  0.388825861767195  0.5169884980800034  0.4134729246622229  1.0000
  O   O6        1.0  0.6018483204425634  0.5488697818533621  0.5841514108563501  1.0000
  O   O7        1.0  0.38954249656289613  0.4825567976799545  0.5866471367938573  1.0000
  O   O8        1.0  0.6025778653585546  0.45202328805156355  0.41395022810567633  1.0000
  O   O9        1.0  0.5310778979966598  0.7236495834097665  0.8649916718300403  1.0000
  O   O10       1.0  0.5305301009168061  0.2812143743020598  0.1352854816128257  1.0000
  O   O11       1.0  0.4276172044162294  0.311947650410815  0.8406747673569442  1.0000
  O   O12       1.0  0.4030317420003584  0.6881507440680819  0.158145431498852  1.0000
  O   O13       1.0  0.7185172452798908  0.6064018008356837  0.1656788916201464  1.0000
  O   O14       1.0  0.6492692092902741  0.7658750734818085  0.2245725594601069  1.0000
  O   O15       1.0  0.7330078779895998  0.4084379805886794  0.8340989155992631  1.0000
  O   O16       1.0  0.6867155990067388  0.24825205932010158  0.7718560488128503  1.0000
  O   O17       1.0  0.23508221069699428  0.35433547789278913  0.16885317261372276  1.0000
  O   O18       1.0  0.3122907853681554  0.1941007217368095  0.214806571324722  1.0000
  O   O19       1.0  0.23993197394413807  0.6448702006859646  0.8305920842805036  1.0000
  O   O20       1.0  0.31371253501679763  0.8063426597386465  0.7848999721590246  1.0000
