data_image0
_chemical_formula_structural       Y2H46C40N6O16
_chemical_formula_sum              "Y2 H46 C40 N6 O16"
_cell_length_a       10.137743076247158
_cell_length_b       10.343458741612617
_cell_length_c       12.71689213033762
_cell_angle_alpha    108.69117293554045
_cell_angle_beta     95.52904692966517
_cell_angle_gamma    118.89538602820352

_space_group_name_H-M_alt    "P 1"
_space_group_IT_number       1

loop_
  _space_group_symop_operation_xyz
  'x, y, z'

loop_
  _atom_site_type_symbol
  _atom_site_label
  _atom_site_symmetry_multiplicity
  _atom_site_fract_x
  _atom_site_fract_y
  _atom_site_fract_z
  _atom_site_occupancy
  Y   Y1        1.0  0.47298727071755314  0.022892577872319506  0.3037774989301952  1.0000
  Y   Y2        1.0  0.5270109682395515  0.9771058473546786  0.6962220517709954  1.0000
  H   H1        1.0  0.31603535273262656  0.26255941330787647  0.3913561671130027  1.0000
  H   H2        1.0  0.6839628853031459  0.737439020788955  0.6086418131348454  1.0000
  H   H3        1.0  0.5772977469829712  0.3587163529070168  0.6977577769214138  1.0000
  H   H4        1.0  0.4227014834077566  0.6412820784086791  0.30224106294612346  1.0000
  H   H5        1.0  0.07830830266860292  0.14638008292135404  0.2151241464068435  1.0000
  H   H6        1.0  0.9216915709843931  0.8536195659131564  0.7848750630904818  1.0000
  H   H7        1.0  0.13887012717593444  0.8701169874223779  0.9124604148443964  1.0000
  H   H8        1.0  0.8611307379106848  0.12988266750082286  0.08753808381926832  1.0000
  H   H9        1.0  0.29022008199977734  0.44502258367179354  0.09770860740565725  1.0000
  H   H10       1.0  0.7097797921138917  0.5549770607277934  0.9022913873183429  1.0000
  H   H11       1.0  0.6940588506651436  0.7846447797782828  0.03174335907286268  1.0000
  H   H12       1.0  0.3059416662501206  0.2153560865750421  0.968256220054265  1.0000
  H   H13       1.0  0.06468174803426763  0.9377175431179481  0.31409154919967375  1.0000
  H   H14       1.0  0.9353177769867076  0.062283321581603004  0.6859079555344396  1.0000
  H   H15       1.0  0.15686197643590563  0.0175018631538748  0.6732639180771685  1.0000
  H   H16       1.0  0.8431375485850695  0.9824990015456764  0.3267355866569447  1.0000
  H   H17       1.0  0.6288454492894857  0.20814347229153193  0.10038902778585883  1.0000
  H   H18       1.0  0.37115512439156373  0.7918537182033918  0.8996143025979254  1.0000
  H   H19       1.0  0.029871063993034987  0.6228105047897758  0.34558631794777045  1.0000
  H   H20       1.0  0.970130444816526  0.3771903632173235  0.6544133355723645  1.0000
  H   H21       1.0  0.8927463245920891  0.48166696755081523  0.3920581809870144  1.0000
  H   H22       1.0  0.1072574635576301  0.5183363282778612  0.6079438566390608  1.0000
  H   H23       1.0  0.1638788474646162  0.5208645773846144  0.43065343499642256  1.0000
  H   H24       1.0  0.8361230099769587  0.47913507475744405  0.5693459232869246  1.0000
  H   H25       1.0  0.1328009548026472  0.4369422184455516  0.2796144445925109  1.0000
  H   H26       1.0  0.8671989188503489  0.5630574303889588  0.7203847649048145  1.0000
  H   H27       1.0  0.006053698476797731  0.31350404566454415  0.3427232782458349  1.0000
  H   H28       1.0  0.9939461756368643  0.6864955987350427  0.6572767164781653  1.0000
  H   H29       1.0  0.8084010566548941  0.349844966125282  0.036923305250596256  1.0000
  H   H30       1.0  0.19159683505219496  0.6501546616620075  0.9630788963673995  1.0000
  H   H31       1.0  0.0062471979357781055  0.43655218866967266  0.11484251708768066  1.0000
  H   H32       1.0  0.993749406786101  0.5634450085148969  0.8851581600440569  1.0000
  H   H33       1.0  0.9717336813146816  0.6364895686578863  0.0622689136271149  1.0000
  H   H34       1.0  0.028266541891674962  0.36350885544174366  0.9377315710867721  1.0000
  H   H35       1.0  0.047631201990086  0.7077025160119702  0.21394948591513704  1.0000
  H   H36       1.0  0.9523686725842495  0.29229712395270724  0.7860512940355306  1.0000
  H   H37       1.0  0.8437000493024982  0.6265351359155247  0.14966448464198842  1.0000
  H   H38       1.0  0.1562998243504978  0.37346451291898575  0.8503347248553371  1.0000
  H   H39       1.0  0.483973598462569  0.5739780627364792  0.7370194374690088  1.0000
  H   H40       1.0  0.5160279103469847  0.4260228052706196  0.2629802160511262  1.0000
  H   H41       1.0  0.35212176609056917  0.3778052351429579  0.731306396244783  1.0000
  H   H42       1.0  0.6478777593910793  0.6221956251216769  0.268693893715998  1.0000
  H   H43       1.0  0.1840523293086278  0.3085477794220921  0.5525150227669329  1.0000
  H   H44       1.0  0.8159471957123471  0.691453085277459  0.44748448196718027  1.0000
  H   H45       1.0  0.3206546359461129  0.5039697443787148  0.5583343430053845  1.0000
  H   H46       1.0  0.6793458805084853  0.4960311264095338  0.44166445089506823  1.0000
  C   C1        1.0  0.12030236241369613  0.007869479776964299  0.07135674062091373  1.0000
  C   C2        1.0  0.879699789658133  0.9921326057489496  0.9286432825290094  1.0000
  C   C3        1.0  0.043443588533555996  0.0828646028210684  0.12073416730226684  1.0000
  C   C4        1.0  0.9565599049859229  0.9171362596237459  0.8792672054572251  1.0000
  C   C5        1.0  0.07618086247843084  0.9248843216943429  0.9500049917836224  1.0000
  C   C6        1.0  0.923821290514738  0.07511775496173811  0.04999660181965035  1.0000
  C   C7        1.0  0.2484961448660172  0.0171265827330771  0.1484338444164024  1.0000
  C   C8        1.0  0.7515030869067161  0.9828718352778625  0.851567351131145  1.0000
  C   C9        1.0  0.4912873905114596  0.628433189635807  0.07227296920365235  1.0000
  C   C10       1.0  0.5087095074586684  0.3715664542373744  0.9277260171146441  1.0000
  C   C11       1.0  0.3818878989412866  0.4680598099836004  0.054669015134436415  1.0000
  C   C12       1.0  0.618110634185399  0.5319410530621765  0.9453304152066696  1.0000
  C   C13       1.0  0.6094229479337089  0.6595127893580042  0.01692255646507592  1.0000
  C   C14       1.0  0.39057791807424996  0.3404868566953638  0.9830775126519317  1.0000
  C   C15       1.0  0.48517123812248986  0.7666662748863046  0.15164155355551398  1.0000
  C   C16       1.0  0.5148269999132752  0.23333215921052647  0.848356426692334  1.0000
  C   C17       1.0  0.12217594849726501  0.9725812004458093  0.4922515717692095  1.0000
  C   C18       1.0  0.8778235765237169  0.027419664253741895  0.5077479329649038  1.0000
  C   C19       1.0  0.03425747052374116  0.9632594537683448  0.3947282585933325  1.0000
  C   C20       1.0  0.965741705865213  0.03674262679625429  0.6052715413775689  1.0000
  C   C21       1.0  0.08719340605349399  0.009881496438296701  0.5979011445789554  1.0000
  C   C22       1.0  0.9128067626904229  0.99012058134516  0.40209951501162805  1.0000
  C   C23       1.0  0.25680972895552395  0.9488797437144925  0.4856141946761313  1.0000
  C   C24       1.0  0.7431904933295003  0.05111868925497729  0.5143847195844132  1.0000
  C   C25       1.0  0.7034225784798595  0.2759026208984068  0.19214403594925505  1.0000
  C   C26       1.0  0.2965776465691691  0.7240957854615574  0.8078595896713099  1.0000
  C   C27       1.0  0.9615931163983121  0.49448117826224797  0.33053863836220654  1.0000
  C   C28       1.0  0.038407106347378324  0.5055172502722983  0.6694610611250057  1.0000
  C   C29       1.0  0.07170681256244649  0.4367859527069982  0.3463395971714932  1.0000
  C   C30       1.0  0.9282950453398015  0.5632136950001438  0.6536605463385217  1.0000
  C   C31       1.0  0.9019513802323331  0.44393641896552083  0.11917117260355074  1.0000
  C   C32       1.0  0.09804685964611073  0.5560619973916445  0.8808299485509893  1.0000
  C   C33       1.0  0.9433714548966989  0.6137759158150401  0.13809921000025585  1.0000
  C   C34       1.0  0.05662842013830268  0.3862237197147138  0.8619023551770866  1.0000
  C   C35       1.0  0.48447684311644684  0.3140391664529859  0.529672907559089  1.0000
  C   C36       1.0  0.515522387274281  0.6859592648627029  0.4703259323084411  1.0000
  C   C37       1.0  0.4189364376818148  0.4425535772343849  0.6822554001756985  1.0000
  C   C38       1.0  0.5810647234170574  0.5574484977679219  0.3177461190345667  1.0000
  C   C39       1.0  0.3089384922265666  0.3956922101374474  0.5645005784534549  1.0000
  C   C40       1.0  0.6910620251493711  0.6043086517809614  0.4354997859003405  1.0000
  N   N1        1.0  0.8487293102315832  0.40089968644489454  0.21297838185179782  1.0000
  N   N2        1.0  0.15127120806569397  0.5991011666036742  0.78702355295534  1.0000
  N   N3        1.0  0.3663490710049402  0.3217195584653397  0.4796121413927282  1.0000
  N   N4        1.0  0.6336514459103243  0.6782813078879858  0.5203874377343995  1.0000
  N   N5        1.0  0.5272344983858872  0.39357114322253045  0.647685688680298  1.0000
  N   N6        1.0  0.4727653752671088  0.6064285056119729  0.3523135208170346  1.0000
  O   O1        1.0  0.3058155083570994  0.1177319543687432  0.25611132515222584  1.0000
  O   O2        1.0  0.6941843657565698  0.8822676900308508  0.7438886695717744  1.0000
  O   O3        1.0  0.29869513028603467  0.9254874299757174  0.10871162917926112  1.0000
  O   O4        1.0  0.7013027600390489  0.07451221111632829  0.8912882167587244  1.0000
  O   O5        1.0  0.3851724150257425  0.7378937212810969  0.21009950216070916  1.0000
  O   O6        1.0  0.6148274586272535  0.26210592755340667  0.7898997073366163  1.0000
  O   O7        1.0  0.5792635968783485  0.9100735550364547  0.16174235577662452  1.0000
  O   O8        1.0  0.4207372677476044  0.0899261043216626  0.8382553576603727  1.0000
  O   O9        1.0  0.28260215238942277  0.9110649864593158  0.38753391797616404  1.0000
  O   O10       1.0  0.7173977212635734  0.08893466237519482  0.6124652915211686  1.0000
  O   O11       1.0  0.33729519214297454  0.9699060536656178  0.5791802719456032  1.0000
  O   O12       1.0  0.6627011174879912  0.030088714570013098  0.4208189550928766  1.0000
  O   O13       1.0  0.6536028771723039  0.23710725685482004  0.27093059120276314  1.0000
  O   O14       1.0  0.34640126145210803  0.7628948053691431  0.7290742920932091  1.0000
  O   O15       1.0  0.5495108811326688  0.24712473490495762  0.4765726264392003  1.0000
  O   O16       1.0  0.4504873573637695  0.7528736947569642  0.5234261390353226  1.0000
