data_image0
_chemical_formula_structural       Ag4H16C12N12
_chemical_formula_sum              "Ag4 H16 C12 N12"
_cell_length_a       3.7040304440471483
_cell_length_b       11.027397877148733
_cell_length_c       11.06341184200589
_cell_angle_alpha    90.00007755377324
_cell_angle_beta     90.00008587960868
_cell_angle_gamma    89.99941883869845

_space_group_name_H-M_alt    "P 1"
_space_group_IT_number       1

loop_
  _space_group_symop_operation_xyz
  'x, y, z'

loop_
  _atom_site_type_symbol
  _atom_site_label
  _atom_site_symmetry_multiplicity
  _atom_site_fract_x
  _atom_site_fract_y
  _atom_site_fract_z
  _atom_site_occupancy
  Ag  Ag1       1.0  0.4882619763465286  0.5958243187953585  0.11863843282716148  1.0000
  Ag  Ag2       1.0  0.9882464149872305  0.4041704289007483  0.8813642497241644  1.0000
  Ag  Ag3       1.0  0.4882449392113061  0.9041693770970762  0.6186363035875715  1.0000
  Ag  Ag4       1.0  0.9882229556373118  0.09582899799539037  0.3813654750764215  1.0000
  H   H1        1.0  0.8451310014179184  0.6128353390409913  0.6532114150115332  1.0000
  H   H2        1.0  0.3450784471035533  0.387162609608083  0.3467821612233308  1.0000
  H   H3        1.0  0.8450959138645613  0.8871644594188977  0.15321214032703517  1.0000
  H   H4        1.0  0.345110834945352  0.11283076874035197  0.8467850514265007  1.0000
  H   H5        1.0  0.2549203730064633  0.835472301427103  0.0275481990403605  1.0000
  H   H6        1.0  0.7549503848985138  0.1645322976968941  0.9724570851151029  1.0000
  H   H7        1.0  0.25492957842827474  0.6645329392849885  0.5275466414974161  1.0000
  H   H8        1.0  0.7549276807391931  0.3354671257010224  0.4724595465320149  1.0000
  H   H9        1.0  0.1004897314894677  0.8942848256436162  0.8853884551569706  1.0000
  H   H10       1.0  0.6004769779409784  0.10571485087684346  0.11460500570470337  1.0000
  H   H11       1.0  0.10046866891705261  0.605716871892234  0.3853942136162019  1.0000
  H   H12       1.0  0.6004737426570443  0.3942846183412669  0.6146109976848919  1.0000
  H   H13       1.0  0.5256125796778547  0.9390172785357008  0.9435288788653365  1.0000
  H   H14       1.0  0.025614539699588993  0.060986276603678384  0.056463642806789886  1.0000
  H   H15       1.0  0.5255982875479573  0.5609830689068998  0.44353457531749996  1.0000
  H   H16       1.0  0.025593734988874  0.4390177658006066  0.5564669851474449  1.0000
  C   C1        1.0  0.5069571272653803  0.7584052985971326  0.8735792607315459  1.0000
  C   C2        1.0  0.006948484649534199  0.2415955986772501  0.12641234825719033  1.0000
  C   C3        1.0  0.5069507987728485  0.7415959258922907  0.3735797842670792  1.0000
  C   C4        1.0  0.006957512937098898  0.2584040645506888  0.6264199596443518  1.0000
  C   C5        1.0  0.7421671746335504  0.6462904234346067  0.7385133093438299  1.0000
  C   C6        1.0  0.2421665361664154  0.3537151253870475  0.26150643087486  1.0000
  C   C7        1.0  0.7421601100138701  0.8537071127238459  0.2385121805286445  1.0000
  C   C8        1.0  0.24216280176322158  0.14629390194215824  0.761488578198083  1.0000
  C   C9        1.0  0.33659530908460766  0.8625516821097675  0.9361621568587564  1.0000
  C   C10       1.0  0.8365867416021261  0.13744629511739245  0.06383593476217439  1.0000
  C   C11       1.0  0.3365921723801222  0.6374465694983653  0.43616615154741817  1.0000
  C   C12       1.0  0.8365898782404031  0.3625568487270596  0.5638391711196746  1.0000
  N   N1        1.0  0.5972361847455616  0.6544640707929829  0.9279439944236783  1.0000
  N   N2        1.0  0.097229498205607  0.3455365234738251  0.072055792067637  1.0000
  N   N3        1.0  0.597210472252911  0.8455360156871947  0.427944662036225  1.0000
  N   N4        1.0  0.09722551334809278  0.15446276496555097  0.5720560283271253  1.0000
  N   N5        1.0  0.7481213829753415  0.5815598880261772  0.8403326698872321  1.0000
  N   N6        1.0  0.24810747843170589  0.41844201348752813  0.15966176448570477  1.0000
  N   N7        1.0  0.7481015354975254  0.9184404831411043  0.3403334385604708  1.0000
  N   N8        1.0  0.24811922667645084  0.08155869789243299  0.6596655152101645  1.0000
  N   N9        1.0  0.594898901401521  0.757374003879761  0.7541441536110085  1.0000
  N   N10       1.0  0.09487999516154129  0.24261662309522328  0.24585201624695685  1.0000
  N   N11       1.0  0.5948979408798677  0.7426240472009976  0.2541464863357773  1.0000
  N   N12       1.0  0.09489445435552571  0.25737564807440794  0.745850587411958  1.0000
