data_image0
_chemical_formula_structural       Zn4H27C50N4O16F5
_chemical_formula_sum              "Zn4 H27 C50 N4 O16 F5"
_cell_length_a       9.64899481057685
_cell_length_b       11.07649075997534
_cell_length_c       28.98834994862538
_cell_angle_alpha    90.14732743972284
_cell_angle_beta     89.77766302153402
_cell_angle_gamma    89.95566137354544

_space_group_name_H-M_alt    "P 1"
_space_group_IT_number       1

loop_
  _space_group_symop_operation_xyz
  'x, y, z'

loop_
  _atom_site_type_symbol
  _atom_site_label
  _atom_site_symmetry_multiplicity
  _atom_site_fract_x
  _atom_site_fract_y
  _atom_site_fract_z
  _atom_site_occupancy
  Zn  Zn1       1.0  0.6400577190629947  0.49728109347803  0.5001071478934592  1.0000
  Zn  Zn2       1.0  0.35837610646749607  0.5019404149732056  0.498930052622555  1.0000
  Zn  Zn3       1.0  0.36090326947130086  0.5000586133535876  0.11828020242716523  1.0000
  Zn  Zn4       1.0  0.6423295131781329  0.5041605017116525  0.11741667528030322  1.0000
  H   H1        1.0  0.12791345970897083  0.6369026231076946  0.5496082414043785  1.0000
  H   H2        1.0  0.13977545906909944  0.3641777834263424  0.4505957239704373  1.0000
  H   H3        1.0  0.8614501468302151  0.6319215025449554  0.5482541649478067  1.0000
  H   H4        1.0  0.725520925788004  0.892993622874329  0.49972541314013347  1.0000
  H   H5        1.0  0.2798271487166062  0.880828912279803  0.4991657960415382  1.0000
  H   H6        1.0  0.7142886449000158  0.11966042180334568  0.4996228902068155  1.0000
  H   H7        1.0  0.27560056953809214  0.5015729916212381  0.9701826580963913  1.0000
  H   H8        1.0  0.2782030116762614  0.4999937994100991  0.8839041064929491  1.0000
  H   H9        1.0  0.7197055809413869  0.5025240355057862  0.9710018220209023  1.0000
  H   H10       1.0  0.2789090855106765  0.5014693661022208  0.6461622792702714  1.0000
  H   H11       1.0  0.7229618874560656  0.5002998481663569  0.6474555646482045  1.0000
  H   H12       1.0  0.7197127768230801  0.4991995366580683  0.7337391846303094  1.0000
  H   H13       1.0  0.283182723690814  0.5017808415045124  0.26415900101761036  1.0000
  H   H14       1.0  0.728859230282616  0.5041939488876609  0.2666751172790782  1.0000
  H   H15       1.0  0.2804927869849294  0.501555431247283  0.350818866303861  1.0000
  H   H16       1.0  0.8738295539234784  0.6374727366645062  0.06693528558203353  1.0000
  H   H17       1.0  0.8598910530515055  0.36712608853375184  0.1663308237594876  1.0000
  H   H18       1.0  0.1402940791917899  0.632487885904901  0.06897202549080822  1.0000
  H   H19       1.0  0.27495694226553985  0.8958968409967485  0.11744502308032882  1.0000
  H   H20       1.0  0.7206752030586615  0.8829631944001483  0.11777480877914574  1.0000
  H   H21       1.0  0.2863662847950009  0.12246795571530106  0.11748143964678093  1.0000
  H   H22       1.0  0.826992029955818  0.420584116317109  0.8881818389245313  1.0000
  H   H23       1.0  0.7534295365184179  0.500444717786806  0.8410297852456808  1.0000
  H   H24       1.0  0.8280940105853817  0.5802686810299349  0.8881409104012337  1.0000
  H   H25       1.0  0.17089770894319403  0.4203517331949629  0.7289068303512141  1.0000
  H   H26       1.0  0.2443086868493438  0.5004539071276143  0.7761513106329405  1.0000
  H   H27       1.0  0.16997415591399803  0.5800265959690094  0.7290729314052485  1.0000
  C   C1        1.0  0.507102384665089  0.7371664428228047  0.5000756143295959  1.0000
  C   C2        1.0  0.5017640754073939  0.5024647779968063  0.5901862522142525  1.0000
  C   C3        1.0  0.49435867006801715  0.2632512204104316  0.49950077755608663  1.0000
  C   C4        1.0  0.4922400971811315  0.5011430893350168  0.40923400177003805  1.0000
  C   C5        1.0  0.49382790008832705  0.7396287133287774  0.1173328325616936  1.0000
  C   C6        1.0  0.4979814361622204  0.5039624551094664  0.027188065068976603  1.0000
  C   C7        1.0  0.5066454239484274  0.2656963870319161  0.11776463542367573  1.0000
  C   C8        1.0  0.5093845493562624  0.5035199157835779  0.20822534400022624  1.0000
  C   C9        1.0  0.9332561764607377  0.4239019898697195  0.4721253722386082  1.0000
  C   C10       1.0  0.06951116848369311  0.5760361622583972  0.5274191854766457  1.0000
  C   C11       1.0  0.07803575946692122  0.42449946958532814  0.4722036952914408  1.0000
  C   C12       1.0  0.9256724626076719  0.5733511081963698  0.5267421609410122  1.0000
  C   C13       1.0  0.49308863123591357  0.12783160131120044  0.4993755761691575  1.0000
  C   C14       1.0  0.5036940066080291  0.8726269404607265  0.4997945709570858  1.0000
  C   C15       1.0  0.37209316862755765  0.0574217003533732  0.4991742450906003  1.0000
  C   C16       1.0  0.6264624130041199  0.9401611526106282  0.4997522827947166  1.0000
  C   C17       1.0  0.37590320445203673  0.9322158090696747  0.4994203379078571  1.0000
  C   C18       1.0  0.6201814341732899  0.0654187286164429  0.4995826579890449  1.0000
  C   C19       1.0  0.4980906891546367  0.5030499142141237  0.9755935218126484  1.0000
  C   C20       1.0  0.37298397660908483  0.5020186425450677  0.9510692962075993  1.0000
  C   C21       1.0  0.3748339546392074  0.5009490213065038  0.9032654099658262  1.0000
  C   C22       1.0  0.5017024871268135  0.5009012127685325  0.8785883747928906  1.0000
  C   C23       1.0  0.6287961522623887  0.5015405160937121  0.903159820123314  1.0000
  C   C24       1.0  0.6236456948991389  0.5025545284852058  0.9512772475274078  1.0000
  C   C25       1.0  0.5000057819992493  0.5001963022801734  0.8297816010921225  1.0000
  C   C26       1.0  0.4975159299069959  0.49997022658395474  0.787623264460308  1.0000
  C   C27       1.0  0.4961324699851063  0.5002800524551887  0.7388057284266694  1.0000
  C   C28       1.0  0.36928996390621194  0.5008405327260663  0.7141116453568446  1.0000
  C   C29       1.0  0.3748039068138311  0.5015400307283003  0.66597888304117  1.0000
  C   C30       1.0  0.5005610630855202  0.5018851958476562  0.641808069690015  1.0000
  C   C31       1.0  0.6254451834981083  0.5008996420109  0.6664831146528842  1.0000
  C   C32       1.0  0.623245342736496  0.5001140041969806  0.714284940365417  1.0000
  C   C33       1.0  0.5009258114721505  0.5018439285308959  0.35755889850953093  1.0000
  C   C34       1.0  0.5057779472606043  0.502957711482182  0.2599414648053725  1.0000
  C   C35       1.0  0.6260646958715982  0.5025626527678071  0.33256875516055834  1.0000
  C   C36       1.0  0.3791212415021691  0.5021204867732864  0.28380022306026836  1.0000
  C   C37       1.0  0.6297250394369628  0.5032551582096049  0.28469044961257595  1.0000
  C   C38       1.0  0.3778650212392662  0.5017509987744547  0.3316918281577941  1.0000
  C   C39       1.0  0.06683572067158389  0.4269682851271171  0.14544779856062462  1.0000
  C   C40       1.0  0.9317725886582339  0.5771597510724293  0.08939005832484533  1.0000
  C   C41       1.0  0.9221220914874451  0.426996284744206  0.14483736432923425  1.0000
  C   C42       1.0  0.0756176631652679  0.574616723432783  0.09046889295036922  1.0000
  C   C43       1.0  0.5075538075197629  0.13032624837617132  0.1176461601349814  1.0000
  C   C44       1.0  0.4968309395346465  0.8750878869997794  0.1173658685740691  1.0000
  C   C45       1.0  0.628539802000688  0.0597054212613699  0.11770397887814003  1.0000
  C   C46       1.0  0.3740831493994037  0.9428270900884219  0.11737722958776693  1.0000
  C   C47       1.0  0.6246182385975061  0.9345099635823004  0.11755459637127792  1.0000
  C   C48       1.0  0.38046308171321647  0.06808191759764531  0.1174730291231327  1.0000
  C   C49       1.0  0.7663149589181871  0.500711841793745  0.8785795249229624  1.0000
  C   C50       1.0  0.23163452788357117  0.5004196888354643  0.7385898382986371  1.0000
  N   N1        1.0  0.8579941887840902  0.49622746321565364  0.49870768753103084  1.0000
  N   N2        1.0  0.14341367777372938  0.501507694025328  0.5000897278316573  1.0000
  N   N3        1.0  0.1426874029876615  0.49858686799798596  0.11897109937147833  1.0000
  N   N4        1.0  0.857334665191665  0.50330230617859  0.11662003002194153  1.0000
  O   O1        1.0  0.6250661360408857  0.6857950183118862  0.5008321586776958  1.0000
  O   O2        1.0  0.3898335552071329  0.6838554467609301  0.49946897839569004  1.0000
  O   O3        1.0  0.38498579949884265  0.5007380259836723  0.5697004564202716  1.0000
  O   O4        1.0  0.6201367339855751  0.5043674500455353  0.5703439813594715  1.0000
  O   O5        1.0  0.3790203555879189  0.31847396927958027  0.49626029055161086  1.0000
  O   O6        1.0  0.6127341434674778  0.313215346050825  0.5028538755977154  1.0000
  O   O7        1.0  0.605841031019942  0.4993875516528022  0.43136846778816124  1.0000
  O   O8        1.0  0.37155472121931876  0.5023421066711364  0.42724604379250053  1.0000
  O   O9        1.0  0.3759741390239171  0.6879881421014886  0.11726203926004791  1.0000
  O   O10       1.0  0.6112327179005276  0.6865146961930862  0.11744117489078582  1.0000
  O   O11       1.0  0.6156509799330719  0.503126789977344  0.0471848108507444  1.0000
  O   O12       1.0  0.3804951934653431  0.5052685066646703  0.047628857426964516  1.0000
  O   O13       1.0  0.6224772056015268  0.3203467610316083  0.11960108152093342  1.0000
  O   O14       1.0  0.3881206242607647  0.316276684661311  0.11603306480483871  1.0000
  O   O15       1.0  0.3928059952174436  0.503666469848902  0.1876731351474348  1.0000
  O   O16       1.0  0.6278325620095798  0.5037705109678685  0.18864603516561124  1.0000
  F   F1        1.0  0.8662363463934214  0.3478383264126991  0.4445023997755159  1.0000
  F   F2        1.0  0.24420015437163298  0.10952086646536693  0.4989604106377073  1.0000
  F   F3        1.0  0.7506588804071087  0.5027652118286455  0.35431093501347294  1.0000
  F   F4        1.0  0.1334828176401572  0.3524686829543669  0.17377767495824512  1.0000
  F   F5        1.0  0.7565385375436692  0.11139755292525422  0.11783625670668132  1.0000
