data_image0
_chemical_formula_structural       Zn8H36C82O60
_chemical_formula_sum              "Zn8 H36 C82 O60"
_cell_length_a       15.197245685051172
_cell_length_b       20.09035981692736
_cell_length_c       22.665029623931147
_cell_angle_alpha    90.14173991283542
_cell_angle_beta     89.275464725969
_cell_angle_gamma    89.65817387898544

_space_group_name_H-M_alt    "P 1"
_space_group_IT_number       1

loop_
  _space_group_symop_operation_xyz
  'x, y, z'

loop_
  _atom_site_type_symbol
  _atom_site_label
  _atom_site_symmetry_multiplicity
  _atom_site_fract_x
  _atom_site_fract_y
  _atom_site_fract_z
  _atom_site_occupancy
  Zn  Zn1       1.0  0.43077172432708005  0.4169662333619399  0.0001823260029069996  1.0000
  Zn  Zn2       1.0  0.42945722796598307  0.9177291155162945  0.4970003827462861  1.0000
  Zn  Zn3       1.0  0.41948259985914393  0.5758731369004338  0.9950599208017508  1.0000
  Zn  Zn4       1.0  0.41518222037209535  0.07682614034375493  0.4982001950986615  1.0000
  Zn  Zn5       1.0  0.5762674061318974  0.505454831812692  0.9287399457606611  1.0000
  Zn  Zn6       1.0  0.5719307191248859  0.5033371558375991  0.0691349685729534  1.0000
  Zn  Zn7       1.0  0.5747472799376752  0.0063162040704512  0.4284254117212427  1.0000
  Zn  Zn8       1.0  0.5710865884533973  0.0033565670607841997  0.5677100968648645  1.0000
  H   H1        1.0  0.8516678732248693  0.44634447395849713  0.0611912503393199  1.0000
  H   H2        1.0  0.7531271447552683  0.12403845856076148  0.4343311725222422  1.0000
  H   H3        1.0  0.5015182190205252  0.8237351949687054  0.9364401311391575  1.0000
  H   H4        1.0  0.3065373140444976  0.6302954407498903  0.1211837335351618  1.0000
  H   H5        1.0  0.49737238055917027  0.3227677059026989  0.4368225939082748  1.0000
  H   H6        1.0  0.31361699620011757  0.12612452675050181  0.6206179916592802  1.0000
  H   H7        1.0  0.5294306038625293  0.6252670666518227  0.6248395775881121  1.0000
  H   H8        1.0  0.7410324538558085  0.7516071923068565  0.2706786539736754  1.0000
  H   H9        1.0  0.5287095924452246  0.12370298553151571  0.12595428757988  1.0000
  H   H10       1.0  0.7395708490710787  0.25541960718915396  0.7765477968961106  1.0000
  H   H11       1.0  0.47907364941371355  0.3717662513902269  0.3755890784253495  1.0000
  H   H12       1.0  0.8490226181109718  0.9438088184675808  0.558939880446168  1.0000
  H   H13       1.0  0.2518411532694742  0.22442493115274686  0.7243230445711363  1.0000
  H   H14       1.0  0.4818184407612732  0.872412434816418  0.875377763909583  1.0000
  H   H15       1.0  0.2511561590144352  0.735154602614692  0.221372485360412  1.0000
  H   H16       1.0  0.5359638514059596  0.17365295343164178  0.0633573969265484  1.0000
  H   H17       1.0  0.7478679249787203  0.31447995429005005  0.8309459282639295  1.0000
  H   H18       1.0  0.5294932660897088  0.6749615714897459  0.5623673879799753  1.0000
  H   H19       1.0  0.7529084377063454  0.811098981416869  0.3245083090815939  1.0000
  H   H20       1.0  0.5358665958167563  0.4234025492429653  0.19142843375320953  1.0000
  H   H21       1.0  0.3730093386873818  0.3314292029244967  0.8778840517703018  1.0000
  H   H22       1.0  0.531512372975861  0.9247251988866695  0.6903801604616149  1.0000
  H   H23       1.0  0.4956695080740943  0.5936061703570062  0.7312659678657097  1.0000
  H   H24       1.0  0.37930834012408343  0.8356059412435215  0.37523129484213774  1.0000
  H   H25       1.0  0.21743151863490334  0.5799448807584894  0.9670236192746344  1.0000
  H   H26       1.0  0.105854354344082  0.10772764252236303  0.43930610131099  1.0000
  H   H27       1.0  0.122046536536466  0.3573682249114469  0.0964404134749444  1.0000
  H   H28       1.0  0.12750852922496853  0.8572973481173207  0.5979861778178233  1.0000
  H   H29       1.0  0.9481240973843084  0.6530429784777567  0.910101976398245  1.0000
  H   H30       1.0  0.930462241922747  0.16143843914743886  0.40756765940648165  1.0000
  H   H31       1.0  0.668016213147524  0.6967951372960003  0.1834792634252693  1.0000
  H   H32       1.0  0.4868731896444486  0.09295618142500221  0.23151636050518928  1.0000
  H   H33       1.0  0.6707944691623168  0.19947892710171541  0.6884698264121242  1.0000
  H   H34       1.0  0.9361404743112799  0.37401289800035187  0.077849986466525  1.0000
  H   H35       1.0  0.9348167508344148  0.8763144698869567  0.5842759160738709  1.0000
  H   H36       1.0  0.7478439962881681  0.6224177891528484  0.9383927763783717  1.0000
  C   C1        1.0  0.475037496016867  0.6235653074048743  0.1105811810099837  1.0000
  C   C2        1.0  0.5364757653848784  0.7390261302567113  0.2371206088662419  1.0000
  C   C3        1.0  0.4998459143489384  0.21562598031164276  0.2411342034966779  1.0000
  C   C4        1.0  0.5364038938291815  0.23758164858649175  0.7414049233257529  1.0000
  C   C5        1.0  0.4966570161037253  0.6666286447818237  0.7856610906766407  1.0000
  C   C6        1.0  0.5420156557437535  0.6968870328702296  0.18571285941906268  1.0000
  C   C7        1.0  0.4886907330258338  0.1659326948002615  0.2859495919101676  1.0000
  C   C8        1.0  0.5448928845244936  0.19686865436402462  0.6893454761689952  1.0000
  C   C9        1.0  0.4992710097509984  0.7527841202321214  0.8615262145876484  1.0000
  C   C10       1.0  0.3814893159440443  0.6933544078327003  0.1815461654238959  1.0000
  C   C11       1.0  0.4931645916313983  0.2518657993629532  0.3618667075901599  1.0000
  C   C12       1.0  0.4961652779369529  0.6301731610275356  0.8896680247303266  1.0000
  C   C13       1.0  0.3848010796133181  0.18893245855418436  0.6837505318789567  1.0000
  C   C14       1.0  0.4964614600460706  0.802903018946978  0.8181087703195047  1.0000
  C   C15       1.0  0.37426396192974914  0.7372960559034638  0.2306806478979553  1.0000
  C   C16       1.0  0.4931163552452844  0.30206231209479034  0.3184289133935039  1.0000
  C   C17       1.0  0.3745554573871743  0.230909864079301  0.7340468922049297  1.0000
  C   C18       1.0  0.1655853217182752  0.48503392109638827  0.0173391512824566  1.0000
  C   C19       1.0  0.16510606145164525  0.9844680496086724  0.5180745083643004  1.0000
  C   C20       1.0  0.833194358282121  0.5255988082099421  0.001020901320259802  1.0000
  C   C21       1.0  0.8328667901265732  0.024146115080490898  0.500459008832074  1.0000
  C   C22       1.0  0.9656656768453971  0.5799718664564324  0.9609312600124795  1.0000
  C   C23       1.0  0.48239440879545  0.12485658929616508  0.6112641523623809  1.0000
  C   C24       1.0  0.9682249226099344  0.07863815377024251  0.4617288773741919  1.0000
  C   C25       1.0  0.8719064250992687  0.5754769111777307  0.9644059671735477  1.0000
  C   C26       1.0  0.8730729925890869  0.0750186498347887  0.4643961960319131  1.0000
  C   C27       1.0  0.8844819959789091  0.4823517309779957  0.0326387740681611  1.0000
  C   C28       1.0  0.8833623653816857  0.9803208251885995  0.5316422239691647  1.0000
  C   C29       1.0  0.5078419620439405  0.3784106212998283  0.8840924252422226  1.0000
  C   C30       1.0  0.5172032532629274  0.36685186683836696  0.10645421379617659  1.0000
  C   C31       1.0  0.5161588022180368  0.8781000133169596  0.3823793999341589  1.0000
  C   C32       1.0  0.5095389252782567  0.8682811232586971  0.6058259454146508  1.0000
  C   C33       1.0  0.9778566190302199  0.48340850530728846  0.02723825554881639  1.0000
  C   C34       1.0  0.48795303245134386  0.12915120881013561  0.3900717940807752  1.0000
  C   C35       1.0  0.9774692718846933  0.9806311319293216  0.5274992717068088  1.0000
  C   C36       1.0  0.020196061005265192  0.5337595392775115  0.992185454904309  1.0000
  C   C37       1.0  0.020278151645157998  0.030988776518100298  0.49297089638393743  1.0000
  C   C38       1.0  0.11421101839356851  0.5357002496456931  0.989981636110933  1.0000
  C   C39       1.0  0.11397983763907152  0.0330273300271529  0.4892336838170692  1.0000
  C   C40       1.0  0.12122490680005168  0.4342339353782875  0.049511545982724704  1.0000
  C   C41       1.0  0.12203685432819361  0.9340610656916651  0.5500952332052975  1.0000
  C   C42       1.0  0.0298220170672181  0.4348786202545796  0.0549266842008507  1.0000
  C   C43       1.0  0.029656627567995  0.9326378050894774  0.5550836797940377  1.0000
  C   C44       1.0  0.2619316010321882  0.485155044841541  0.0104068270651894  1.0000
  C   C45       1.0  0.5020427666467454  0.2849020844917405  0.2574370086937208  1.0000
  C   C46       1.0  0.2628959144510574  0.986387533134064  0.5129997464287969  1.0000
  C   C47       1.0  0.7357558310739447  0.5152815665062249  0.002385642817706901  1.0000
  C   C48       1.0  0.735304965548906  0.015104700756310806  0.5015337375769917  1.0000
  C   C49       1.0  0.49834906685043723  0.6849239832261489  0.8446330158406568  1.0000
  C   C50       1.0  0.4658111731516215  0.6726645750595566  0.1602161478211173  1.0000
  C   C51       1.0  0.48970050680964755  0.18407732718176822  0.3450411781303586  1.0000
  C   C52       1.0  0.4703666692851484  0.1716998279419144  0.6624487929379512  1.0000
  C   C53       1.0  0.522699262164366  0.3149122388905568  0.1525913237566527  1.0000
  C   C54       1.0  0.51866042142003  0.32302780260251046  0.8413881211315726  1.0000
  C   C55       1.0  0.5175136567087505  0.8162006799450978  0.6517156637746453  1.0000
  C   C56       1.0  0.45048659528172397  0.2542864534724387  0.7645623445765607  1.0000
  C   C57       1.0  0.5244841769479508  0.8242246772380994  0.3377691245355123  1.0000
  C   C58       1.0  0.5134536163993316  0.19832640984242997  0.18051855110176263  1.0000
  C   C59       1.0  0.6115539628277914  0.26079603195595513  0.7725304553089103  1.0000
  C   C60       1.0  0.5142065616512494  0.6995101372757659  0.6798064393093526  1.0000
  C   C61       1.0  0.6131746111631813  0.7605150879354882  0.2674444481253744  1.0000
  C   C62       1.0  0.5261790765387175  0.24609784781595323  0.1369816048134069  1.0000
  C   C63       1.0  0.6041047582231799  0.30326842345345284  0.8210370512134588  1.0000
  C   C64       1.0  0.522230177801056  0.7475075251761824  0.6359443266376061  1.0000
  C   C65       1.0  0.6084922596860949  0.8026837455990543  0.3163595091424938  1.0000
  C   C66       1.0  0.5154000924483597  0.33419433265211035  0.2120049780385571  1.0000
  C   C67       1.0  0.5036547619311165  0.7858656002042891  0.7569618219980542  1.0000
  C   C68       1.0  0.4432570323194014  0.29478909899226124  0.816957810246727  1.0000
  C   C69       1.0  0.5132025047905415  0.83535424341963  0.7112970387557737  1.0000
  C   C70       1.0  0.44730527952368243  0.798801167771579  0.3132706084242969  1.0000
  C   C71       1.0  0.8201350558614565  0.6240868573379217  0.9335015106372353  1.0000
  C   C72       1.0  0.8249848177050935  0.12316837760690195  0.4339643568666673  1.0000
  C   C73       1.0  0.5110419188287594  0.7701014150136488  0.9237623503256387  1.0000
  C   C74       1.0  0.3009313936453992  0.6683473084545213  0.1562012680476244  1.0000
  C   C75       1.0  0.506461629920409  0.26912308061739054  0.4240000740748755  1.0000
  C   C76       1.0  0.30598627743131596  0.1623124718549533  0.657033659735859  1.0000
  C   C77       1.0  0.5574292821512473  0.22460692767871393  0.0781168832053751  1.0000
  C   C78       1.0  0.45184370062233364  0.7585175931436011  0.2606666930373365  1.0000
  C   C79       1.0  0.6829726256604899  0.31909933926613127  0.8552833800249219  1.0000
  C   C80       1.0  0.5501045240805311  0.7264549179649008  0.5762195744899472  1.0000
  C   C81       1.0  0.6888864724665209  0.8164681908400271  0.3497581166134722  1.0000
  C   C82       1.0  0.5034974234434769  0.7165537553334147  0.740677954366987  1.0000
  O   O1        1.0  0.49933925427685477  0.49906746809433133  0.9987320817410891  1.0000
  O   O2        1.0  0.46578649741000777  0.855939842429031  0.5598628764092979  1.0000
  O   O3        1.0  0.29743705628013833  0.540777650323115  0.9930312066287642  1.0000
  O   O4        1.0  0.29932978743287453  0.042332940920232404  0.5223706135155196  1.0000
  O   O5        1.0  0.6997000070067398  0.5101646018461709  0.9523279543004648  1.0000
  O   O6        1.0  0.6981603245470395  0.5109689868194351  0.05299792339481261  1.0000
  O   O7        1.0  0.6977520153370448  0.019020627069238596  0.4518095254785308  1.0000
  O   O8        1.0  0.6982404644180064  0.003393909906115801  0.551349898088894  1.0000
  O   O9        1.0  0.4258135584738767  0.6243501676043764  0.9203271975606526  1.0000
  O   O10       1.0  0.43183956413325564  0.6350016127726761  0.0636032834523874  1.0000
  O   O11       1.0  0.4189741772109272  0.12311720223029002  0.42207036901925926  1.0000
  O   O12       1.0  0.4975486132803583  0.9999667751812569  0.4978385370390157  1.0000
  O   O13       1.0  0.4417878735877919  0.13826208344499952  0.5639211753608606  1.0000
  O   O14       1.0  0.5503891895216525  0.4242288775165334  0.1197028716044812  1.0000
  O   O15       1.0  0.5579419834895062  0.4282271019750894  0.8782144589859939  1.0000
  O   O16       1.0  0.5438588872136093  0.9253404244741149  0.6185001682017628  1.0000
  O   O17       1.0  0.5668554295221568  0.9278056982216113  0.3777274646645026  1.0000
  O   O18       1.0  0.3063418851485266  0.4324933441005925  0.0200271009000943  1.0000
  O   O19       1.0  0.3021939892182743  0.9319397170949839  0.4994720056270125  1.0000
  O   O20       1.0  0.4872429449667379  0.600803774780488  0.7738685507947666  1.0000
  O   O21       1.0  0.6195921934044718  0.6809489403800768  0.1588909894339352  1.0000
  O   O22       1.0  0.4768072894488071  0.10041744670225232  0.2739370863171899  1.0000
  O   O23       1.0  0.5238861754306825  0.5734303072045536  0.1206614990071699  1.0000
  O   O24       1.0  0.6236436195582298  0.1833334627651126  0.6629465845378633  1.0000
  O   O25       1.0  0.9956580284613209  0.3845660299407285  0.0900373287780738  1.0000
  O   O26       1.0  0.9979732113730791  0.8810077935466011  0.5892417889923109  1.0000
  O   O27       1.0  0.8532158398560198  0.6689079140608316  0.9015190617726815  1.0000
  O   O28       1.0  0.8622522363089897  0.17031851447809032  0.40284610977135327  1.0000
  O   O29       1.0  0.5325985295905369  0.7307605618757549  0.9624104372211023  1.0000
  O   O30       1.0  0.22569252787371846  0.6874656801706394  0.1723776403894348  1.0000
  O   O31       1.0  0.5293427073312172  0.22971881597811725  0.4622185590319887  1.0000
  O   O32       1.0  0.22970349820302974  0.17821842197716362  0.6737297629822548  1.0000
  O   O33       1.0  0.5234985151083434  0.6323746093269237  0.6672984585790687  1.0000
  O   O34       1.0  0.5635419581410943  0.5924370800080966  0.8906860380692264  1.0000
  O   O35       1.0  0.6923806404289152  0.7338200025115783  0.24794190715348213  1.0000
  O   O36       1.0  0.5208785889057667  0.13101450349105898  0.1682643460022177  1.0000
  O   O37       1.0  0.6920894517411256  0.23547734360478506  0.7540774569893215  1.0000
  O   O38       1.0  0.487767349445761  0.3675964707327993  0.3330194045911483  1.0000
  O   O39       1.0  0.294148189708153  0.24791638589967854  0.7527060642663201  1.0000
  O   O40       1.0  0.48915767650751  0.8683121223063283  0.8326987617767614  1.0000
  O   O41       1.0  0.29516380249847163  0.7580027408731596  0.2489106764899631  1.0000
  O   O42       1.0  0.6061936344720563  0.256419009424242  0.04560753298585501  1.0000
  O   O43       1.0  0.6839937684265108  0.3353515014889652  0.9073318904444463  1.0000
  O   O44       1.0  0.5951728811784632  0.7590882758477946  0.5419991775451365  1.0000
  O   O45       1.0  0.5313005781257019  0.0744448907633242  0.620872650092231  1.0000
  O   O46       1.0  0.6918392418916072  0.8318498702511263  0.401949260860988  1.0000
  O   O47       1.0  0.5190756424357588  0.398371623871796  0.22802116678540332  1.0000
  O   O48       1.0  0.36311192568726364  0.30697857320884475  0.8402004767667038  1.0000
  O   O49       1.0  0.5165088002175934  0.8995674540653412  0.7272524038938782  1.0000
  O   O50       1.0  0.3679759225033691  0.8128620089207672  0.3369009521135595  1.0000
  O   O51       1.0  0.15234564212555307  0.5855736918864524  0.9607669036492581  1.0000
  O   O52       1.0  0.1544625476657302  0.0793831288529603  0.4566126682855227  1.0000
  O   O53       1.0  0.16653670031777784  0.3853430039427082  0.077045029577981  1.0000
  O   O54       1.0  0.16956300426839732  0.8868495648881023  0.578197482817913  1.0000
  O   O55       1.0  0.0011316081865615976  0.6271106922616739  0.9277938538774465  1.0000
  O   O56       1.0  0.5557463097446557  0.0918189726759024  0.3894125071845735  1.0000
  O   O57       1.0  0.005411197825452499  0.125277623864136  0.4304254170802864  1.0000
  O   O58       1.0  0.4428163067181146  0.3739773529312203  0.9215393398810505  1.0000
  O   O59       1.0  0.47607932663655106  0.35419016042315826  0.05947589096579261  1.0000
  O   O60       1.0  0.45208525814994255  0.87244103249256  0.4200999572134734  1.0000
