data_image0
_chemical_formula_structural       Co3H50C76N10O8
_chemical_formula_sum              "Co3 H50 C76 N10 O8"
_cell_length_a       11.454391565742283
_cell_length_b       11.599428828946296
_cell_length_c       19.524622138932603
_cell_angle_alpha    79.7026376379316
_cell_angle_beta     74.74609374340999
_cell_angle_gamma    62.84470787534252

_space_group_name_H-M_alt    "P 1"
_space_group_IT_number       1

loop_
  _space_group_symop_operation_xyz
  'x, y, z'

loop_
  _atom_site_type_symbol
  _atom_site_label
  _atom_site_symmetry_multiplicity
  _atom_site_fract_x
  _atom_site_fract_y
  _atom_site_fract_z
  _atom_site_occupancy
  Co  Co1       1.0  0.4999999975959781  0.5000001225108477  0.999999904107511  1.0000
  Co  Co2       1.0  7.260563136626078e-07  0.5000006385877996  0.9999998561785898  1.0000
  Co  Co3       1.0  0.9999990405733501  4.5634747891084856e-07  0.9999999942749223  1.0000
  H   H1        1.0  0.3130525023065829  0.8236487305466297  0.03602731317697315  1.0000
  H   H2        1.0  0.41845387044217824  0.6056891996611072  0.13786641638348124  1.0000
  H   H3        1.0  0.3858545046605214  0.5226327408674578  0.2637889363812532  1.0000
  H   H4        1.0  0.4760899501433117  0.15563633393779241  0.18866456431636883  1.0000
  H   H5        1.0  0.49378578372364523  0.2579048276161515  0.06676194002165657  1.0000
  H   H6        1.0  0.4526182583296432  0.41296101453879425  0.35544977565348274  1.0000
  H   H7        1.0  0.4127642789505258  0.33306572864762535  0.478893746019949  1.0000
  H   H8        1.0  0.3467399141108984  0.033226311677303506  0.4149600100250053  1.0000
  H   H9        1.0  0.3811661590329151  0.11635343327099433  0.29207843278225437  1.0000
  H   H10       1.0  0.4334215598491937  0.22904710576524684  0.5736962609854002  1.0000
  H   H11       1.0  0.3640574844695906  0.17272996365082352  0.6986323055853843  1.0000
  H   H12       1.0  0.1808809547436141  0.9606030566645529  0.6410411985315887  1.0000
  H   H13       1.0  0.249269224324479  0.01781615394094161  0.5160621739244531  1.0000
  H   H14       1.0  0.3570963855145237  0.05307603841547602  0.8010028437690405  1.0000
  H   H15       1.0  0.24625796529583244  0.027055815928079607  0.9262467240117257  1.0000
  H   H16       1.0  0.0327768591950957  0.0314837032447883  0.7380148795910058  1.0000
  H   H17       1.0  0.9369509710060626  0.005266587273965218  0.8658364608210217  1.0000
  H   H18       1.0  0.18474336903490501  0.33720064145585127  0.08933939728159146  1.0000
  H   H19       1.0  0.2033386955194487  0.3320267445738878  0.2140777534922903  1.0000
  H   H20       1.0  0.8577955743216775  0.703486141485989  0.2319651235589291  1.0000
  H   H21       1.0  0.8506201369520383  0.6914630256025661  0.10705405156519987  1.0000
  H   H22       1.0  0.09158451729265242  0.30535674107085237  0.32791927932993287  1.0000
  H   H23       1.0  0.07562636915081812  0.2954627012754472  0.4554179418503777  1.0000
  H   H24       1.0  0.9506871680468548  0.7096461323923507  0.44199477097885137  1.0000
  H   H25       1.0  0.9694940246738782  0.7177336530869666  0.31453323744553047  1.0000
  H   H26       1.0  0.6869470831813799  0.17635099561084638  0.9639737405376391  1.0000
  H   H27       1.0  0.5815466076044016  0.39431055936582743  0.8621339854943526  1.0000
  H   H28       1.0  0.6141441790572273  0.4773669783050494  0.7362122558528906  1.0000
  H   H29       1.0  0.5239109907138797  0.8443644028874645  0.8113356773374601  1.0000
  H   H30       1.0  0.5062147089623322  0.7420969059069334  0.9332377666104532  1.0000
  H   H31       1.0  0.5473799772168845  0.5870397013315484  0.6445508815589347  1.0000
  H   H32       1.0  0.5872348345152361  0.666933045596018  0.5211069546014071  1.0000
  H   H33       1.0  0.653261432643312  0.9667715316074135  0.5850399219444993  1.0000
  H   H34       1.0  0.618833846991464  0.8836453738421  0.7079216160023093  1.0000
  H   H35       1.0  0.5665793295221989  0.7709517601017809  0.42630262264513136  1.0000
  H   H36       1.0  0.6359429843653926  0.8272698212605931  0.30136758297518895  1.0000
  H   H37       1.0  0.8191212937808244  0.039394793605133316  0.35895859491839116  1.0000
  H   H38       1.0  0.7507334539479728  0.9821807513998807  0.4839371279127318  1.0000
  H   H39       1.0  0.6429031723386344  0.9469237653954536  0.1989966699938036  1.0000
  H   H40       1.0  0.7537420976421245  0.9729468625238767  0.07375347423317888  1.0000
  H   H41       1.0  0.9672236096398876  0.9685160816666283  0.26198500896956717  1.0000
  H   H42       1.0  0.06305039959914174  0.9947332046224205  0.13416328922001947  1.0000
  H   H43       1.0  0.8152571144394686  0.662801117951716  0.9106597960332645  1.0000
  H   H44       1.0  0.7966604233741066  0.667974030050388  0.7859217385660809  1.0000
  H   H45       1.0  0.14220264280164935  0.2965146261533107  0.7680345070189742  1.0000
  H   H46       1.0  0.1493798929233279  0.30853773012219676  0.8929458152909003  1.0000
  H   H47       1.0  0.9084141387902919  0.6946430557551011  0.6720803729524432  1.0000
  H   H48       1.0  0.9243740996841653  0.7045370836359625  0.5445819467101954  1.0000
  H   H49       1.0  0.04931463230636274  0.2903527145751709  0.5580044874494019  1.0000
  H   H50       1.0  0.030506444161105165  0.28226613182444993  0.6854666511150425  1.0000
  C   C1        1.0  0.2853743446560628  0.4822273289411142  0.9723997857452528  1.0000
  C   C2        1.0  0.2343492121937062  0.615043936189373  0.9929182052161207  1.0000
  C   C3        1.0  0.1167732554533884  0.7296749363804055  0.993138437511703  1.0000
  C   C4        1.0  0.2661201474866245  0.7717042782851067  0.02109488797661642  1.0000
  C   C5        1.0  0.9834981265516731  0.7674263033721688  0.9787305549680806  1.0000
  C   C6        1.0  0.42956714706067334  0.5066940190095579  0.1521253721208566  1.0000
  C   C7        1.0  0.4145269776503327  0.45779071062924703  0.22220922008241217  1.0000
  C   C8        1.0  0.4323871876884268  0.32794606700634427  0.2394641036080784  1.0000
  C   C9        1.0  0.4611833969335635  0.25623179056876205  0.18101616981748941  1.0000
  C   C10       1.0  0.4733418955863087  0.31143303226239993  0.11220929011147261  1.0000
  C   C11       1.0  0.4176488365005184  0.2736246011336902  0.3129200068263812  1.0000
  C   C12       1.0  0.42745670867161323  0.33049519914651887  0.3681217715044197  1.0000
  C   C13       1.0  0.4068109490856531  0.28344133277538924  0.43841342550125956  1.0000
  C   C14       1.0  0.3742669067495683  0.17661242870702412  0.45860202720882626  1.0000
  C   C15       1.0  0.3678437050990482  0.1180228906096943  0.40296982282376326  1.0000
  C   C16       1.0  0.38928391320389716  0.16449656393046302  0.3326072188471087  1.0000
  C   C17       1.0  0.3440362552184197  0.1324051331078877  0.5333655630077698  1.0000
  C   C18       1.0  0.37679350829123603  0.17100416791013368  0.5876851019634655  1.0000
  C   C19       1.0  0.33839024604179  0.1376604133486623  0.6590107198640422  1.0000
  C   C20       1.0  0.2622264441503006  0.06523919894746649  0.6811006830141221  1.0000
  C   C21       1.0  0.2344843048974212  0.021525628937638406  0.6267666298487595  1.0000
  C   C22       1.0  0.27477921076089024  0.0531809654460673  0.5555398912007019  1.0000
  C   C23       1.0  0.2070039587568004  0.043195729994081916  0.7560001834908403  1.0000
  C   C24       1.0  0.2641934872874003  0.04208301812838761  0.812123807611847  1.0000
  C   C25       1.0  0.2037994135905024  0.02692458492272461  0.8824842643441566  1.0000
  C   C26       1.0  0.08637608560436412  0.0284187077957156  0.7773741928101712  1.0000
  C   C27       1.0  0.030248871042609003  0.015740707107774202  0.8486214052284989  1.0000
  C   C28       1.0  0.11470847840740818  0.4159992988307692  0.12319906691310928  1.0000
  C   C29       1.0  0.12286410495796928  0.41387556697951305  0.1929685289768129  1.0000
  C   C30       1.0  0.030051921971605063  0.5167621524008297  0.2352682184311447  1.0000
  C   C31       1.0  0.9331751197690606  0.6204998788059656  0.20236253346429572  1.0000
  C   C32       1.0  0.9285489931688887  0.6153724433692672  0.13268148008218358  1.0000
  C   C33       1.0  0.029491114797352135  0.5124997017193708  0.3111819247717519  1.0000
  C   C34       1.0  0.06109205698950853  0.39445140729140604  0.3528844394998173  1.0000
  C   C35       1.0  0.0503333788720965  0.38956096138153384  0.4257713583208726  1.0000
  C   C36       1.0  0.0080310792944545  0.5022735409098259  0.46092059260343615  1.0000
  C   C37       1.0  0.9818207313681313  0.6193966407324824  0.41825819107170736  1.0000
  C   C38       1.0  0.9917544253403963  0.6247481181488509  0.3453245804555463  1.0000
  C   C39       1.0  0.7146247926606862  0.5177733939141973  0.027600732947640004  1.0000
  C   C40       1.0  0.7656508268932569  0.38495679365090746  0.007082174957240362  1.0000
  C   C41       1.0  0.8832263446739647  0.2703267642732214  0.006861920957192133  1.0000
  C   C42       1.0  0.7338794434291314  0.22829744825300224  0.9789049571750249  1.0000
  C   C43       1.0  0.01650280509392131  0.23257445933757032  0.021269173368501988  1.0000
  C   C44       1.0  0.5704333309859139  0.4933057400173766  0.84787502975697  1.0000
  C   C45       1.0  0.5854735003962548  0.5422090483976875  0.7777911817954144  1.0000
  C   C46       1.0  0.5676146310879913  0.6720527281922131  0.7605361814546893  1.0000
  C   C47       1.0  0.5388184456938492  0.7437689532414635  0.818983933316815  1.0000
  C   C48       1.0  0.5266594750188959  0.6885667596339857  0.8877904599295688  1.0000
  C   C49       1.0  0.5823516415460688  0.7263751578932442  0.6870803950514525  1.0000
  C   C50       1.0  0.5725428676047457  0.6695045528954395  0.6318787688929388  1.0000
  C   C51       1.0  0.5931890661503235  0.7165574484532229  0.5615871366005646  1.0000
  C   C52       1.0  0.6257344400046492  0.8233854145776933  0.5413979047606785  1.0000
  C   C53       1.0  0.6321572026955522  0.8819759234883692  0.5970300874412755  1.0000
  C   C54       1.0  0.6107160928204821  0.8355022431826312  0.667392829937455  1.0000
  C   C55       1.0  0.6559655304954078  0.8675917393634833  0.4666343906662005  1.0000
  C   C56       1.0  0.6232073995033645  0.8289946461879368  0.4123148083015733  1.0000
  C   C57       1.0  0.6616102227931934  0.8623393715627542  0.3409891686965309  1.0000
  C   C58       1.0  0.7377749172432999  0.9347606188334081  0.3188985537096654  1.0000
  C   C59       1.0  0.7655183825866275  0.9784712505187017  0.3732331853056861  1.0000
  C   C60       1.0  0.7252216970337096  0.946817848651996  0.444460019064337  1.0000
  C   C61       1.0  0.792996071118566  0.9568050257306809  0.243999683365267  1.0000
  C   C62       1.0  0.735806542587973  0.9579177375963752  0.18787605924425313  1.0000
  C   C63       1.0  0.7962015272666818  0.9730761519025322  0.11751597730967933  1.0000
  C   C64       1.0  0.913623944271002  0.9715820479290472  0.22262567404593625  1.0000
  C   C65       1.0  0.9697520606029784  0.9842600556019646  0.1513783231080765  1.0000
  C   C66       1.0  0.8852920142785693  0.5840024346923087  0.8768006397190004  1.0000
  C   C67       1.0  0.8771350323587798  0.5861251558757985  0.8070319897160726  1.0000
  C   C68       1.0  0.9699463043633257  0.48323858935398795  0.7647319254640192  1.0000
  C   C69       1.0  0.06682353631388335  0.3794999180199953  0.7976371188180804  1.0000
  C   C70       1.0  0.07145103670647755  0.3846283123554954  0.8673183867739236  1.0000
  C   C71       1.0  0.9705066395153708  0.4875000881216137  0.6888178660301488  1.0000
  C   C72       1.0  0.9389065990934429  0.6055483895345546  0.6471152127825587  1.0000
  C   C73       1.0  0.9496657161704648  0.6104378646310735  0.5742283156659693  1.0000
  C   C74       1.0  0.9919675767884898  0.4977262559161274  0.5390790596789328  1.0000
  C   C75       1.0  0.018177924714812776  0.38060315609347845  0.5817414612106687  1.0000
  C   C76       1.0  0.008242890012709782  0.3752526425054797  0.6546751886418887  1.0000
  N   N1        1.0  0.3259945795740933  0.6437403149522679  0.010746057970713702  1.0000
  N   N2        1.0  0.13977713898599825  0.8267322937518388  0.01012656351843331  1.0000
  N   N3        1.0  0.46038673285549697  0.4345736838620411  0.09711468375123636  1.0000
  N   N4        1.0  0.08708255045551988  0.014716063234608608  0.9016716363273785  1.0000
  N   N5        1.0  0.017143108452984276  0.513998889006011  0.09326103010958056  1.0000
  N   N6        1.0  0.6740054595128767  0.35626041488801263  0.9892543222026471  1.0000
  N   N7        1.0  0.8602228908893748  0.17326846197292411  0.9898733033376668  1.0000
  N   N8        1.0  0.5396123952496482  0.5654270648777525  0.9028853216243956  1.0000
  N   N9        1.0  0.9129174886314504  0.985284666605672  0.09832874384598968  1.0000
  N   N10       1.0  0.9828587157512204  0.4860019065731791  0.9067380463902165  1.0000
  O   O1        1.0  0.4136875863548752  0.412181249970068  0.9711764658634007  1.0000
  O   O2        1.0  0.21535220479947978  0.43781888983343015  0.9566147161541634  1.0000
  O   O3        1.0  0.9417385599898652  0.6840549247518978  0.9752842722651276  1.0000
  O   O4        1.0  0.9100993926432677  0.8891675134921472  0.9713308974530785  1.0000
  O   O5        1.0  0.5863115271108867  0.5878175242735751  0.0288242347579484  1.0000
  O   O6        1.0  0.7846478342874903  0.5621818400068577  0.043385664019204746  1.0000
  O   O7        1.0  0.0582646325789824  0.3159448293454616  0.024716227371371188  1.0000
  O   O8        1.0  0.08990062802050151  0.11083326811709777  0.02866845608577509  1.0000
