data_image0
_chemical_formula_structural       CuH32C24S2N8O4
_chemical_formula_sum              "Cu1 H32 C24 S2 N8 O4"
_cell_length_a       7.367773389419324
_cell_length_b       9.348486418462603
_cell_length_c       10.359543737284726
_cell_angle_alpha    79.64809927876365
_cell_angle_beta     89.69355077702518
_cell_angle_gamma    75.3949571529037

_space_group_name_H-M_alt    "P 1"
_space_group_IT_number       1

loop_
  _space_group_symop_operation_xyz
  'x, y, z'

loop_
  _atom_site_type_symbol
  _atom_site_label
  _atom_site_symmetry_multiplicity
  _atom_site_fract_x
  _atom_site_fract_y
  _atom_site_fract_z
  _atom_site_occupancy
  Cu  Cu1       1.0  0.9999989056158606  0.5000016074375536  0.9999996272236299  1.0000
  H   H1        1.0  0.7732239983611958  0.7236489498819481  0.5283967788271011  1.0000
  H   H2        1.0  0.2267655921236126  0.2763516127889646  0.4716035766836553  1.0000
  H   H3        1.0  0.059776811706207335  0.5936423038196565  0.25002269601509397  1.0000
  H   H4        1.0  0.9402288234668955  0.40634574842595583  0.7499843906287821  1.0000
  H   H5        1.0  0.6138607889608777  0.49799770490723466  0.07165737991801538  1.0000
  H   H6        1.0  0.3861489053217112  0.5019948651603557  0.9283412696747387  1.0000
  H   H7        1.0  0.4018878067800529  0.5665139155821564  0.2554862468747103  1.0000
  H   H8        1.0  0.5981150818852681  0.43347874196106073  0.7445085462792561  1.0000
  H   H9        1.0  0.5266896455186935  0.6568362260572229  0.43901225984818365  1.0000
  H   H10       1.0  0.47330471410604236  0.34316210999418933  0.5609816722120939  1.0000
  H   H11       1.0  0.200155006503614  0.7232733243174255  0.6460042025805632  1.0000
  H   H12       1.0  0.7998379575980079  0.2767339255188972  0.35399703312940994  1.0000
  H   H13       1.0  0.953037487932249  0.7926885954146742  0.6571453048660486  1.0000
  H   H14       1.0  0.046959559355130354  0.20731860513005534  0.34285785808280167  1.0000
  H   H15       1.0  0.12243520784127057  0.996609354447962  0.6211856941694548  1.0000
  H   H16       1.0  0.8775638884620633  0.003395617738938501  0.3788139489339456  1.0000
  H   H17       1.0  0.2093101299143639  0.9425361981248345  0.47359459908314244  1.0000
  H   H18       1.0  0.7906848832032125  0.05746882335365912  0.5264031167813883  1.0000
  H   H19       1.0  0.7415492382267032  0.18876858874097735  0.1309681622469157  1.0000
  H   H20       1.0  0.25845085108525717  0.8112420400926014  0.8690238401086459  1.0000
  H   H21       1.0  0.6711832131248484  0.02493784194088991  0.8034460747943369  1.0000
  H   H22       1.0  0.3288271717269779  0.9750524709540402  0.19655388971894172  1.0000
  H   H23       1.0  0.9176412943191958  0.9714310495890573  0.8351044633964264  1.0000
  H   H24       1.0  0.08236763293382408  0.0285817027730388  0.164892976238292  1.0000
  H   H25       1.0  0.7988099068505292  0.16653155568743466  0.7872481108748272  1.0000
  H   H26       1.0  0.20118102308128266  0.8334735150826447  0.21274767775082631  1.0000
  H   H27       1.0  0.6239129662194499  0.8969699626782699  0.032173893680948085  1.0000
  H   H28       1.0  0.3760833877296576  0.10303954294596454  0.967822154981441  1.0000
  H   H29       1.0  0.6975625459063364  0.9683584128714106  0.16636623902769535  1.0000
  H   H30       1.0  0.3024297248570064  0.03165114204441721  0.8336278823958168  1.0000
  H   H31       1.0  0.8654037381808307  0.8482407579575479  0.08076703614781167  1.0000
  H   H32       1.0  0.13458855573578177  0.15176424581366632  0.919235516443727  1.0000
  C   C1        1.0  0.3019437089589515  0.2857143820478569  0.2020406548005411  1.0000
  C   C2        1.0  0.6980567897901081  0.714281556587011  0.7979661830679914  1.0000
  C   C3        1.0  0.8042309489236174  0.6341434901216091  0.35952572410729994  1.0000
  C   C4        1.0  0.19577023854864703  0.3658502232785069  0.6404785624378134  1.0000
  C   C5        1.0  0.914144817316625  0.5896443251242688  0.255387398316408  1.0000
  C   C6        1.0  0.08585537391647333  0.41034378752048184  0.7446177630496249  1.0000
  C   C7        1.0  0.6617354506324485  0.5359709182316905  0.1555340129739732  1.0000
  C   C8        1.0  0.33827322841126767  0.46402053036487706  0.8444657793205719  1.0000
  C   C9        1.0  0.5464730304377666  0.5740965169218413  0.257502437284259  1.0000
  C   C10       1.0  0.45352884345017924  0.4258950111658849  0.7424944651324876  1.0000
  C   C11       1.0  0.6169641391368967  0.6246279121372141  0.35978742221779203  1.0000
  C   C12       1.0  0.3830397652288083  0.3753658588925505  0.6402071947953727  1.0000
  C   C13       1.0  0.04644090934738892  0.7101937359272413  0.478880209576914  1.0000
  C   C14       1.0  0.9535592461938263  0.28980329536381794  0.5211303203558015  1.0000
  C   C15       1.0  0.06996318926456968  0.7889472700594313  0.5906518509787871  1.0000
  C   C16       1.0  0.930035237315266  0.21105544807788593  0.40935007556716824  1.0000
  C   C17       1.0  0.08852396933188794  0.9487257128788045  0.5374532873396588  1.0000
  C   C18       1.0  0.9114734406245475  0.0512759077409157  0.4625468822251263  1.0000
  C   C19       1.0  0.7710297076470806  0.19541560661424745  0.025245415667150394  1.0000
  C   C20       1.0  0.22897180264879305  0.8045815173674385  0.9747525470116827  1.0000
  C   C21       1.0  0.7885571876847237  0.0584368645185691  0.8437003874137116  1.0000
  C   C22       1.0  0.21144499325767888  0.9415624975437495  0.15629722494455217  1.0000
  C   C23       1.0  0.7354677329460412  0.9389525248514662  0.0701402842066513  1.0000
  C   C24       1.0  0.26453237905768384  0.061053560821981996  0.9298591827559403  1.0000
  S   S1        1.0  0.4513279201171016  0.18783315098384895  0.31951842109982204  1.0000
  S   S2        1.0  0.5486582601359938  0.8121696591369132  0.6804844896564287  1.0000
  N   N1        1.0  0.19087249457533756  0.3539378588196983  0.11653851207829997  1.0000
  N   N2        1.0  0.809124225273365  0.646066010988207  0.883461309126943  1.0000
  N   N3        1.0  0.8410227188424813  0.5440109950089465  0.15639057035892984  1.0000
  N   N4        1.0  0.15898529001622552  0.455978207522513  0.843610538817181  1.0000
  N   N5        1.0  0.8709013651005149  0.6893745047092282  0.46140975845424476  1.0000
  N   N6        1.0  0.12909573964749643  0.31061924999799834  0.5385935674129738  1.0000
  N   N7        1.0  0.7594670073340807  0.07108544023179773  0.9805086751382318  1.0000
  N   N8        1.0  0.24053515322409388  0.9289184250682899  0.019486305417927906  1.0000
  O   O1        1.0  0.1772987550584728  0.6720842532114448  0.40633140788574446  1.0000
  O   O2        1.0  0.8227010730440582  0.3279094473427904  0.5936757803033643  1.0000
  O   O3        1.0  0.8075881908192314  0.30837065590985446  0.9577769432699054  1.0000
  O   O4        1.0  0.19242688394315613  0.6916354033942652  0.042210903389459986  1.0000
