data_image0
_chemical_formula_structural       Al6H50C108O28
_chemical_formula_sum              "Al6 H50 C108 O28"
_cell_length_a       12.558826436436764
_cell_length_b       12.566527973807682
_cell_length_c       27.022574504148956
_cell_angle_alpha    89.97886489641473
_cell_angle_beta     90.06230183862276
_cell_angle_gamma    120.64868065139339

_space_group_name_H-M_alt    "P 1"
_space_group_IT_number       1

loop_
  _space_group_symop_operation_xyz
  'x, y, z'

loop_
  _atom_site_type_symbol
  _atom_site_label
  _atom_site_symmetry_multiplicity
  _atom_site_fract_x
  _atom_site_fract_y
  _atom_site_fract_z
  _atom_site_occupancy
  Al  Al1       1.0  0.47033866695248616  0.23297119400024252  0.7489521677861648  1.0000
  Al  Al2       1.0  0.7336005132434877  0.48414600343534164  0.7499704110325072  1.0000
  Al  Al3       1.0  0.7315755445494859  0.2446473100532954  0.7499554537481361  1.0000
  Al  Al4       1.0  0.2337053007199047  0.4701948263245086  0.2508532404210301  1.0000
  Al  Al5       1.0  0.48443405021124164  0.7338635906259157  0.25012942333825816  1.0000
  Al  Al6       1.0  0.24474896472178642  0.7315019101021604  0.2501536845689288  1.0000
  H   H1        1.0  0.02103701525025063  0.7835258305587018  0.0420687688630608  1.0000
  H   H2        1.0  0.7611817844554452  0.9770230840197341  0.45169599116660214  1.0000
  H   H3        1.0  0.2231608081136542  0.24259895758356717  0.0454974929758336  1.0000
  H   H4        1.0  0.02042802025519578  0.7855620015406901  0.4590217438949012  1.0000
  H   H5        1.0  0.760225802013899  0.9766687115177887  0.048146824935258806  1.0000
  H   H6        1.0  0.2220977149927705  0.24178751962312356  0.4546952254146675  1.0000
  H   H7        1.0  0.7853450625603386  0.02079021381327814  0.5415472250154354  1.0000
  H   H8        1.0  0.9769747901256456  0.7599123496781531  0.9522465869316579  1.0000
  H   H9        1.0  0.24197413949871563  0.2225129184616108  0.5452025687087672  1.0000
  H   H10       1.0  0.7841239429365532  0.020718835704982886  0.9583758826478856  1.0000
  H   H11       1.0  0.9767654228108642  0.7609929560733876  0.5488440331504378  1.0000
  H   H12       1.0  0.242166743049026  0.22250989836853563  0.9550588908879337  1.0000
  H   H13       1.0  0.06687756304237531  0.36626231462138054  0.12095961091008432  1.0000
  H   H14       1.0  0.29288768086340855  0.927940980911444  0.3758911841739733  1.0000
  H   H15       1.0  0.6470240670696155  0.7113936380671356  0.12277443032129302  1.0000
  H   H16       1.0  0.06694729687930591  0.3696788337186164  0.3790361937947751  1.0000
  H   H17       1.0  0.2922956396033598  0.9278514306117672  0.12392685357796303  1.0000
  H   H18       1.0  0.6457981212572933  0.7094796246697116  0.3768740901777862  1.0000
  H   H19       1.0  0.3682373976785983  0.06619678482827139  0.6209935792199632  1.0000
  H   H20       1.0  0.9275291302452333  0.2922921893510874  0.8760363329474716  1.0000
  H   H21       1.0  0.7104835523361076  0.6464746455830122  0.6227452181318542  1.0000
  H   H22       1.0  0.3668567695420677  0.06647444529401984  0.8790833814910642  1.0000
  H   H23       1.0  0.9279114605240865  0.2926802594619176  0.6239645222181383  1.0000
  H   H24       1.0  0.7099349375426625  0.6456131714729165  0.8769112020350608  1.0000
  H   H25       1.0  0.06516850842931621  0.7069248939592895  0.12044693823776952  1.0000
  H   H26       1.0  0.6347503217933621  0.9273952840187648  0.37482668107068673  1.0000
  H   H27       1.0  0.30260998594688715  0.3663020956504822  0.12308533473088094  1.0000
  H   H28       1.0  0.06520421742291668  0.7103511508340503  0.38050740876119704  1.0000
  H   H29       1.0  0.6337631069544402  0.926746256583094  0.1251222599939794  1.0000
  H   H30       1.0  0.30115592772990846  0.36424101217102833  0.3768537443610072  1.0000
  H   H31       1.0  0.7095813496091239  0.06537535592838141  0.6199204560130414  1.0000
  H   H32       1.0  0.926916012529219  0.6337959274697696  0.8752200478854988  1.0000
  H   H33       1.0  0.36528052557385854  0.3017771705803369  0.6229071235739526  1.0000
  H   H34       1.0  0.7079446699444318  0.06534288901582375  0.8799156636020486  1.0000
  H   H35       1.0  0.927430574216672  0.6343722650623534  0.6255987989263477  1.0000
  H   H36       1.0  0.36485600539728574  0.30117137019917806  0.8773362307545514  1.0000
  H   H37       1.0  0.023143302343051238  0.24325876392867948  0.0433993102072492  1.0000
  H   H38       1.0  0.22008143570420222  0.9781981313984077  0.4535186436802406  1.0000
  H   H39       1.0  0.7702601929732683  0.7892178552441963  0.0448984052839805  1.0000
  H   H40       1.0  0.022668867080128077  0.24537128010252468  0.4563589845533401  1.0000
  H   H41       1.0  0.2193795196469142  0.9782351829218501  0.0463628942066663  1.0000
  H   H42       1.0  0.7692864370666043  0.7884594322744574  0.45464014567640026  1.0000
  H   H43       1.0  0.2445353271267052  0.02246727508642007  0.5434405905664337  1.0000
  H   H44       1.0  0.9783256548678879  0.21927493044753982  0.9535314498061427  1.0000
  H   H45       1.0  0.7885867255040611  0.7696844710758414  0.5449789220086247  1.0000
  H   H46       1.0  0.2435287663522629  0.022746174372457496  0.9564916901967212  1.0000
  H   H47       1.0  0.9781909042625401  0.2203746082154724  0.5462355014110402  1.0000
  H   H48       1.0  0.7889023069899112  0.769519729524916  0.9546202837974962  1.0000
  H   H49       1.0  0.26574232514177965  0.11997197451751869  0.7780401144741022  1.0000
  H   H50       1.0  0.0827613879747702  0.2657878413054888  0.23060202902316015  1.0000
  C   C1        1.0  0.5585077549419284  0.4460810792443013  0.8208538293039002  1.0000
  C   C2        1.0  0.87702478973727  0.43710199601419203  0.6810408179607919  1.0000
  C   C3        1.0  0.556963746187435  0.10947196851648748  0.8220373598358962  1.0000
  C   C4        1.0  0.559549948454567  0.4472612702342574  0.6789533559521034  1.0000
  C   C5        1.0  0.8763534697257428  0.43698873306976793  0.8193406014193984  1.0000
  C   C6        1.0  0.5588913701153971  0.1101640231166527  0.67761703793677  1.0000
  C   C7        1.0  0.4470112762317697  0.5580997509295003  0.3206440277184228  1.0000
  C   C8        1.0  0.43666684084897167  0.8764266305357182  0.18080307836747525  1.0000
  C   C9        1.0  0.11076266640603905  0.5602094038865033  0.3226357206708812  1.0000
  C   C10       1.0  0.44753264896886674  0.5603903476463968  0.17908748412713754  1.0000
  C   C11       1.0  0.43778747263493045  0.8770768550597978  0.3190995528134835  1.0000
  C   C12       1.0  0.10860597993398363  0.5558075122716347  0.1782721505664142  1.0000
  C   C13       1.0  0.985993879678112  0.4941365116912024  0.9720959996293744  1.0000
  C   C14       1.0  0.5097269906365441  0.012137333382440768  0.5233836200282483  1.0000
  C   C15       1.0  0.511896324171815  0.5001636825257308  0.9741732563991621  1.0000
  C   C16       1.0  0.9857008546343595  0.4954326098249949  0.5283260398949354  1.0000
  C   C17       1.0  0.508703884641811  0.012175059856346574  0.976525296625596  1.0000
  C   C18       1.0  0.5115018711874059  0.4998939967445964  0.525718431310331  1.0000
  C   C19       1.0  0.49529616966707857  0.9858706153651158  0.4718302536160693  1.0000
  C   C20       1.0  0.012405097989827099  0.5082467251190579  0.023652033439752508  1.0000
  C   C21       1.0  0.4997069014815595  0.5113436210284803  0.47400915836852436  1.0000
  C   C22       1.0  0.49440675102081866  0.9857892191649994  0.028069510503200907  1.0000
  C   C23       1.0  0.011993648956902836  0.5101480219736558  0.476781865586503  1.0000
  C   C24       1.0  0.5004693654253316  0.5121796937315041  0.025850582861430407  1.0000
  C   C25       1.0  0.9867615194793374  0.6904651226562137  0.9726420107485582  1.0000
  C   C26       1.0  0.7052616546925989  0.01123135998304289  0.5217012486164665  1.0000
  C   C27       1.0  0.3132559317624485  0.3022655368165204  0.9753695513546036  1.0000
  C   C28       1.0  0.9864083882718049  0.6917576438789437  0.5282629155671685  1.0000
  C   C29       1.0  0.7041186472773616  0.011185151079850068  0.9782004654442817  1.0000
  C   C30       1.0  0.31283990761902913  0.3020204847639222  0.524758373110018  1.0000
  C   C31       1.0  0.6918092276915786  0.9866852296362509  0.47218147057820664  1.0000
  C   C32       1.0  0.011478554224261434  0.7036323101306364  0.022161247318315706  1.0000
  C   C33       1.0  0.3017663032424026  0.31276563880893354  0.475080978762776  1.0000
  C   C34       1.0  0.690776909109836  0.9864562304358984  0.027710186443478304  1.0000
  C   C35       1.0  0.010917841721933951  0.7054421992586127  0.47875111975385926  1.0000
  C   C36       1.0  0.3026056699295196  0.31347536588995684  0.025022540295957206  1.0000
  C   C37       1.0  0.9413913299268869  0.5672676113393819  0.895527603403423  1.0000
  C   C38       1.0  0.6286592798011625  0.052999889114538117  0.5998487680221417  1.0000
  C   C39       1.0  0.4332654386344855  0.3822281853696836  0.8977608170123761  1.0000
  C   C40       1.0  0.9415985933237891  0.5679077702562693  0.6051211055156713  1.0000
  C   C41       1.0  0.6271652784575465  0.05300440168755923  0.9000159829330701  1.0000
  C   C42       1.0  0.4334504780636126  0.38259670777604543  0.602301893420048  1.0000
  C   C43       1.0  0.5682119449386747  0.9417207237964291  0.3951811146276968  1.0000
  C   C44       1.0  0.05293264760890536  0.6263018131598628  0.10027161261202623  1.0000
  C   C45       1.0  0.382066757861793  0.43257597866051617  0.3974280296589471  1.0000
  C   C46       1.0  0.5673157851511663  0.9412872599259433  0.10473816089118773  1.0000
  C   C47       1.0  0.0529572205000549  0.6294446189796616  0.4004748436756033  1.0000
  C   C48       1.0  0.38331669303449434  0.43443807884504787  0.1024329369074763  1.0000
  C   C49       1.0  0.06745144367382488  0.5371732898201315  0.1255158626967514  1.0000
  C   C50       1.0  0.46261578808209675  0.9253130074338215  0.3705765276195906  1.0000
  C   C51       1.0  0.4732494990467516  0.540057861976493  0.12728980946560853  1.0000
  C   C52       1.0  0.06815110475590559  0.5409534286904857  0.3751311299089508  1.0000
  C   C53       1.0  0.46178097464052603  0.9248927859568286  0.1293084070197139  1.0000
  C   C54       1.0  0.4721334929389088  0.537890128747918  0.37249695254729437  1.0000
  C   C55       1.0  0.539805806634007  0.06782874146932734  0.6250896813336269  1.0000
  C   C56       1.0  0.924874539606215  0.4618427834345411  0.8708511317334173  1.0000
  C   C57       1.0  0.5390356484229811  0.47268963688692617  0.6271796144970168  1.0000
  C   C58       1.0  0.5381647064602079  0.06772196931223108  0.8747131938768151  1.0000
  C   C59       1.0  0.9252079321213031  0.46223215673954576  0.6295669572469296  1.0000
  C   C60       1.0  0.5384836160370912  0.47190332018715253  0.8726780219148014  1.0000
  C   C61       1.0  0.9720029658065386  0.5852381707145751  0.9459217530548474  1.0000
  C   C62       1.0  0.6154265848159427  0.025184864676283728  0.5491079534038832  1.0000
  C   C63       1.0  0.41812068727377055  0.394300736928301  0.9483251423454464  1.0000
  C   C64       1.0  0.9718245599890312  0.5862601605570391  0.5547315958888889  1.0000
  C   C65       1.0  0.6142474176462471  0.02524895820019417  0.9507685490918762  1.0000
  C   C66       1.0  0.41794881861228833  0.3942778273448583  0.5517048001836999  1.0000
  C   C67       1.0  0.5863588704540635  0.9720392895117483  0.44557326068735403  1.0000
  C   C68       1.0  0.025433752504646676  0.6136478927882864  0.04949479106931422  1.0000
  C   C69       1.0  0.3939412567730117  0.41760347632739336  0.4480637050276641  1.0000
  C   C70       1.0  0.5854593224054128  0.971795456670712  0.05434861168013331  1.0000
  C   C71       1.0  0.02498382753767461  0.615887223732578  0.4512005351810232  1.0000
  C   C72       1.0  0.3949076954096073  0.4187051317157754  0.05188170954183852  1.0000
  C   C73       1.0  0.941625490113658  0.3738830870104833  0.8959718806720787  1.0000
  C   C74       1.0  0.43524267700460234  0.05333415976475921  0.6002254121136019  1.0000
  C   C75       1.0  0.6288350565549408  0.5774196425780787  0.8973536799972381  1.0000
  C   C76       1.0  0.9417813461995836  0.374437530038449  0.6042168746108133  1.0000
  C   C77       1.0  0.4339961494970837  0.053424638897354285  0.8996928973690289  1.0000
  C   C78       1.0  0.6291807624926946  0.5780398345069172  0.6024073104662264  1.0000
  C   C79       1.0  0.3746152923885047  0.9418912888216296  0.395767921422106  1.0000
  C   C80       1.0  0.053529195292924305  0.43327798412788354  0.100437295601246  1.0000
  C   C81       1.0  0.5775078343830273  0.6283348477455989  0.3972606112439152  1.0000
  C   C82       1.0  0.37391664716671613  0.9417069261238354  0.10407863131899123  1.0000
  C   C83       1.0  0.05370436953544566  0.43636237046391096  0.39986529215028105  1.0000
  C   C84       1.0  0.5785837314086779  0.6300722276748587  0.10247493929303182  1.0000
  C   C85       1.0  0.9722730342933305  0.3882860395990306  0.9463815150230348  1.0000
  C   C86       1.0  0.4184133312691359  0.025562100033155788  0.5496268913094015  1.0000
  C   C87       1.0  0.617351770791487  0.5934131254039415  0.9480077896333798  1.0000
  C   C88       1.0  0.9721392971841993  0.38931106943577026  0.5537973491114272  1.0000
  C   C89       1.0  0.4173474772725498  0.025713930690827207  0.9502872334686787  1.0000
  C   C90       1.0  0.6171822344377134  0.5935121686517846  0.5517478771407414  1.0000
  C   C91       1.0  0.3892207355863493  0.9722521944474992  0.44620134874289635  1.0000
  C   C92       1.0  0.02596656675284952  0.4168733713196247  0.049801769676314216  1.0000
  C   C93       1.0  0.5931945280212788  0.6168386078752733  0.44793396847847344  1.0000
  C   C94       1.0  0.38845958723408797  0.972197513864401  0.053674474189342916  1.0000
  C   C95       1.0  0.025632852652322007  0.41912831617467117  0.4504191926009825  1.0000
  C   C96       1.0  0.5940664881559529  0.6179061988584138  0.05182892451269792  1.0000
  C   C97       1.0  0.012675294835496188  0.3123034440319756  0.02301040814560911  1.0000
  C   C98       1.0  0.2998899639545415  0.9873776982429093  0.4734589478398378  1.0000
  C   C99       1.0  0.6988411651370683  0.7095620146799534  0.0246794274553679  1.0000
  C   C100      1.0  0.012257365540186511  0.31414979745918004  0.47694771645637973  1.0000
  C   C101      1.0  0.2991075780573452  0.9874671310742897  0.026423177444996806  1.0000
  C   C102      1.0  0.6981078688948373  0.7089443392622742  0.47496584271031866  1.0000
  C   C103      1.0  0.31351795614719447  0.012179050133298105  0.5229424829387881  1.0000
  C   C104      1.0  0.9876104480090007  0.2989341801708036  0.9735377278339854  1.0000
  C   C105      1.0  0.7090133905392548  0.6983462302820129  0.5246816680983458  1.0000
  C   C106      1.0  0.31259792919853885  0.012373871427492054  0.976956036213487  1.0000
  C   C107      1.0  0.987349670396057  0.30022018595046507  0.5264079931626213  1.0000
  C   C108      1.0  0.7094138919700371  0.6984167039758872  0.9749838562661071  1.0000
  O   O1        1.0  0.4773381130775861  0.12978053164322031  0.8027836510104367  1.0000
  O   O2        1.0  0.660686412045138  0.5284718464288148  0.7005441864257949  1.0000
  O   O3        1.0  0.8530107026612087  0.33513617332395995  0.7991516678710371  1.0000
  O   O4        1.0  0.48030679958069566  0.1325540221605336  0.6962380527885659  1.0000
  O   O5        1.0  0.6592390391091243  0.5274799919189236  0.7992214133339743  1.0000
  O   O6        1.0  0.853285835066295  0.33492171866728876  0.7011096396086387  1.0000
  O   O7        1.0  0.13364996621056252  0.4819479130946008  0.30407224547529677  1.0000
  O   O8        1.0  0.5291829338863039  0.6611160888303687  0.200774570258389  1.0000
  O   O9        1.0  0.33583911946773554  0.853587550852126  0.2988151086467924  1.0000
  O   O10       1.0  0.12782858455714333  0.4756589506101606  0.1977857009870904  1.0000
  O   O11       1.0  0.5277375673502224  0.65981849879757  0.2994229588887763  1.0000
  O   O12       1.0  0.3343134230702207  0.852398318365971  0.20076123258205314  1.0000
  O   O13       1.0  0.47906057802622115  0.34364670036969597  0.802314448417903  1.0000
  O   O14       1.0  0.8548107346977006  0.5157689038541307  0.7014588059849347  1.0000
  O   O15       1.0  0.6563269333444524  0.1274648384325587  0.8001798034620295  1.0000
  O   O16       1.0  0.48002328139009626  0.3451614897427007  0.6976050589921743  1.0000
  O   O17       1.0  0.8537182403065632  0.5156713136049904  0.7992345786787498  1.0000
  O   O18       1.0  0.6572386355205638  0.12661466410362723  0.7001004353693504  1.0000
  O   O19       1.0  0.3456788123303767  0.4777925938511912  0.3015594938720484  1.0000
  O   O20       1.0  0.5156240872159118  0.8544751264914935  0.20115546766999165  1.0000
  O   O21       1.0  0.12694282068567025  0.6583566356135223  0.3001151421877851  1.0000
  O   O22       1.0  0.3449565917680886  0.4812177430142199  0.19747491610604587  1.0000
  O   O23       1.0  0.5165277409966508  0.8545931572929676  0.2988851028250039  1.0000
  O   O24       1.0  0.12722223155606832  0.6554336336869966  0.19998805124068753  1.0000
  O   O25       1.0  0.6473724542962174  0.32151053976951255  0.7500329434748921  1.0000
  O   O26       1.0  0.32166042150244323  0.6473088609856745  0.2500261120700173  1.0000
  O   O27       1.0  0.30741728298121274  0.15062279032978407  0.7467428143653907  1.0000
  O   O28       1.0  0.15292966604186375  0.30736257953098084  0.25262167950172915  1.0000
