data_image0
_chemical_formula_structural       Ni2H28C32N4O12
_chemical_formula_sum              "Ni2 H28 C32 N4 O12"
_cell_length_a       7.597633339797815
_cell_length_b       8.68474343931986
_cell_length_c       13.02125017446959
_cell_angle_alpha    75.66767113865487
_cell_angle_beta     90.43546168523439
_cell_angle_gamma    72.22265275802177

_space_group_name_H-M_alt    "P 1"
_space_group_IT_number       1

loop_
  _space_group_symop_operation_xyz
  'x, y, z'

loop_
  _atom_site_type_symbol
  _atom_site_label
  _atom_site_symmetry_multiplicity
  _atom_site_fract_x
  _atom_site_fract_y
  _atom_site_fract_z
  _atom_site_occupancy
  Ni  Ni1       1.0  0.14258335108240763  0.2519030880883192  0.2413654614534835  1.0000
  Ni  Ni2       1.0  0.857421113024088  0.7481050406411781  0.7586310589069426  1.0000
  H   H1        1.0  0.8192874530511033  0.5737666058279842  0.153849307338092  1.0000
  H   H2        1.0  0.18069555878378904  0.42622830995562555  0.846147608137869  1.0000
  H   H3        1.0  0.5636996270356318  0.733805397288691  0.2444497179488749  1.0000
  H   H4        1.0  0.43630582254610306  0.26620546444377163  0.7555556686278706  1.0000
  H   H5        1.0  0.5677706417351586  0.6471372691388736  0.4427390316260328  1.0000
  H   H6        1.0  0.4322506641271816  0.3528640118648381  0.557267478257188  1.0000
  H   H7        1.0  0.7416233927290818  0.43033868943693676  0.6242716600671088  1.0000
  H   H8        1.0  0.2583746022901963  0.5696735983192693  0.3757235993428125  1.0000
  H   H9        1.0  0.9795343344449489  0.16426788942833787  0.707934400148261  1.0000
  H   H10       1.0  0.020452362593275125  0.8357336350095464  0.2920669979107799  1.0000
  H   H11       1.0  0.24738266710415505  0.9064504471663636  0.6871065515084211  1.0000
  H   H12       1.0  0.7526155933777472  0.09355179543083376  0.31289234004427874  1.0000
  H   H13       1.0  0.44903529589695523  0.7712728221079386  0.5622930485812461  1.0000
  H   H14       1.0  0.5509737194777244  0.22873918807717783  0.43771061546060247  1.0000
  H   H15       1.0  0.4089901809161062  0.9203252020259426  0.3658116930794293  1.0000
  H   H16       1.0  0.5910188863417216  0.07968111646326288  0.6341881037790742  1.0000
  H   H17       1.0  0.8437885561032276  0.9369239569817577  0.033071950220630725  1.0000
  H   H18       1.0  0.1562195135163336  0.0630585424560692  0.966937155845379  1.0000
  H   H19       1.0  0.5446267180763087  0.930733551637928  0.09149422576641805  1.0000
  H   H20       1.0  0.4553716365746893  0.06925887729456548  0.9085059599944144  1.0000
  H   H21       1.0  0.18279284873998586  0.4133617240200137  0.06714855810730572  1.0000
  H   H22       1.0  0.817207540491566  0.5866451658761773  0.9328381566967039  1.0000
  H   H23       1.0  0.006608338696608531  0.3326844969074115  0.05713460844300763  1.0000
  H   H24       1.0  0.9933923787262129  0.6673242845908689  0.9428703250925067  1.0000
  H   H25       1.0  0.24132238411819887  0.6569446114112407  0.12878835273435393  1.0000
  H   H26       1.0  0.7586700475988406  0.3430423304286734  0.8712226150638783  1.0000
  H   H27       1.0  0.38084845510599047  0.4837676697604608  0.1867021071185988  1.0000
  H   H28       1.0  0.6191492422610453  0.516223917771171  0.813307431157419  1.0000
  C   C1        1.0  0.8152569775204555  0.5378323763445038  0.239749904016243  1.0000
  C   C2        1.0  0.1847362034168754  0.462169033870694  0.7602483729133667  1.0000
  C   C3        1.0  0.6753387732413713  0.6281225886278179  0.2921177012880065  1.0000
  C   C4        1.0  0.3246613483778233  0.3718780900465503  0.7078836890045251  1.0000
  C   C5        1.0  0.6770255850625162  0.5790699663211427  0.4018695209617107  1.0000
  C   C6        1.0  0.3229870802609084  0.42092854898434934  0.5981335825459124  1.0000
  C   C7        1.0  0.8190168732483941  0.43630540654668676  0.4609738601951179  1.0000
  C   C8        1.0  0.18099054123692332  0.5636925078711101  0.5390262907547836  1.0000
  C   C9        1.0  0.8370862528151901  0.3670739243673252  0.574213384295241  1.0000
  C   C10       1.0  0.1629113699932319  0.6329307367694523  0.4257859634052892  1.0000
  C   C11       1.0  0.9715841041775091  0.21881916522182362  0.6224419465160053  1.0000
  C   C12       1.0  0.028411295296066955  0.7811842628859436  0.37755912294277044  1.0000
  C   C13       1.0  0.10086602116820126  0.12768033656251276  0.5617138929294612  1.0000
  C   C14       1.0  0.8991245890486181  0.8723210884758572  0.43828594417653477  1.0000
  C   C15       1.0  0.23583913703389214  0.9688176721602911  0.6025040880807282  1.0000
  C   C16       1.0  0.7641561482439979  0.03118591027702422  0.3974954227549573  1.0000
  C   C17       1.0  0.34525833466248207  0.8940893051785322  0.5324601436885813  1.0000
  C   C18       1.0  0.6547446679916288  0.10591984732042903  0.4675393331128177  1.0000
  C   C19       1.0  0.3254962503827983  0.9747625986543085  0.42321635600805496  1.0000
  C   C20       1.0  0.6745087895007341  0.025243973563945626  0.5767834431804032  1.0000
  C   C21       1.0  0.08954803765288942  0.199596538828878  0.4512686617534881  1.0000
  C   C22       1.0  0.9104485800698041  0.8004021293644995  0.5487307160980706  1.0000
  C   C23       1.0  0.9506363018443266  0.35134190986420316  0.40145579796116226  1.0000
  C   C24       1.0  0.049365338325095785  0.6486576678759448  0.5985434152019379  1.0000
  C   C25       1.0  0.8688379257405356  0.14377523360833067  0.0932887294795393  1.0000
  C   C26       1.0  0.1311503569590471  0.8562299423981443  0.9067114029690941  1.0000
  C   C27       1.0  0.7655251788515753  0.031596978882028316  0.0719451737364807  1.0000
  C   C28       1.0  0.2344808831623481  0.9683961904445368  0.9280548457825971  1.0000
  C   C29       1.0  0.5990067447672228  0.0278083030081291  0.10388090144898139  1.0000
  C   C30       1.0  0.4009968703190767  0.9721831570849341  0.8961132082947502  1.0000
  C   C31       1.0  0.474551348185308  0.15198494750921301  0.1533041488931843  1.0000
  C   C32       1.0  0.5254447504420838  0.8480088006359238  0.8466835686595927  1.0000
  N   N1        1.0  0.9500301460792636  0.4009099141545177  0.2933972903127113  1.0000
  N   N2        1.0  0.04996367253154693  0.5990890775210929  0.7066005304690605  1.0000
  N   N3        1.0  0.20146613041406877  0.12629000120679726  0.3832314193495846  1.0000
  N   N4        1.0  0.7985331251402741  0.873713404666226  0.6167673098446046  1.0000
  O   O1        1.0  0.9370053097586603  0.1114376180728627  0.18718057041940736  1.0000
  O   O2        1.0  0.06298724575125188  0.8885475997103851  0.812822927427092  1.0000
  O   O3        1.0  0.8957165931985355  0.2549449278721525  0.0138345898632792  1.0000
  O   O4        1.0  0.10428515636797903  0.7450552804020204  0.9861706962103226  1.0000
  O   O5        1.0  0.33838739242923305  0.1021171065024689  0.1956308269125344  1.0000
  O   O6        1.0  0.6616095404064666  0.8978892654751005  0.8043636833368738  1.0000
  O   O7        1.0  0.49867669695886  0.28894901667413114  0.1512392936848954  1.0000
  O   O8        1.0  0.5013156174975107  0.7110487213450082  0.8487471613640737  1.0000
  O   O9        1.0  0.07473583817897383  0.3930973931291957  0.10084943757211559  1.0000
  O   O10       1.0  0.9252695068042623  0.6069120532056684  0.8991453618067097  1.0000
  O   O11       1.0  0.31320303841533104  0.5943160772895482  0.19756837790862392  1.0000
  O   O12       1.0  0.6868012570465039  0.4056752416898561  0.8024395978610527  1.0000
