data_image0
_chemical_formula_structural       Cu2H16C16N28
_chemical_formula_sum              "Cu2 H16 C16 N28"
_cell_length_a       6.142897241017872
_cell_length_b       9.790003357578414
_cell_length_c       10.054766029586423
_cell_angle_alpha    90.7317360794942
_cell_angle_beta     90.0002672553558
_cell_angle_gamma    89.99992890718403

_space_group_name_H-M_alt    "P 1"
_space_group_IT_number       1

loop_
  _space_group_symop_operation_xyz
  'x, y, z'

loop_
  _atom_site_type_symbol
  _atom_site_label
  _atom_site_symmetry_multiplicity
  _atom_site_fract_x
  _atom_site_fract_y
  _atom_site_fract_z
  _atom_site_occupancy
  Cu  Cu1       1.0  0.4999985657448179  0.9999991984801324  0.5000003778929811  1.0000
  Cu  Cu2       1.0  3.6868584345e-06  4.753691479055957e-08  0.999999692819799  1.0000
  H   H1        1.0  0.1525908060421628  0.8743817311610725  0.42869435007352064  1.0000
  H   H2        1.0  0.6525894885114029  0.12562566790104768  0.07130590963873122  1.0000
  H   H3        1.0  0.8474049440220385  0.1256158870485038  0.5713080209518325  1.0000
  H   H4        1.0  0.3474209125929735  0.8743792614381077  0.9286928607794211  1.0000
  H   H5        1.0  0.1302223861330134  0.9189647039237128  0.5880189220163958  1.0000
  H   H6        1.0  0.6302221198767697  0.0810437643140247  0.9119810177731086  1.0000
  H   H7        1.0  0.8697733639168419  0.08103708019422126  0.4119816752816377  1.0000
  H   H8        1.0  0.3697817696562495  0.91895499932383  0.08801842680252751  1.0000
  H   H9        1.0  0.49666475284741557  0.47118789081635265  0.7049287227308059  1.0000
  H   H10       1.0  0.996673341243053  0.5288132922788904  0.7950749042808101  1.0000
  H   H11       1.0  0.5033196019725565  0.5288113945422096  0.29508269353360833  1.0000
  H   H12       1.0  0.0033403156847456004  0.4711842843497606  0.20492845998287387  1.0000
  H   H13       1.0  0.8445270963481378  0.5740898140285109  0.4318340171805063  1.0000
  H   H14       1.0  0.34454859929293485  0.4259042663566389  0.06816711009026481  1.0000
  H   H15       1.0  0.15545563055304976  0.42590972081335093  0.5681714398098026  1.0000
  H   H16       1.0  0.6554683133942093  0.5740956842899292  0.9318284148308964  1.0000
  C   C1        1.0  0.6141982437524902  0.7755403226765196  0.6899746333158279  1.0000
  C   C2        1.0  0.11420275050971904  0.22445896006162508  0.8100247806952013  1.0000
  C   C3        1.0  0.3857942505152749  0.22445733711367666  0.31002674449277384  1.0000
  C   C4        1.0  0.8857978832173571  0.7755389492116506  0.18997063785368346  1.0000
  C   C5        1.0  0.4402005247140437  0.6899215026153129  0.6416685292272251  1.0000
  C   C6        1.0  0.9402055158579686  0.31008164109523756  0.858337024168684  1.0000
  C   C7        1.0  0.5597822021925936  0.31007696995919076  0.3583378678008914  1.0000
  C   C8        1.0  0.0598048852397284  0.6899163513389154  0.14165640797068596  1.0000
  C   C9        1.0  0.26905287925740856  0.7338418061807911  0.5580681737917672  1.0000
  C   C10       1.0  0.7690619072737306  0.2661644484533879  0.9419360416014374  1.0000
  C   C11       1.0  0.7309396150034856  0.26615993635666507  0.44193341671341835  1.0000
  C   C12       1.0  0.23094523804683584  0.7338373772448462  0.058063562501431  1.0000
  C   C13       1.0  0.40667756234277874  0.5496592137471976  0.6536766273612644  1.0000
  C   C14       1.0  0.9066851949027921  0.450345243140397  0.8463219279472229  1.0000
  C   C15       1.0  0.5932953971734349  0.4503444038421378  0.3463290423112398  1.0000
  C   C16       1.0  0.09333008987911741  0.5496578111471989  0.15367276328202456  1.0000
  N   N1        1.0  0.6715078906074439  0.8926394053695003  0.6290344536152761  1.0000
  N   N2        1.0  0.17150514621096852  0.1073598749301397  0.8709651292588633  1.0000
  N   N3        1.0  0.32849111524370045  0.1073572753142784  0.370965877816822  1.0000
  N   N4        1.0  0.8285019991127313  0.8926379096013689  0.12903326893546566  1.0000
  N   N5        1.0  0.8399497402001261  0.9446757625104355  0.6984568497160597  1.0000
  N   N6        1.0  0.33994505107385464  0.05532355220221057  0.8015422362892581  1.0000
  N   N7        1.0  0.16005089353786423  0.05532002222812338  0.3015404489084333  1.0000
  N   N8        1.0  0.6600604663552118  0.9446732116425166  0.19845610872852867  1.0000
  N   N9        1.0  0.8828225403411809  0.8617356637888846  0.7978355203428793  1.0000
  N   N10       1.0  0.3828184354096038  0.1382635659383311  0.702165678420073  1.0000
  N   N11       1.0  0.11717646550622621  0.13826105847544304  0.20216381787726337  1.0000
  N   N12       1.0  0.6171935936086045  0.8617331563257121  0.29783365981926124  1.0000
  N   N13       1.0  0.7434943399556461  0.7552395778069964  0.7958954941172751  1.0000
  N   N14       1.0  0.24349310589506962  0.24476267832879015  0.7041064468272185  1.0000
  N   N15       1.0  0.25649978220331354  0.24476114404360771  0.20410604321616432  1.0000
  N   N16       1.0  0.7565205510120095  0.7552341270963082  0.29589090499061405  1.0000
  N   N17       1.0  0.22951827114189882  0.5195596723563439  0.5800409185136461  1.0000
  N   N18       1.0  0.7295361012276373  0.48044662554047324  0.9199621871843178  1.0000
  N   N19       1.0  0.7704742231383079  0.480445861864581  0.41996783717178243  1.0000
  N   N20       1.0  0.27047267196745395  0.5195594492271666  0.08003365676972152  1.0000
  N   N21       1.0  0.140426334993272  0.6299998532700498  0.5210001863804054  1.0000
  N   N22       1.0  0.6404368749464667  0.3700095520589883  0.97900182309094  1.0000
  N   N23       1.0  0.8595629034939236  0.3700036811578541  0.47900746973998326  1.0000
  N   N24       1.0  0.3595751540389997  0.6299935438092205  0.020991874921556106  1.0000
  N   N25       1.0  0.22976482917406568  0.8706761948482936  0.5192590029270863  1.0000
  N   N26       1.0  0.7297697726257367  0.12932602029104595  0.9807438907818384  1.0000
  N   N27       1.0  0.7702292929866131  0.12932350631550085  0.48074248123220553  1.0000
  N   N28       1.0  0.2702406284852046  0.8706728265077569  0.019253567379486494  1.0000
