data_image0
_chemical_formula_structural       CuH16C16N4O4
_chemical_formula_sum              "Cu1 H16 C16 N4 O4"
_cell_length_a       7.952215468593512
_cell_length_b       7.441710733888695
_cell_length_c       8.383082441258182
_cell_angle_alpha    105.59607499025537
_cell_angle_beta     92.6470151401568
_cell_angle_gamma    116.03769420803278

_space_group_name_H-M_alt    "P 1"
_space_group_IT_number       1

loop_
  _space_group_symop_operation_xyz
  'x, y, z'

loop_
  _atom_site_type_symbol
  _atom_site_label
  _atom_site_symmetry_multiplicity
  _atom_site_fract_x
  _atom_site_fract_y
  _atom_site_fract_z
  _atom_site_occupancy
  Cu  Cu1       1.0  0.49999445548073856  0.4999987653218341  0.5000137304156314  1.0000
  H   H1        1.0  0.41348199954546067  0.040715266000432807  0.2961947581754886  1.0000
  H   H2        1.0  0.5865015969922991  0.9592832121106907  0.7038118623233703  1.0000
  H   H3        1.0  0.2701969992518799  0.8070777282745071  0.9970700067367352  1.0000
  H   H4        1.0  0.7297795812858751  0.1928958740326649  0.0029098028025344776  1.0000
  H   H5        1.0  0.15385938343529662  0.9420053043403982  0.7967684303455517  1.0000
  H   H6        1.0  0.8461528971495085  0.058013247885028776  0.2032236664879293  1.0000
  H   H7        1.0  0.18846372273952736  0.3072875269614386  0.9014088971030465  1.0000
  H   H8        1.0  0.811537156575902  0.692720112180268  0.09860982825213682  1.0000
  H   H9        1.0  0.43178733712411344  0.6795932513139393  0.15891707798626714  1.0000
  H   H10       1.0  0.5682502575638039  0.3203874422736063  0.8410857747271056  1.0000
  H   H11       1.0  0.1976822126922571  0.5786482309286356  0.2016435110193414  1.0000
  H   H12       1.0  0.802356558692928  0.42138996373333276  0.7983564766522238  1.0000
  H   H13       1.0  0.31974919864681794  0.7084897880859415  0.4719204561441688  1.0000
  H   H14       1.0  0.6802422717321832  0.291499849197649  0.5280783716312458  1.0000
  H   H15       1.0  0.5363077420000124  0.8200134109541181  0.4290000274659251  1.0000
  H   H16       1.0  0.46368112516031357  0.18000613080208444  0.5710181446755558  1.0000
  C   C1        1.0  0.35990116816251566  0.09280312283711821  0.20542508026600367  1.0000
  C   C2        1.0  0.6401005391348065  0.9071933270812168  0.7945953605392407  1.0000
  C   C3        1.0  0.27978330138052604  0.9635513453524212  0.039373401017414315  1.0000
  C   C4        1.0  0.7202214261862848  0.036446670670997626  0.9606500793326876  1.0000
  C   C5        1.0  0.2147833857393095  0.03892529826934781  0.9279907538819079  1.0000
  C   C6        1.0  0.7852168879578159  0.9610967504679663  0.07202685247407457  1.0000
  C   C7        1.0  0.233138405456863  0.24150082631866346  0.9865585862194027  1.0000
  C   C8        1.0  0.7668684488816453  0.7585091064991973  0.013448095610208106  1.0000
  C   C9        1.0  0.31253587411021744  0.3615516005239385  0.15583943277541587  1.0000
  C   C10       1.0  0.6874680627844825  0.6384291736371708  0.8441569476038358  1.0000
  C   C11       1.0  0.3360739446233935  0.5812884369206016  0.2268967905431866  1.0000
  C   C12       1.0  0.6639351150430953  0.4187481784740328  0.7731005042200539  1.0000
  C   C13       1.0  0.08986490501644076  0.16442078223439444  0.5547541170986893  1.0000
  C   C14       1.0  0.9100976279262839  0.8355543491970748  0.4452062889676755  1.0000
  C   C15       1.0  0.8835842243414546  0.027570451846557403  0.4852317121917625  1.0000
  C   C16       1.0  0.11641074956791897  0.9724135872766907  0.5147545739838153  1.0000
  N   N1        1.0  0.3746847295334135  0.2874609337872585  0.2629912462179791  1.0000
  N   N2        1.0  0.6253206735336152  0.7125285160246833  0.7370212194987577  1.0000
  N   N3        1.0  0.41567120309488814  0.6747708934529018  0.4084936552839766  1.0000
  N   N4        1.0  0.5843304750372482  0.3252086104964462  0.5915070169834707  1.0000
  O   O1        1.0  0.19679013084775218  0.35965134651431896  0.6206783689241749  1.0000
  O   O2        1.0  0.8032009473372528  0.6403198486124995  0.3792680421436433  1.0000
  O   O3        1.0  0.7415433116277227  0.05978881912347592  0.4650565368959933  1.0000
  O   O4        1.0  0.2584421023523903  0.9402218169557274  0.5349380811633753  1.0000
