data_image0
_chemical_formula_structural       Ag2H22C34N8O10
_chemical_formula_sum              "Ag2 H22 C34 N8 O10"
_cell_length_a       7.559982475391242
_cell_length_b       8.08160566373735
_cell_length_c       14.03234281033444
_cell_angle_alpha    74.74277348580254
_cell_angle_beta     79.45024523568793
_cell_angle_gamma    73.38844923249319

_space_group_name_H-M_alt    "P 1"
_space_group_IT_number       1

loop_
  _space_group_symop_operation_xyz
  'x, y, z'

loop_
  _atom_site_type_symbol
  _atom_site_label
  _atom_site_symmetry_multiplicity
  _atom_site_fract_x
  _atom_site_fract_y
  _atom_site_fract_z
  _atom_site_occupancy
  Ag  Ag1       1.0  0.3814312202889667  0.3614481464761283  0.5190117706627149  1.0000
  Ag  Ag2       1.0  0.6185615752961837  0.6385614228449086  0.48098687927802797  1.0000
  H   H1        1.0  0.4874827811106356  0.4906274600595992  0.29734711009369624  1.0000
  H   H2        1.0  0.512512840138463  0.5093714234837564  0.7026501254886386  1.0000
  H   H3        1.0  0.9528946116968838  0.09221613595727972  0.20089718479444948  1.0000
  H   H4        1.0  0.047103746678423916  0.9077777180633859  0.7991091386466355  1.0000
  H   H5        1.0  0.9272760868838931  0.9054042035896331  0.3736449145152038  1.0000
  H   H6        1.0  0.07271845390366852  0.09459900745773099  0.6263631367372897  1.0000
  H   H7        1.0  0.6741984292339893  0.025604677317886595  0.5010686006447713  1.0000
  H   H8        1.0  0.3257966868804303  0.9744064678435933  0.49893740289076055  1.0000
  H   H9        1.0  0.7903861228730166  0.6824442886834136  0.9716165572000719  1.0000
  H   H10       1.0  0.20962271392301096  0.31754546518759236  0.028384385461904988  1.0000
  H   H11       1.0  0.5309529339124595  0.9232727937847045  0.8926206092680644  1.0000
  H   H12       1.0  0.4690571803151898  0.0767222890326948  0.10738006007750303  1.0000
  H   H13       1.0  0.200589629109821  0.9315468755869601  0.9723548058739054  1.0000
  H   H14       1.0  0.7994200685208811  0.06845481259357199  0.027644129207715192  1.0000
  H   H15       1.0  0.8115484490353212  0.7646195931612637  0.2739345723563531  1.0000
  H   H16       1.0  0.18845312088246402  0.23538730707247882  0.7260622011680766  1.0000
  H   H17       1.0  0.28208222904434177  0.34280602529690896  0.21094164477076302  1.0000
  H   H18       1.0  0.7179150847962604  0.6571916039219374  0.7890577610891756  1.0000
  H   H19       1.0  0.19725697421188937  0.16183896401447126  0.37639297863690774  1.0000
  H   H20       1.0  0.8027335505807544  0.8381639697014123  0.6236069674032836  1.0000
  H   H21       1.0  0.9213563399116398  0.29592161041978216  0.4883033260648802  1.0000
  H   H22       1.0  0.07863751314187782  0.7040839848729732  0.5116958574865296  1.0000
  C   C1        1.0  0.5861412034705467  0.36157428990201607  0.3100388363741402  1.0000
  C   C2        1.0  0.4138550485904631  0.6384273796218097  0.689962163865282  1.0000
  C   C3        1.0  0.7204281156225248  0.30496557434577193  0.2344922491856281  1.0000
  C   C4        1.0  0.2795735767619548  0.695030852882823  0.7655104744464722  1.0000
  C   C5        1.0  0.8444705543004218  0.1377822787373688  0.2576881977013414  1.0000
  C   C6        1.0  0.1555274501483623  0.8622129220516186  0.7423186571995688  1.0000
  C   C7        1.0  0.8299701809689141  0.034185226483060695  0.3537603212743293  1.0000
  C   C8        1.0  0.170027402571705  0.9658166459457573  0.6462469273527774  1.0000
  C   C9        1.0  0.6924516694328134  0.0996844398212389  0.42441253010870383  1.0000
  C   C10       1.0  0.3075445070241187  0.9003226871274917  0.575592588377397  1.0000
  C   C11       1.0  0.7519023853883411  0.4171250628559661  0.13224991289948207  1.0000
  C   C12       1.0  0.248092940293425  0.5828699751376051  0.8677522478566148  1.0000
  C   C13       1.0  0.6011300847714764  0.5685362400178987  0.0882890177515563  1.0000
  C   C14       1.0  0.3988730247561918  0.43145477804515764  0.9117108707111896  1.0000
  C   C15       1.0  0.6455258755856336  0.6923839021570968  0.0025292948366839535  1.0000
  C   C16       1.0  0.35447956740495823  0.30760849291630166  0.9974715632503861  1.0000
  C   C17       1.0  0.5005897906588145  0.8252768001175071  0.9594108426436708  1.0000
  C   C18       1.0  0.4994199725164493  0.1747195852837535  0.04058893950161749  1.0000
  C   C19       1.0  0.3184560749797428  0.8301352203306533  0.002815178651914588  1.0000
  C   C20       1.0  0.6815496563928181  0.16986113075369494  0.9971843009116486  1.0000
  C   C21       1.0  0.28794146660158754  0.7012446074142247  0.08895151093468458  1.0000
  C   C22       1.0  0.7120615788185917  0.2987516913358732  0.9110468211343277  1.0000
  C   C23       1.0  0.09382724319048205  0.7053903870608877  0.13765377359578682  1.0000
  C   C24       1.0  0.9061798354694801  0.29460592391388474  0.8623441517249051  1.0000
  C   C25       1.0  0.9023252940844202  0.6328372074200813  0.2959555417788594  1.0000
  C   C26       1.0  0.09767230957521635  0.36716435571747746  0.7040417762275271  1.0000
  C   C27       1.0  0.05856067310820379  0.5729399847703646  0.23158546567110966  1.0000
  C   C28       1.0  0.9414365780619748  0.42706290304328587  0.7684116744650566  1.0000
  C   C29       1.0  0.16471255402348817  0.39871497498359787  0.2600361838973129  1.0000
  C   C30       1.0  0.835285403562672  0.6012852413856321  0.739960602649248  1.0000
  C   C31       1.0  0.11637627794716822  0.29737876409410546  0.3530120078652957  1.0000
  C   C32       1.0  0.8836152402063603  0.7026254762805308  0.6469869153918426  1.0000
  C   C33       1.0  0.9645048532338976  0.3695773845535086  0.41478778542972355  1.0000
  C   C34       1.0  0.035488651641386953  0.6304294691386403  0.5852090922613089  1.0000
  N   N1        1.0  0.573562726577933  0.2610094916795092  0.40307005427848014  1.0000
  N   N2        1.0  0.4264307696749158  0.7389974945660356  0.5969310793928602  1.0000
  N   N3        1.0  0.42643165092973573  0.5739718398869728  0.13100834192756144  1.0000
  N   N4        1.0  0.5735704011295653  0.4260231522043653  0.8689910129245109  1.0000
  N   N5        1.0  0.8565163833123534  0.534825909844116  0.3857554980366231  1.0000
  N   N6        1.0  0.1434811519285688  0.465181000257175  0.6142423915661865  1.0000
  N   N7        1.0  0.6623810188491673  0.1423404764614205  0.6871862970607909  1.0000
  N   N8        1.0  0.3376182788390381  0.8576598102593992  0.3128124818931539  1.0000
  O   O1        1.0  0.90504930630496  0.3810843632157274  0.08319512086159618  1.0000
  O   O2        1.0  0.09495953049106728  0.6189053906552786  0.9168058218003811  1.0000
  O   O3        1.0  0.9614123261784542  0.822693647510036  0.1037766862257072  1.0000
  O   O4        1.0  0.03858832598252349  0.17730648864004192  0.8962169918350896  1.0000
  O   O5        1.0  0.5325814658193266  0.09057659421866049  0.6658521044826458  1.0000
  O   O6        1.0  0.4674174765052753  0.9094250613627253  0.3341479152611698  1.0000
  O   O7        1.0  0.7185164912450972  0.27116838346048405  0.6271024707550766  1.0000
  O   O8        1.0  0.2814824539536573  0.7288332279364339  0.3728961303286341  1.0000
  O   O9        1.0  0.7348445854739795  0.06611421608796061  0.766309162330714  1.0000
  O   O10       1.0  0.2651557027009588  0.9338874214760863  0.23369001250027577  1.0000
