data_image0
_chemical_formula_structural       Li4H18C6S2N2O14
_chemical_formula_sum              "Li4 H18 C6 S2 N2 O14"
_cell_length_a       5.0096056181545086
_cell_length_b       9.02507581435448
_cell_length_c       9.798144621470067
_cell_angle_alpha    72.6526308592914
_cell_angle_beta     82.63666520468186
_cell_angle_gamma    89.30993579739837

_space_group_name_H-M_alt    "P 1"
_space_group_IT_number       1

loop_
  _space_group_symop_operation_xyz
  'x, y, z'

loop_
  _atom_site_type_symbol
  _atom_site_label
  _atom_site_symmetry_multiplicity
  _atom_site_fract_x
  _atom_site_fract_y
  _atom_site_fract_z
  _atom_site_occupancy
  Li  Li1       1.0  0.7775490910562228  0.10869447260827772  0.604887112260336  1.0000
  Li  Li2       1.0  0.22245541418217135  0.8913145756181822  0.3951055865574346  1.0000
  Li  Li3       1.0  0.7491653270249543  0.7516714506030059  0.2804521693049437  1.0000
  Li  Li4       1.0  0.25083633740612754  0.24832167786446752  0.7195527931751968  1.0000
  H   H1        1.0  0.3522662487933772  0.8918187386095155  0.7658749745119238  1.0000
  H   H2        1.0  0.6477258515478114  0.1081836499265734  0.23412674450038654  1.0000
  H   H3        1.0  0.029287051977853213  0.8535576887160661  0.7547449663692236  1.0000
  H   H4        1.0  0.9707089298789101  0.1464422782945931  0.24525519829866482  1.0000
  H   H5        1.0  0.6347484180552173  0.4704780439863329  0.3354278814745157  1.0000
  H   H6        1.0  0.3652493946304389  0.5295184831543694  0.6645742455608925  1.0000
  H   H7        1.0  0.2566288157007151  0.6212160512045487  0.873434323649967  1.0000
  H   H8        1.0  0.7433732670738635  0.37878506234599746  0.1265650771334847  1.0000
  H   H9        1.0  0.9802649793490804  0.6644203726807376  0.9873779330521447  1.0000
  H   H10       1.0  0.019736888143590602  0.33557712239732507  0.012619537002329673  1.0000
  H   H11       1.0  0.38696546743771176  0.5904192282412881  0.11609043501666594  1.0000
  H   H12       1.0  0.6130323116555659  0.4095771156916612  0.8839076653263549  1.0000
  H   H13       1.0  0.5711446447874665  0.7503418161091346  0.9923040777424533  1.0000
  H   H14       1.0  0.4288531930924864  0.24965484843739472  0.007701069312247455  1.0000
  H   H15       1.0  0.951429369155811  0.4742319265606981  0.32872689900248286  1.0000
  H   H16       1.0  0.0485724517705108  0.5257644997656853  0.6712729474949555  1.0000
  H   H17       1.0  0.09772193617766331  0.9416847879307256  0.8740202798149284  1.0000
  H   H18       1.0  0.9022799397130971  0.058312752949277104  0.12597819691264078  1.0000
  C   C1        1.0  0.2596153956685399  0.8075704862923845  0.13928938468571764  1.0000
  C   C2        1.0  0.7403741134932675  0.19242141784698671  0.860714729120325  1.0000
  C   C3        1.0  0.3668109869045821  0.7083809463691894  0.04380275862862956  1.0000
  C   C4        1.0  0.6331868257810811  0.29161558077151994  0.9561993684067788  1.0000
  C   C5        1.0  0.18426393208537922  0.7018666211109305  0.9335583192934963  1.0000
  C   C6        1.0  0.8157399983142926  0.29813114417355285  0.06644505720367279  1.0000
  S   S1        1.0  0.6739139763485796  0.777684798836198  0.5805149029320731  1.0000
  S   S2        1.0  0.3260885713358377  0.22232536854909313  0.41947655971171843  1.0000
  N   N1        1.0  0.1661209768265834  0.8569778639184734  0.8261221047748323  1.0000
  N   N2        1.0  0.8338727856279391  0.1430185350268616  0.17387726943306353  1.0000
  O   O1        1.0  0.38562067679252  0.7902311020390088  0.5602428097672528  1.0000
  O   O2        1.0  0.6143817357687168  0.20977669883323102  0.43974837239698433  1.0000
  O   O3        1.0  0.7328340656307476  0.8814262443630202  0.6691638492955148  1.0000
  O   O4        1.0  0.2671726422136942  0.11858628032488382  0.3308276266360579  1.0000
  O   O5        1.0  0.02675939944660402  0.862908305681714  0.12502662204420995  1.0000
  O   O6        1.0  0.9732443026971895  0.13708495558636  0.8749812268593332  1.0000
  O   O7        1.0  0.8433870117671631  0.8311539222987393  0.4366231319328904  1.0000
  O   O8        1.0  0.1566213536147458  0.16885177305643143  0.5633734090027148  1.0000
  O   O9        1.0  0.4042179222928795  0.827219610736563  0.23070436683512696  1.0000
  O   O10       1.0  0.5957856744978969  0.17277226116625855  0.7692988117997076  1.0000
  O   O11       1.0  0.7295227585887716  0.6148960951078949  0.6583015065646975  1.0000
  O   O12       1.0  0.27048181001216415  0.3851141134741169  0.3416908291563061  1.0000
  O   O13       1.0  0.7955206679537811  0.5386855550275628  0.29889770062754206  1.0000
  O   O14       1.0  0.20447915725030444  0.46131096750792017  0.7011042928119836  1.0000
