data_image0
_chemical_formula_structural       Zn2H40C50S4N8O8
_chemical_formula_sum              "Zn2 H40 C50 S4 N8 O8"
_cell_length_a       7.8703679037971845
_cell_length_b       11.540432587996834
_cell_length_c       15.105373731589998
_cell_angle_alpha    71.86228367575303
_cell_angle_beta     83.49432187501245
_cell_angle_gamma    74.72016112108854

_space_group_name_H-M_alt    "P 1"
_space_group_IT_number       1

loop_
  _space_group_symop_operation_xyz
  'x, y, z'

loop_
  _atom_site_type_symbol
  _atom_site_label
  _atom_site_symmetry_multiplicity
  _atom_site_fract_x
  _atom_site_fract_y
  _atom_site_fract_z
  _atom_site_occupancy
  Zn  Zn1       1.0  0.18435612887441274  0.38585666517018774  0.6862695929955436  1.0000
  Zn  Zn2       1.0  0.8156528615662992  0.6141432253176119  0.3137299520870299  1.0000
  H   H1        1.0  0.15342841589009032  0.6482036252943998  0.5434044332283392  1.0000
  H   H2        1.0  0.846553311566936  0.35179736476759865  0.45659257216988175  1.0000
  H   H3        1.0  0.996858245787699  0.8675827776140108  0.5427745739090782  1.0000
  H   H4        1.0  0.003120893968393513  0.13241823457147459  0.457220600835349  1.0000
  H   H5        1.0  0.7132480603715764  0.7058387969109671  0.7934686571330402  1.0000
  H   H6        1.0  0.2867597256528711  0.2941610748293826  0.20653692544822627  1.0000
  H   H7        1.0  0.8884741423214774  0.496279687727629  0.7861199301698888  1.0000
  H   H8        1.0  0.11152881169245889  0.5037192772324416  0.2138848430523551  1.0000
  H   H9        1.0  0.8525719666415907  0.994614799049877  0.653122549122095  1.0000
  H   H10       1.0  0.14742677520589353  0.00538514586421  0.3468776194317015  1.0000
  H   H11       1.0  0.6508148086724859  0.9790484986931458  0.6239749062336699  1.0000
  H   H12       1.0  0.34918042482635064  0.02095051844252539  0.376027685896524  1.0000
  H   H13       1.0  0.7787726218017215  0.8911257782191483  0.82399681403119  1.0000
  H   H14       1.0  0.22122802827984595  0.10887227770995618  0.17600434526876535  1.0000
  H   H15       1.0  0.571597631942119  0.8893570887643703  0.7913669706748863  1.0000
  H   H16       1.0  0.4284018234423783  0.11064471165533968  0.20863668648198794  1.0000
  H   H17       1.0  0.49326456742594615  0.1237974093578771  0.7290080618769039  1.0000
  H   H18       1.0  0.5067383877896604  0.8762053216792292  0.27099250952970516  1.0000
  H   H19       1.0  0.5383343191655641  0.06780262152796007  0.8494854562034816  1.0000
  H   H20       1.0  0.4616670030669783  0.9322010701786495  0.15051167901459903  1.0000
  H   H21       1.0  0.629456913345777  0.2817299496868839  0.6334868972110284  1.0000
  H   H22       1.0  0.3705495404992548  0.7182699458905756  0.3665147902609434  1.0000
  H   H23       1.0  0.8631788467599575  0.3974269479299152  0.6071923413115596  1.0000
  H   H24       1.0  0.136823163456981  0.6025786077992306  0.3928062959880164  1.0000
  H   H25       1.0  0.10730776272294663  0.16257324222977584  0.8512677669829853  1.0000
  H   H26       1.0  0.892696774370457  0.837428545171647  0.1487322675689597  1.0000
  H   H27       1.0  0.883649753587669  0.0343683121054283  0.885789794334947  1.0000
  H   H28       1.0  0.11635956320932189  0.965630633033072  0.11421127834845632  1.0000
  H   H29       1.0  0.4674199748660895  0.48747992133885276  0.3546431784087715  1.0000
  H   H30       1.0  0.5325860492104866  0.5125171875785383  0.645353237191621  1.0000
  H   H31       1.0  0.6434034549319279  0.3920519618673665  0.23496687007835243  1.0000
  H   H32       1.0  0.3566099450667153  0.607942279824641  0.7650330764811599  1.0000
  H   H33       1.0  0.44831560962161626  0.11430427926646297  0.5259384498366515  1.0000
  H   H34       1.0  0.5516805445249275  0.8856956877711109  0.4740598880633513  1.0000
  H   H35       1.0  0.870531684940289  0.3502181937587493  0.9413345616312013  1.0000
  H   H36       1.0  0.12946994541178472  0.6497807921994577  0.05866697865561579  1.0000
  H   H37       1.0  0.6411822001027899  0.3969805714127757  0.8224031125612256  1.0000
  H   H38       1.0  0.3588165940516106  0.6030231225445276  0.17759682722012118  1.0000
  H   H39       1.0  0.2746546526230062  0.2937092159846344  0.048071897762419276  1.0000
  H   H40       1.0  0.7253442193909476  0.7062982184989577  0.9519297997680879  1.0000
  C   C1        1.0  0.054775409711183415  0.666964084142151  0.5970235953273146  1.0000
  C   C2        1.0  0.9452078996236468  0.3330359622841711  0.4029728732162425  1.0000
  C   C3        1.0  0.9665241444701069  0.7878075789473369  0.5978473218725424  1.0000
  C   C4        1.0  0.033465269431850714  0.21219337029494761  0.4021492159222645  1.0000
  C   C5        1.0  0.8438131169283524  0.8068815571010216  0.6699955924929526  1.0000
  C   C6        1.0  0.1561865614002471  0.19311556595999943  0.33000584799400906  1.0000
  C   C7        1.0  0.8111927190429359  0.6991739509740922  0.7370954816602621  1.0000
  C   C8        1.0  0.18880892834421556  0.30082502930617483  0.2629073829742906  1.0000
  C   C9        1.0  0.9053982381429933  0.5812512392389165  0.7324874400984668  1.0000
  C   C10       1.0  0.09460600546263724  0.41874771607889727  0.2675179173637402  1.0000
  C   C11       1.0  0.755199576860846  0.9369751610212022  0.6754591246708654  1.0000
  C   C12       1.0  0.24479886418298238  0.06302572072528527  0.3245415028036902  1.0000
  C   C13       1.0  0.6762495697421684  0.9404524342002742  0.7720019093706866  1.0000
  C   C14       1.0  0.32375242223801587  0.05954936112977548  0.22799960539678918  1.0000
  C   C15       1.0  0.5983614715653617  0.07403522013741787  0.77910912469045  1.0000
  C   C16       1.0  0.4016427562068543  0.9259675069353717  0.22089070660839374  1.0000
  C   C17       1.0  0.7360073180288681  0.14778643152537538  0.7620166595535948  1.0000
  C   C18       1.0  0.2639985171737821  0.8522153433948173  0.23798462141217414  1.0000
  C   C19       1.0  0.7344596036680356  0.25083232752089657  0.6828331638763956  1.0000
  C   C20       1.0  0.26554849287926885  0.7491703706251156  0.3171684201423374  1.0000
  C   C21       1.0  0.8654251309749909  0.3157037457111683  0.6680935280869845  1.0000
  C   C22       1.0  0.1345784076111585  0.6842933512620561  0.3319090029459986  1.0000
  C   C23       1.0  0.0006762522867945161  0.18388663314151896  0.8042115195423563  1.0000
  C   C24       1.0  0.9993279487311286  0.8161123363711552  0.19579052705052644  1.0000
  C   C25       1.0  0.8743190493659013  0.11437405694467627  0.8230743865718961  1.0000
  C   C26       1.0  0.12568354422158012  0.8856258647205876  0.17692621035405412  1.0000
  C   C27       1.0  0.3460126488093352  0.36336016841855917  0.5234086808604701  1.0000
  C   C28       1.0  0.6539760771082258  0.6366389168011962  0.47658635485284867  1.0000
  C   C29       1.0  0.4474338145275781  0.3080684508933372  0.4504899566542234  1.0000
  C   C30       1.0  0.5525648932497377  0.6919315053766437  0.5495075632041022  1.0000
  C   C31       1.0  0.5011389954548519  0.38616935232417393  0.36670940692751935  1.0000
  C   C32       1.0  0.4988647928296927  0.6138268248504771  0.6332886921415124  1.0000
  C   C33       1.0  0.5990122536454975  0.3336811974194163  0.30030586312164326  1.0000
  C   C34       1.0  0.40099769031142074  0.6663158655373776  0.6996962782418308  1.0000
  C   C35       1.0  0.642688683298367  0.20278574651121764  0.3216581500336204  1.0000
  C   C36       1.0  0.3573164554023478  0.7972141672254193  0.6783409666767922  1.0000
  C   C37       1.0  0.49340283752649566  0.1782245238406475  0.4632325037968597  1.0000
  C   C38       1.0  0.5065968152494803  0.8217726077372942  0.5367669501685056  1.0000
  C   C39       1.0  0.6883563019508044  0.29273638174253586  0.05639076451545579  1.0000
  C   C40       1.0  0.31164311084598506  0.7072654328720275  0.9436095817720939  1.0000
  C   C41       1.0  0.7365465631587895  0.33976343265700837  0.9621343208263298  1.0000
  C   C42       1.0  0.2634532283012021  0.6602411856514577  0.0378673242896141  1.0000
  C   C43       1.0  0.610166310126928  0.3654814959193117  0.8968425269960176  1.0000
  C   C44       1.0  0.38982867607684574  0.6345259731689977  0.10315609346686472  1.0000
  C   C45       1.0  0.44177435201645926  0.3462544196639214  0.9266690757031454  1.0000
  C   C46       1.0  0.5582284645151318  0.6537408246426536  0.0733293045528853  1.0000
  C   C47       1.0  0.4063434072659148  0.3060224320573325  0.022699356908766816  1.0000
  C   C48       1.0  0.593658153744144  0.6939728105356192  0.9773010878027576  1.0000
  C   C49       1.0  0.3042838789516935  0.36030735999969465  0.860313049471415  1.0000
  C   C50       1.0  0.695713538032251  0.6396888398355072  0.13968808796258975  1.0000
  S   S1        1.0  0.7764124277226826  0.1170676644561226  0.2487392821601375  1.0000
  S   S2        1.0  0.22359166016384796  0.8829238098090996  0.7512625598037628  1.0000
  S   S3        1.0  0.8572918548831651  0.24749232093375878  0.13901532260118904  1.0000
  S   S4        1.0  0.14270653385374032  0.752504811769519  0.8609855336458095  1.0000
  N   N1        1.0  0.9962583860540093  0.2835646791429837  0.7279603111726444  1.0000
  N   N2        1.0  0.0037449125529534573  0.7164371008668693  0.27204311218253  1.0000
  N   N3        1.0  0.027209257054110505  0.5642505275144457  0.6644949441900394  1.0000
  N   N4        1.0  0.9727853492847984  0.435750371802932  0.3355065792600839  1.0000
  N   N5        1.0  0.5267411339386071  0.2789605625910454  0.08678138729072764  1.0000
  N   N6        1.0  0.4732538084757891  0.7210431546150815  0.9132181241184651  1.0000
  N   N7        1.0  0.5909964000517645  0.1256990100778026  0.40050296006675973  1.0000
  N   N8        1.0  0.4090055311039579  0.8742990390480112  0.599498121299291  1.0000
  O   O1        1.0  0.36042598124242897  0.3745438210483555  0.7741355052516068  1.0000
  O   O2        1.0  0.6395736970861775  0.6254533020126729  0.2258659352353476  1.0000
  O   O3        1.0  0.15086019233295644  0.3544982517778478  0.8899958469308726  1.0000
  O   O4        1.0  0.8491334957615847  0.6455092297916848  0.1100015271181789  1.0000
  O   O5        1.0  0.31996644016189885  0.28514235638896673  0.6035087797251535  1.0000
  O   O6        1.0  0.680042489454351  0.7148537878946043  0.3964903319560023  1.0000
  O   O7        1.0  0.29282396888839923  0.48034284563208013  0.5063366584848409  1.0000
  O   O8        1.0  0.7071358343081117  0.5196545422712616  0.49365461664963567  1.0000
