data_image0
_chemical_formula_structural       H24Pb2C40N12O16
_chemical_formula_sum              "H24 Pb2 C40 N12 O16"
_cell_length_a       7.377023274964559
_cell_length_b       8.529654558829419
_cell_length_c       18.206180725930853
_cell_angle_alpha    86.35174134631299
_cell_angle_beta     81.56512815289243
_cell_angle_gamma    64.43426641864785

_space_group_name_H-M_alt    "P 1"
_space_group_IT_number       1

loop_
  _space_group_symop_operation_xyz
  'x, y, z'

loop_
  _atom_site_type_symbol
  _atom_site_label
  _atom_site_symmetry_multiplicity
  _atom_site_fract_x
  _atom_site_fract_y
  _atom_site_fract_z
  _atom_site_occupancy
  H   H1        1.0  0.9366005579299495  0.9044300531240099  0.4191972303070911  1.0000
  H   H2        1.0  0.1588419041213882  0.9045909380754437  0.08093090440490155  1.0000
  H   H3        1.0  0.0634243670810264  0.09555062261262041  0.5808018516229436  1.0000
  H   H4        1.0  0.8411040263527239  0.095436469010771  0.9190875139715682  1.0000
  H   H5        1.0  0.6922192446236578  0.5726808706992585  0.9594368007351758  1.0000
  H   H6        1.0  0.7355003919326393  0.5725021791442445  0.5405577978413516  1.0000
  H   H7        1.0  0.3077712184841842  0.42733878696433447  0.04056140507199048  1.0000
  H   H8        1.0  0.26452665034337736  0.4274967046034277  0.45943576758925514  1.0000
  H   H9        1.0  0.7079804133490057  0.9533326103987606  0.09179790802490116  1.0000
  H   H10       1.0  0.33844564079428335  0.9534263000780855  0.40857547252049625  1.0000
  H   H11       1.0  0.2919737439877609  0.046687007332891994  0.9082158923958228  1.0000
  H   H12       1.0  0.6615086091565417  0.04656861958353892  0.5914373039483463  1.0000
  H   H13       1.0  0.6350851787558224  0.859999833412232  0.974436856230646  1.0000
  H   H14       1.0  0.5056273857635387  0.8596915943733378  0.5257230660779085  1.0000
  H   H15       1.0  0.3648579372591739  0.14003668150733967  0.02557433239821449  1.0000
  H   H16       1.0  0.49437696964616146  0.14029426471498851  0.4742802334407583  1.0000
  H   H17       1.0  0.8178474683865956  0.3521356844113159  0.04762999052484667  1.0000
  H   H18       1.0  0.8289735588992003  0.3519862977719867  0.452414654809054  1.0000
  H   H19       1.0  0.18215425413634984  0.6478787915462334  0.952358980597445  1.0000
  H   H20       1.0  0.17105586664049327  0.6480164932495783  0.5475742940457449  1.0000
  H   H21       1.0  0.8962852327292907  0.42258013850248227  0.1679291956853248  1.0000
  H   H22       1.0  0.6792486967671536  0.42276624384147965  0.3323607697857795  1.0000
  H   H23       1.0  0.1037331330630876  0.577414848673179  0.8320583207066219  1.0000
  H   H24       1.0  0.32075564248302146  0.5772339226524964  0.6676366724272567  1.0000
  Pb  Pb1       1.0  0.3319172055743921  0.33528434477523217  0.2501538239234903  1.0000
  Pb  Pb2       1.0  0.6681741543750305  0.6647327633724062  0.7498469715261817  1.0000
  C   C1        1.0  0.06252360081860771  0.6359160363170775  0.3786438222750518  1.0000
  C   C2        1.0  0.3008838112816005  0.6360701901671889  0.12152674858833017  1.0000
  C   C3        1.0  0.9375069533266396  0.36407895456444817  0.6213458167960081  1.0000
  C   C4        1.0  0.6991275707058692  0.3639299856303849  0.878466487093149  1.0000
  C   C5        1.0  0.9571960292887742  0.7178294852031896  0.31411328188312365  1.0000
  C   C6        1.0  0.3238936833693133  0.7179994986041436  0.18616333206260544  1.0000
  C   C7        1.0  0.04282067363475042  0.2821628951473656  0.6858787810799496  1.0000
  C   C8        1.0  0.6761090207719035  0.28199806180565906  0.8138381059013395  1.0000
  C   C9        1.0  0.8334441019559762  0.8955334885968541  0.2991991568958808  1.0000
  C   C10       1.0  0.26982558078546476  0.8957376653223508  0.2011532211728734  1.0000
  C   C11       1.0  0.1665539203002026  0.10445497830375673  0.7007956104378719  1.0000
  C   C12       1.0  0.7301492699391332  0.10425726817211971  0.7988574012855306  1.0000
  C   C13       1.0  0.7671899772710447  0.05197107704147899  0.3444697460065738  1.0000
  C   C14       1.0  0.1797084448041701  0.0522415360662549  0.1559146634174055  1.0000
  C   C15       1.0  0.2328255854465553  0.9480147953025265  0.655528034866087  1.0000
  C   C16       1.0  0.82024409300989  0.9477780741735131  0.8441041645433242  1.0000
  C   C17       1.0  0.8502596455764648  0.7406121568491458  0.20819852310656722  1.0000
  C   C18       1.0  0.40786981533133126  0.7407477187930596  0.2921366799870383  1.0000
  C   C19       1.0  0.1497485582338668  0.25937501470797036  0.7917968546083072  1.0000
  C   C20       1.0  0.5921066427423155  0.25924982004464425  0.7078704975406819  1.0000
  C   C21       1.0  0.8071002241294918  0.6946215009414658  0.13963457843568955  1.0000
  C   C22       1.0  0.49722416232781774  0.6947458353917071  0.3606760519216151  1.0000
  C   C23       1.0  0.19290251312011003  0.3053630694707294  0.860359497301857  1.0000
  C   C24       1.0  0.5027592707896743  0.3052543091190359  0.63932960332432  1.0000
  C   C25       1.0  0.7299437978531105  0.8204540489667522  0.08439226343514855  1.0000
  C   C26       1.0  0.44918839020585466  0.8205016151383548  0.41588670790684984  1.0000
  C   C27       1.0  0.2700320854503956  0.17955258601410412  0.9156174587929794  1.0000
  C   C28       1.0  0.55078620328117  0.17949982479832735  0.5841188176201867  1.0000
  C   C29       1.0  0.6888595852418008  0.7719757028307369  0.020266694019376495  1.0000
  C   C30       1.0  0.539267105710131  0.7718086459229027  0.4798976622703248  1.0000
  C   C31       1.0  0.31109104065361487  0.22805691872910222  0.9797425610568378  1.0000
  C   C32       1.0  0.46074045222401594  0.22818502170321156  0.5201003299963032  1.0000
  C   C33       1.0  0.7953579188984747  0.48196212765795116  0.061561451548250455  1.0000
  C   C34       1.0  0.7219009254468957  0.4818900240196058  0.43856631646992356  1.0000
  C   C35       1.0  0.204645232813746  0.5180406410505684  0.9384337876905487  1.0000
  C   C36       1.0  0.27811928399737695  0.5181114542033499  0.5614286315397832  1.0000
  C   C37       1.0  0.8375716845892853  0.5236339649210677  0.12702048142671873  1.0000
  C   C38       1.0  0.6374729367757866  0.5237537988256805  0.3732329229751129  1.0000
  C   C39       1.0  0.16244929394444085  0.4763584223453421  0.8729680661410196  1.0000
  C   C40       1.0  0.3625347789567001  0.47624766754103826  0.6267659613779271  1.0000
  N   N1        1.0  0.9662607352271377  0.621055226628414  0.25598930807709047  1.0000
  N   N2        1.0  0.41156050399688837  0.6211607410795923  0.24428463369688552  1.0000
  N   N3        1.0  0.03376493395269608  0.3789384598522504  0.7440017131130927  1.0000
  N   N4        1.0  0.5884551176530977  0.37883032918990983  0.7557146599337583  1.0000
  N   N5        1.0  0.7690370051842801  0.9071196161088722  0.23210736943133975  1.0000
  N   N6        1.0  0.32259041219349155  0.9072809033292657  0.2682637245770251  1.0000
  N   N7        1.0  0.23096019781112892  0.09286494952784351  0.7678880885786509  1.0000
  N   N8        1.0  0.6773734810623251  0.0927140235780257  0.7317474591453672  1.0000
  N   N9        1.0  0.7223112502012581  0.6058512117216636  0.009959338340919983  1.0000
  N   N10       1.0  0.6717961364944357  0.6056865611229015  0.4901212142087059  1.0000
  N   N11       1.0  0.27766944297574975  0.39416583714020703  0.9900416317044782  1.0000
  N   N12       1.0  0.32823165393630643  0.39431362381449736  0.5098717303970088  1.0000
  O   O1        1.0  0.1713069395639264  0.4706867307663886  0.3784977813565006  1.0000
  O   O2        1.0  0.35724062670536927  0.47080990103727066  0.12168947072843385  1.0000
  O   O3        1.0  0.8287612501024383  0.5293108979808564  0.6214783263725534  1.0000
  O   O4        1.0  0.6427975240125929  0.5291863951509654  0.8782991967277379  1.0000
  O   O5        1.0  0.042952715680577486  0.729623069286852  0.4339497158871664  1.0000
  O   O6        1.0  0.22733079873991333  0.7297279635746039  0.06612428442595329  1.0000
  O   O7        1.0  0.9570774152409809  0.2703615175932939  0.5660429566903955  1.0000
  O   O8        1.0  0.7726606785212908  0.27027869454155956  0.9338742004799412  1.0000
  O   O9        1.0  0.8444075334065604  0.038373985632681205  0.40681553490806965  1.0000
  O   O10       1.0  0.11688509770294789  0.03854841955241282  0.09339872679015568  1.0000
  O   O11       1.0  0.15561734484568737  0.9615988943271104  0.5931804516546604  1.0000
  O   O12       1.0  0.8830400498517361  0.9614763706630073  0.9066241187289914  1.0000
  O   O13       1.0  0.6382666959671468  0.19610518589287548  0.32603301831804277  1.0000
  O   O14       1.0  0.16396798933531895  0.1965432681612427  0.17447463488623774  1.0000
  O   O15       1.0  0.3617729584587225  0.8038871995641089  0.6739644618017163  1.0000
  O   O16       1.0  0.8359992872279844  0.8034633515060179  0.8255432197730027  1.0000
