data_image0
_chemical_formula_structural       Cd4H36C52N4O20
_chemical_formula_sum              "Cd4 H36 C52 N4 O20"
_cell_length_a       6.946202257611356
_cell_length_b       10.24526867857663
_cell_length_c       20.706
_cell_angle_alpha    89.61192267836189
_cell_angle_beta     88.85528714779281
_cell_angle_gamma    70.18424235444493

_space_group_name_H-M_alt    "P 1"
_space_group_IT_number       1

loop_
  _space_group_symop_operation_xyz
  'x, y, z'

loop_
  _atom_site_type_symbol
  _atom_site_label
  _atom_site_symmetry_multiplicity
  _atom_site_fract_x
  _atom_site_fract_y
  _atom_site_fract_z
  _atom_site_occupancy
  Cd  Cd1       1.0  0.5025017514801532  0.2932099796712748  0.47211444095091076  1.0000
  Cd  Cd2       1.0  0.2040020647444436  0.2931280177430082  0.027914604701159404  1.0000
  Cd  Cd3       1.0  0.4974880939970844  0.7067888321920179  0.5278836026877158  1.0000
  Cd  Cd4       1.0  0.796003387243452  0.7068770190768561  0.9720866941452116  1.0000
  H   H1        1.0  0.2602174099252608  0.5946742517635286  0.2975120090741541  1.0000
  H   H2        1.0  0.14466128451680754  0.594684626691155  0.20260352303240134  1.0000
  H   H3        1.0  0.7397760039309559  0.4053318225491012  0.7024830885998413  1.0000
  H   H4        1.0  0.855349408414966  0.4053214476214677  0.7973967713092307  1.0000
  H   H5        1.0  0.02306394503136736  0.8108109690705163  0.47305248883585455  1.0000
  H   H6        1.0  0.16665192136235862  0.8106231828804482  0.0270652132229685  1.0000
  H   H7        1.0  0.97692532823379  0.18917746786514303  0.5269460763594509  1.0000
  H   H8        1.0  0.8333548542275293  0.1893849664177054  0.9729355833699956  1.0000
  H   H9        1.0  0.8886009755071171  0.030436925182812  0.2932742983522019  1.0000
  H   H10       1.0  0.08058417119976719  0.0304421126466323  0.2068103422014858  1.0000
  H   H11       1.0  0.11139307341804273  0.9695649991587629  0.7067261214434596  1.0000
  H   H12       1.0  0.9194033666436282  0.9695670741442869  0.7931896139398305  1.0000
  H   H13       1.0  0.5548768668978565  0.0586370159689906  0.7043021971220115  1.0000
  H   H14       1.0  0.3864747920743666  0.058565428968357494  0.7956189147477206  1.0000
  H   H15       1.0  0.4451277802360208  0.941363870879819  0.29569718921918314  1.0000
  H   H16       1.0  0.613529568953474  0.9414302704166388  0.20438290565492423  1.0000
  H   H17       1.0  0.5873855262712764  0.0709406426432579  0.585729079198778  1.0000
  H   H18       1.0  0.3417590463435544  0.0705837451328506  0.9141947465020765  1.0000
  H   H19       1.0  0.4126074851579346  0.9290633566838409  0.41427085764424737  1.0000
  H   H20       1.0  0.6582514768031443  0.9294140292376766  0.0858065426970285  1.0000
  H   H21       1.0  0.24326422451934337  0.48968309664455495  0.582854336313254  1.0000
  H   H22       1.0  0.26657091152478773  0.4894237234538537  0.917252759622187  1.0000
  H   H23       1.0  0.7567245834619455  0.5103177902042617  0.417148053890756  1.0000
  H   H24       1.0  0.7334474463056748  0.5105699009456259  0.0827494568814515  1.0000
  H   H25       1.0  0.2591629818082239  0.1005122988618865  0.4776133179862116  1.0000
  H   H26       1.0  0.640112264366678  0.1005662484855492  0.0223376638416397  1.0000
  H   H27       1.0  0.7408312997588734  0.899483400523117  0.5223885699677028  1.0000
  H   H28       1.0  0.3598895029212771  0.8994346383632603  0.9776631906553279  1.0000
  H   H29       1.0  0.1374782180415011  0.22420944849448426  0.4311867921810659  1.0000
  H   H30       1.0  0.6380652635744822  0.2241648363056825  0.0688385420145465  1.0000
  H   H31       1.0  0.8625117437567125  0.7757862508905191  0.5688151247233932  1.0000
  H   H32       1.0  0.3619409398033324  0.7758329380648448  0.9311632590869011  1.0000
  H   H33       1.0  0.18757830839312106  0.4947885985303841  0.7021006027482244  1.0000
  H   H34       1.0  0.3168580881337419  0.49483632319747534  0.7980108057081098  1.0000
  H   H35       1.0  0.8124201766218988  0.5052102133329015  0.2979012466037149  1.0000
  H   H36       1.0  0.6831592322007579  0.505159376187521  0.2019909278428926  1.0000
  C   C1        1.0  0.14937214026307538  0.6907398566439724  0.3885675295371271  1.0000
  C   C2        1.0  0.1599077986550198  0.6906568572229475  0.11152965340457403  1.0000
  C   C3        1.0  0.8506178215351311  0.3092558427410239  0.6114290748975222  1.0000
  C   C4        1.0  0.8400998981098622  0.3093523295679717  0.8884682358269843  1.0000
  C   C5        1.0  0.16852123574896172  0.6908415309347262  0.3212964797778497  1.0000
  C   C6        1.0  0.14043607589063348  0.6907886188038219  0.17879580467304385  1.0000
  C   C7        1.0  0.8314754069160839  0.30915520594303564  0.6786995934536721  1.0000
  C   C8        1.0  0.8595717371952175  0.3092174555088008  0.821204508968947  1.0000
  C   C9        1.0  0.034853476471269546  0.8120331355451214  0.4207593935356257  1.0000
  C   C10       1.0  0.15332144978781753  0.8119241988050234  0.07936307735954533  1.0000
  C   C11       1.0  0.9651296881391358  0.1879646388254059  0.5792382154025193  1.0000
  C   C12       1.0  0.8466825622771166  0.1880808380148409  0.9206362993298074  1.0000
  C   C13       1.0  0.0795154239439525  0.8130644033513619  0.28564496986346916  1.0000
  C   C14       1.0  0.1071957075219316  0.8130343160612412  0.21445308937353505  1.0000
  C   C15       1.0  0.9204825423230925  0.18693544600468934  0.7143539817772506  1.0000
  C   C16       1.0  0.8928009886072201  0.1869738332369124  0.7855458429634936  1.0000
  C   C17       1.0  0.3707082349548826  0.2770344300061609  0.7144635824757161  1.0000
  C   C18       1.0  0.35208832380078536  0.2769773679042089  0.7855578462717788  1.0000
  C   C19       1.0  0.6292984871709065  0.7229623068716009  0.285536286818946  1.0000
  C   C20       1.0  0.6479173608290479  0.7230214439590767  0.21444443778105443  1.0000
  C   C21       1.0  0.9646097420843556  0.9342746828314787  0.319168837420797  1.0000
  C   C22       1.0  0.10087887567624419  0.9342435580485926  0.1809287731129956  1.0000
  C   C23       1.0  0.03538234816986119  0.0657282790028617  0.6808301431692245  1.0000
  C   C24       1.0  0.8991144218590035  0.0657656287423194  0.8190721103311989  1.0000
  C   C25       1.0  0.9388360566851756  0.9334405386501743  0.38638628513238876  1.0000
  C   C26       1.0  0.1277252350716722  0.9333585767219077  0.1137210057538809  1.0000
  C   C27       1.0  0.06115470996704888  0.0665593107058768  0.6136127147592348  1.0000
  C   C28       1.0  0.8722747433304148  0.06665164756176982  0.8862778976317712  1.0000
  C   C29       1.0  0.47976760819135217  0.1566033075909203  0.6798317374410914  1.0000
  C   C30       1.0  0.3636177627379808  0.1564850334159615  0.820143058087453  1.0000
  C   C31       1.0  0.5202362340885072  0.8433934292868415  0.320166702298522  1.0000
  C   C32       1.0  0.6363909180587439  0.8435106659690418  0.17985873336464664  1.0000
  C   C33       1.0  0.5003113032959163  0.1627338523264186  0.6132019564637545  1.0000
  C   C34       1.0  0.33694701245690334  0.1624703291646625  0.8867737803765439  1.0000
  C   C35       1.0  0.4996851067271988  0.837269109507922  0.38679747812751947  1.0000
  C   C36       1.0  0.6630655856817069  0.83752329523481  0.1132294406314287  1.0000
  C   C37       1.0  0.8024245797683702  0.0579564207165859  0.422188572084771  1.0000
  C   C38       1.0  0.13939496098529244  0.0579128460205425  0.07788455300566001  1.0000
  C   C39       1.0  0.1975737354615743  0.9420340912046044  0.5778142721246411  1.0000
  C   C40       1.0  0.8606086486526363  0.942090115813791  0.9221143503829056  1.0000
  C   C41       1.0  0.3081182903967841  0.3968171194446485  0.6120992177431789  1.0000
  C   C42       1.0  0.29475369852278277  0.39659094602235  0.8879632323235925  1.0000
  C   C43       1.0  0.6918758748493515  0.6031816924186444  0.38790024580030297  1.0000
  C   C44       1.0  0.7052627006367369  0.603403715869888  0.112037544974406  1.0000
  C   C45       1.0  0.2806898199137535  0.3985984945184029  0.6787201298681681  1.0000
  C   C46       1.0  0.32029821146016946  0.3985227575467221  0.8213391214034333  1.0000
  C   C47       1.0  0.7193046314384188  0.6014055048086959  0.3212812461800781  1.0000
  C   C48       1.0  0.6797181876993503  0.6014719043455159  0.1786650365571774  1.0000
  C   C49       1.0  0.255070705217598  0.5641833769570468  0.42766897113061486  1.0000
  C   C50       1.0  0.1807014758858258  0.5641086774781243  0.0724229229902704  1.0000
  C   C51       1.0  0.7449200079705277  0.43580505997861246  0.5723252378482968  1.0000
  C   C52       1.0  0.8193044948500513  0.4358953218489745  0.9275788588083173  1.0000
  N   N1        1.0  0.4182463515541172  0.2812207133041369  0.5797612104260992  1.0000
  N   N2        1.0  0.3004428517555482  0.2809136154463445  0.9202571432139521  1.0000
  N   N3        1.0  0.581741937679197  0.7187812110374381  0.42024021387388905  1.0000
  N   N4        1.0  0.6995719911600344  0.7190841589241828  0.0797436340828028  1.0000
  O   O1        1.0  0.27609663857042926  0.578164629428791  0.48809696548982373  1.0000
  O   O2        1.0  0.14576466817815248  0.5781449170662967  0.011987016928984  1.0000
  O   O3        1.0  0.7238880822839062  0.4218300324634399  0.5119001604977669  1.0000
  O   O4        1.0  0.8542447011516215  0.42185804476803673  0.9880132967142502  1.0000
  O   O5        1.0  0.7317876570331237  0.0398366096139569  0.47791104881532936  1.0000
  O   O6        1.0  0.22838980312657498  0.0397805850047632  0.0221982073444735  1.0000
  O   O7        1.0  0.26820674085493584  0.9601559772927573  0.5220889169828098  1.0000
  O   O8        1.0  0.7716176075322634  0.9602234143223427  0.9778035648039349  1.0000
  O   O9        1.0  0.756467788637785  0.1775046367906654  0.3961787956233778  1.0000
  O   O10       1.0  0.065417259603457  0.1774869994137021  0.1038368471434268  1.0000
  O   O11       1.0  0.24353109880424023  0.8224962500581441  0.6038211122703458  1.0000
  O   O12       1.0  0.9345794365256949  0.8225211498844516  0.8961616022418042  1.0000
  O   O13       1.0  0.3216863838894496  0.4477476391714177  0.3983714551467728  1.0000
  O   O14       1.0  0.23037929667346183  0.4476355899530375  0.10169166999354222  1.0000
  O   O15       1.0  0.6783008143838031  0.5522449477352893  0.6016227634806627  1.0000
  O   O16       1.0  0.7696231591475424  0.5523725593451161  0.898308672598162  1.0000
  O   O17       1.0  0.2744380166591895  0.1686226612481789  0.44455159270425076  1.0000
  O   O18       1.0  0.5567235198703527  0.1685936114508166  0.0554247472902389  1.0000
  O   O19       1.0  0.7255548249849465  0.8313730381368246  0.5554507878516476  1.0000
  O   O20       1.0  0.44327928491355073  0.8314052004124691  0.9445765901593577  1.0000
