data_image0
_chemical_formula_structural       Co2H26C28N12O8
_chemical_formula_sum              "Co2 H26 C28 N12 O8"
_cell_length_a       9.256482988231543
_cell_length_b       9.48068567862103
_cell_length_c       10.655371886802897
_cell_angle_alpha    65.8415453483962
_cell_angle_beta     67.33367304004872
_cell_angle_gamma    89.12409541523638

_space_group_name_H-M_alt    "P 1"
_space_group_IT_number       1

loop_
  _space_group_symop_operation_xyz
  'x, y, z'

loop_
  _atom_site_type_symbol
  _atom_site_label
  _atom_site_symmetry_multiplicity
  _atom_site_fract_x
  _atom_site_fract_y
  _atom_site_fract_z
  _atom_site_occupancy
  Co  Co1       1.0  0.6248534034069095  0.6765615153735995  0.23429361131439916  1.0000
  Co  Co2       1.0  0.37512748565404763  0.3234382304216298  0.7657169761742749  1.0000
  H   H1        1.0  0.3817516996825177  0.8697109386333397  0.1262133572591965  1.0000
  H   H2        1.0  0.6182354111393662  0.13029120284817716  0.873787692867559  1.0000
  H   H3        1.0  0.713117739079827  0.8589815026101918  0.879086179531633  1.0000
  H   H4        1.0  0.2868894992709983  0.14101484291866484  0.12091485350936886  1.0000
  H   H5        1.0  0.7035479470990396  0.49751642434423377  0.509507333105901  1.0000
  H   H6        1.0  0.2964433763008926  0.5024680386108287  0.49052777052929036  1.0000
  H   H7        1.0  0.20323475849601644  0.8095406397167012  0.016855804635547145  1.0000
  H   H8        1.0  0.7967808793002575  0.19047098518003489  0.9831349954078163  1.0000
  H   H9        1.0  0.2280654153389818  0.505256227435524  0.04935503738952461  1.0000
  H   H10       1.0  0.7719487739515143  0.49475429315221925  0.9506178808427705  1.0000
  H   H11       1.0  0.44202462854364916  0.42279374583913676  0.17952186627705657  1.0000
  H   H12       1.0  0.5579867060071066  0.5772131765832927  0.8204711476424221  1.0000
  H   H13       1.0  0.9554273945514639  0.8586481996140379  0.6633905055847149  1.0000
  H   H14       1.0  0.04459905490120521  0.14135753927187275  0.3366165974485539  1.0000
  H   H15       1.0  0.1528391571694456  0.6945147857173312  0.7917588488153483  1.0000
  H   H16       1.0  0.8471778420992279  0.30549667143776577  0.20827566143626794  1.0000
  H   H17       1.0  0.9785010622555246  0.6044230141024587  0.09683246915501798  1.0000
  H   H18       1.0  0.02148465000725961  0.39559773880108656  0.9031970579486169  1.0000
  H   H19       1.0  0.9107501082658729  0.5810589003656192  0.5868830491840382  1.0000
  H   H20       1.0  0.08930387511995971  0.41893774491141766  0.4130748605848069  1.0000
  H   H21       1.0  0.07445109044252265  0.8702619159672697  0.35353935925444796  1.0000
  H   H22       1.0  0.9255613907663972  0.12975342246379284  0.6463976718633261  1.0000
  H   H23       1.0  0.9234611556649454  0.9306868658399525  0.16132046310647738  1.0000
  H   H24       1.0  0.07646357809313999  0.06929281480741174  0.838692885816023  1.0000
  H   H25       1.0  0.554898614845797  0.22344025159303987  0.25300017515343126  1.0000
  H   H26       1.0  0.44510139682639493  0.7765478557163236  0.7470072135288033  1.0000
  C   C1        1.0  0.2721696761038502  0.7271408464660569  0.06307059229791896  1.0000
  C   C2        1.0  0.7278328610734092  0.2728625307399285  0.936924797992411  1.0000
  C   C3        1.0  0.28636645204303324  0.5743766992601068  0.0812950767169626  1.0000
  C   C4        1.0  0.7136391925795921  0.4256313976191495  0.9186928665951722  1.0000
  C   C5        1.0  0.39577363665038934  0.531311026999802  0.1467028331387682  1.0000
  C   C6        1.0  0.6042413804158002  0.4686971085328085  0.8532819286217617  1.0000
  C   C7        1.0  0.9395337684225707  0.8009398676693211  0.7802352492145772  1.0000
  C   C8        1.0  0.06048527680273709  0.19907051803065914  0.2197754938140903  1.0000
  C   C9        1.0  0.03650976925051454  0.7188580321465212  0.8469896735248595  1.0000
  C   C10       1.0  0.9634950684529214  0.28114404228267637  0.15304107290079844  1.0000
  C   C11       1.0  0.9492560819487252  0.6723888353366619  0.002522621290168724  1.0000
  C   C12       1.0  0.05074211303239909  0.32762963590502636  0.9975006954121354  1.0000
  C   C13       1.0  0.8965770575291004  0.6517714069611459  0.4839977001929655  1.0000
  C   C14       1.0  0.1034595434074959  0.3482193061086747  0.5159682263665317  1.0000
  C   C15       1.0  0.9752782169793404  0.7983855137608915  0.36617748007395795  1.0000
  C   C16       1.0  0.024734103657380012  0.20160046977283494  0.633783344168755  1.0000
  C   C17       1.0  0.9019892144533443  0.8284019219192873  0.2662196218025413  1.0000
  C   C18       1.0  0.09797592038974301  0.17158146010199724  0.733774043750408  1.0000
  C   C19       1.0  0.5356692077050482  0.15537872112388842  0.4779801773842394  1.0000
  C   C20       1.0  0.46434095811967785  0.8446211564783827  0.522017652357654  1.0000
  C   C21       1.0  0.5050656201413303  0.027575608520344002  0.6187767689458071  1.0000
  C   C22       1.0  0.4949419862339823  0.9724231048646887  0.3812176536690331  1.0000
  C   C23       1.0  0.5297431509149106  0.12462130496790289  0.36205779998094556  1.0000
  C   C24       1.0  0.4702621192197113  0.8753703550935299  0.6379427746162634  1.0000
  C   C25       1.0  0.5772488608652324  0.32171943324404145  0.44888080378937184  1.0000
  C   C26       1.0  0.4227316076410261  0.6782779924280576  0.5511241940674053  1.0000
  C   C27       1.0  0.5088561642097814  0.04416354859601771  0.752291193535484  1.0000
  C   C28       1.0  0.49114206042902714  0.9558280971624885  0.2477080133614179  1.0000
  N   N1        1.0  0.44570900721414836  0.6501652504196616  0.16631044560901384  1.0000
  N   N2        1.0  0.5542942890454297  0.3498358041513186  0.8336808342874773  1.0000
  N   N3        1.0  0.36921098619910714  0.7678910064003761  0.11420643865772465  1.0000
  N   N4        1.0  0.6307847327318682  0.23210646372456276  0.8857980815077154  1.0000
  N   N5        1.0  0.8088431636896303  0.7228158567260792  0.029171314623219972  1.0000
  N   N6        1.0  0.1911516670997386  0.27719677700615364  0.9708458618822817  1.0000
  N   N7        1.0  0.8049891778139154  0.8002292931416339  0.8924202512064877  1.0000
  N   N8        1.0  0.1950150120852925  0.19977635394256052  0.1075944080118489  1.0000
  N   N9        1.0  0.7874576571780877  0.7072594781975994  0.3187609308314238  1.0000
  N   N10       1.0  0.212506427333139  0.292723788838842  0.6812612863956033  1.0000
  N   N11       1.0  0.7858630427782457  0.6016507947169816  0.4514386520480969  1.0000
  N   N12       1.0  0.21414553942459955  0.3983256379650444  0.5485672401412385  1.0000
  O   O1        1.0  0.6170131067386179  0.43039775845790024  0.3157305859534816  1.0000
  O   O2        1.0  0.38297690084893077  0.5695938681660168  0.684267650937059  1.0000
  O   O3        1.0  0.5743980303046925  0.3456415607760946  0.5597273271700731  1.0000
  O   O4        1.0  0.4255683795362302  0.6543558069159661  0.4402824430141123  1.0000
  O   O5        1.0  0.3902222348186868  0.0869735580982081  0.831356126425369  1.0000
  O   O6        1.0  0.6097765846874381  0.9130356753602556  0.16863559016741916  1.0000
  O   O7        1.0  0.626666356064348  0.005983426069441602  0.7839805417295834  1.0000
  O   O8        1.0  0.3733235184231204  0.9940210451985435  0.21602530264117095  1.0000
