data_image0
_chemical_formula_structural       Ag4H32C36N12O8
_chemical_formula_sum              "Ag4 H32 C36 N12 O8"
_cell_length_a       7.013855261601871
_cell_length_b       9.699605780208897
_cell_length_c       14.15659019871869
_cell_angle_alpha    94.88586202356433
_cell_angle_beta     90.00165637447361
_cell_angle_gamma    90.00074395548698

_space_group_name_H-M_alt    "P 1"
_space_group_IT_number       1

loop_
  _space_group_symop_operation_xyz
  'x, y, z'

loop_
  _atom_site_type_symbol
  _atom_site_label
  _atom_site_symmetry_multiplicity
  _atom_site_fract_x
  _atom_site_fract_y
  _atom_site_fract_z
  _atom_site_occupancy
  Ag  Ag1       1.0  0.5545010316812977  0.3178687042876262  0.9737300370059714  1.0000
  Ag  Ag2       1.0  0.05450262663179469  0.6821158846925215  0.526270735718036  1.0000
  Ag  Ag3       1.0  0.4455070076769231  0.6821353111132212  0.026270762511352113  1.0000
  Ag  Ag4       1.0  0.9454968583952806  0.3178836613398275  0.4737331420020894  1.0000
  H   H1        1.0  0.23052330975149718  0.746987394211132  0.8462968319901734  1.0000
  H   H2        1.0  0.7305449275170516  0.2530020697581747  0.6536995816507272  1.0000
  H   H3        1.0  0.7694804524312103  0.2530208870546176  0.15370299222146847  1.0000
  H   H4        1.0  0.2694517050939211  0.7469885233283193  0.3462998321513879  1.0000
  H   H5        1.0  0.4348259969866247  0.5409129232166947  0.8012909074746801  1.0000
  H   H6        1.0  0.9348805563066092  0.45907029686910755  0.6987091284420045  1.0000
  H   H7        1.0  0.5651777658092882  0.4590959152431536  0.19871392964251555  1.0000
  H   H8        1.0  0.0651303339273781  0.5409136935964013  0.3012938508971885  1.0000
  H   H9        1.0  0.318392733455255  0.302747598961325  0.810119950044509  1.0000
  H   H10       1.0  0.8184575751642529  0.697242459067759  0.6898825921011279  1.0000
  H   H11       1.0  0.6816138807601391  0.6972613073551271  0.1898841861289498  1.0000
  H   H12       1.0  0.18156187001408597  0.3027465579603473  0.31012232194082395  1.0000
  H   H13       1.0  0.9854413867800246  0.2580130766485169  0.8665420490353029  1.0000
  H   H14       1.0  0.48550050497223646  0.7419843493822144  0.6334658425011526  1.0000
  H   H15       1.0  0.014566653227753098  0.7419936288457761  0.1334632757017786  1.0000
  H   H16       1.0  0.5145160894659072  0.2580137564815174  0.3665421337471031  1.0000
  H   H17       1.0  0.9811692844839327  0.8877508959134771  0.9420489920630003  1.0000
  H   H18       1.0  0.481171060236626  0.11225064347784297  0.5579502401429863  1.0000
  H   H19       1.0  0.0188230708671711  0.11226026533637422  0.0579426347408614  1.0000
  H   H20       1.0  0.5188127411569139  0.8877449086015616  0.44205180959123413  1.0000
  H   H21       1.0  0.7639679064846021  0.8699523552730141  0.0029880071861327967  1.0000
  H   H22       1.0  0.2639688706598875  0.13005804012870928  0.49700657582292956  1.0000
  H   H23       1.0  0.23603157803171365  0.13005736596272047  0.9970077182996491  1.0000
  H   H24       1.0  0.736020633984161  0.8699405414595703  0.5029964945441989  1.0000
  H   H25       1.0  0.594734535824621  0.8509527608227216  0.8375708632881781  1.0000
  H   H26       1.0  0.09473841711392342  0.14902897880107696  0.6624129298245478  1.0000
  H   H27       1.0  0.40525354187172985  0.14903927229995867  0.1624244518539868  1.0000
  H   H28       1.0  0.9052539390504251  0.8509685023430151  0.3375907347914335  1.0000
  H   H29       1.0  0.8086300088507483  0.9157672472584084  0.7913572254003327  1.0000
  H   H30       1.0  0.30862622425854613  0.08422323590274773  0.7086335967774672  1.0000
  H   H31       1.0  0.1913580686009695  0.0842293232659443  0.2086343107710604  1.0000
  H   H32       1.0  0.6913632802846763  0.9157765139863298  0.2913681783970715  1.0000
  C   C1        1.0  0.994990228430808  0.6151055210311683  0.8838356511302266  1.0000
  C   C2        1.0  0.4950139328747055  0.38489271031328093  0.6161713523726248  1.0000
  C   C3        1.0  0.005019236886710101  0.3849037247448592  0.1161649805003222  1.0000
  C   C4        1.0  0.5049855514664613  0.6151020127262825  0.3838284878135383  1.0000
  C   C5        1.0  0.17887718384073278  0.641941299709103  0.8510211756108816  1.0000
  C   C6        1.0  0.678901211935674  0.35804646199977697  0.6489786125573147  1.0000
  C   C7        1.0  0.8211351324698556  0.358061886828466  0.1489774145341514  1.0000
  C   C8        1.0  0.32109542022739385  0.6419391043916959  0.3510188664102216  1.0000
  C   C9        1.0  0.2897752779000554  0.5261266316217643  0.8253323983357959  1.0000
  C   C10       1.0  0.7898155078878731  0.4738618264006932  0.6746643982335739  1.0000
  C   C11       1.0  0.7102356130941629  0.47387834833349984  0.1746692086443815  1.0000
  C   C12       1.0  0.2101911047805487  0.5261224357340027  0.3253357775723558  1.0000
  C   C13       1.0  0.2225885057316717  0.388893379539887  0.8301379297822251  1.0000
  C   C14       1.0  0.7226325279002026  0.6110997807359057  0.6698661634827374  1.0000
  C   C15       1.0  0.7774238112284735  0.6111124970911206  0.16986518558256591  1.0000
  C   C16       1.0  0.27736267927208047  0.3888948744691235  0.33013437766913256  1.0000
  C   C17       1.0  0.0399838726422814  0.36236424458762423  0.8613399334558878  1.0000
  C   C18       1.0  0.5400143406043155  0.6376319471905488  0.6386645616050473  1.0000
  C   C19       1.0  0.9600327217462449  0.6376403957756339  0.1386651779353798  1.0000
  C   C20       1.0  0.4599936980448973  0.3623564449192854  0.36133604060689345  1.0000
  C   C21       1.0  0.926478935684358  0.47835974277697346  0.8884642939089389  1.0000
  C   C22       1.0  0.4265050035485344  0.5216339253685331  0.6115384675651113  1.0000
  C   C23       1.0  0.07353195554787109  0.521645033476055  0.11153941577061491  1.0000
  C   C24       1.0  0.5735001837687718  0.4783618979827863  0.38846077824037906  1.0000
  C   C25       1.0  0.8350444196983487  0.8483450270502644  0.9341362205664225  1.0000
  C   C26       1.0  0.33505151326184546  0.15165778903367055  0.5658579768660843  1.0000
  C   C27       1.0  0.16495078694167378  0.1516609037581986  0.065855574058304  1.0000
  C   C28       1.0  0.6649451198548703  0.8483388632471432  0.4341434783776066  1.0000
  C   C29       1.0  0.7226633935999017  0.9127462930126453  0.8563455884169641  1.0000
  C   C30       1.0  0.22266884679817167  0.08724939185729852  0.6436431899458483  1.0000
  C   C31       1.0  0.2773204070300038  0.08725640467299198  0.1436472883621178  1.0000
  C   C32       1.0  0.7773220839638455  0.9127542843046754  0.3563611143340921  1.0000
  C   C33       1.0  0.6582428799882151  0.05945719233462648  0.8885971957671118  1.0000
  C   C34       1.0  0.15826006835783352  0.9405384078421621  0.6113827344778571  1.0000
  C   C35       1.0  0.3417423454886617  0.9405397856383361  0.11139013504945443  1.0000
  C   C36       1.0  0.8417379913313852  0.05946403200792359  0.3886235657846129  1.0000
  N   N1        1.0  0.8482596903870031  0.6978798406030933  0.9175334755294956  1.0000
  N   N2        1.0  0.34827534086522854  0.3021247130877853  0.5824704469068109  1.0000
  N   N3        1.0  0.15173979443179053  0.30212637573026774  0.0824661355340552  1.0000
  N   N4        1.0  0.651725569593907  0.6978751045254654  0.4175306271921713  1.0000
  N   N5        1.0  0.699980950829122  0.6184766316086792  0.9403937787180822  1.0000
  N   N6        1.0  0.19999820336433063  0.38153065150801524  0.5596123975943996  1.0000
  N   N7        1.0  0.30002281171391587  0.38152917725400204  0.05961003767832549  1.0000
  N   N8        1.0  0.800008410265974  0.6184722635148601  0.4403889962376937  1.0000
  N   N9        1.0  0.7439717536807889  0.48707119117123915  0.9228922239061815  1.0000
  N   N10       1.0  0.24400465430245794  0.5129354906332536  0.577115506615307  1.0000
  N   N11       1.0  0.25603771205490483  0.5129366147010187  0.0771125065161371  1.0000
  N   N12       1.0  0.7560048107903085  0.4870652914461289  0.42288637485864194  1.0000
  O   O1        1.0  0.5274046077269148  0.11430951794064008  0.8429610058826711  1.0000
  O   O2        1.0  0.0274177184025746  0.8856764929036914  0.6570130534447003  1.0000
  O   O3        1.0  0.47258204393904185  0.8856849197064347  0.1570310179964878  1.0000
  O   O4        1.0  0.9725817660476536  0.11432462883390575  0.3429853236840684  1.0000
  O   O5        1.0  0.7416832377257804  0.11928398634226065  0.9616431907921807  1.0000
  O   O6        1.0  0.24168799682099257  0.8807089767799284  0.5383454890930395  1.0000
  O   O7        1.0  0.2583048394812977  0.8807171215837643  0.038344566408433416  1.0000
  O   O8        1.0  0.7583057854894478  0.11928816483837323  0.46166167999994195  1.0000
