data_image0
_chemical_formula_structural       Mo2H24C30N4O12
_chemical_formula_sum              "Mo2 H24 C30 N4 O12"
_cell_length_a       3.9519425660736887
_cell_length_b       10.23363006120531
_cell_length_c       21.104656031229307
_cell_angle_alpha    90.00060061703569
_cell_angle_beta     99.25934584390313
_cell_angle_gamma    90.00031120688922

_space_group_name_H-M_alt    "P 1"
_space_group_IT_number       1

loop_
  _space_group_symop_operation_xyz
  'x, y, z'

loop_
  _atom_site_type_symbol
  _atom_site_label
  _atom_site_symmetry_multiplicity
  _atom_site_fract_x
  _atom_site_fract_y
  _atom_site_fract_z
  _atom_site_occupancy
  Mo  Mo1       1.0  0.9045161552432714  0.9949879859216463  0.8042814026162404  1.0000
  Mo  Mo2       1.0  0.0954808531929388  0.49498493675125127  0.1957147530889785  1.0000
  H   H1        1.0  0.0052313170377758424  0.2782023943407594  0.5443230887348349  1.0000
  H   H2        1.0  0.9947706503208947  0.7781951525542823  0.45567917036177624  1.0000
  H   H3        1.0  0.9725632653365959  0.493360297691126  0.5974059291140961  1.0000
  H   H4        1.0  0.027419763653483607  0.9933508303742187  0.40259747254803807  1.0000
  H   H5        1.0  0.8557183066038545  0.5047024306921272  0.7098458550868898  1.0000
  H   H6        1.0  0.1442792465486278  0.004692736164798799  0.2901586718391798  1.0000
  H   H7        1.0  0.7170223281144671  0.4033766019508748  0.8042142956619571  1.0000
  H   H8        1.0  0.2829799575234802  0.9033690604340165  0.19579146576889173  1.0000
  H   H9        1.0  0.9604444759516536  0.9317995224142307  0.010591945715333399  1.0000
  H   H10       1.0  0.039600209136793414  0.43179986598202896  0.9894059603409887  1.0000
  H   H11       1.0  0.806252453006884  0.9260928858024401  0.1194619896060942  1.0000
  H   H12       1.0  0.19378947377472844  0.4260892440651672  0.8805353472950443  1.0000
  H   H13       1.0  0.4011755064720928  0.3174430465181429  0.09335792287014041  1.0000
  H   H14       1.0  0.5987956480553576  0.8174515727105457  0.9066395425406952  1.0000
  H   H15       1.0  0.5447052349139696  0.32041073717746116  0.983794468399978  1.0000
  H   H16       1.0  0.45528134876614235  0.8204153061742331  0.016203378196962603  1.0000
  H   H17       1.0  0.03199540719824513  0.9281534643683285  0.5309496530192348  1.0000
  H   H18       1.0  0.9679779114367545  0.4281503700302947  0.46904891276199834  1.0000
  H   H19       1.0  0.8376610068268273  0.0788102179419852  0.5009273788761561  1.0000
  H   H20       1.0  0.16233492796308008  0.5788031266990501  0.4990751239966968  1.0000
  H   H21       1.0  0.2748653219754473  0.07619222209928009  0.5416232263129643  1.0000
  H   H22       1.0  0.7251274672731041  0.5761903295543077  0.4583763437136668  1.0000
  H   H23       1.0  0.39619853032786506  0.19329844164801097  0.184429490173514  1.0000
  H   H24       1.0  0.603798393008361  0.6933040285943832  0.8155674672719542  1.0000
  C   C1        1.0  0.8191251287758516  0.29551768692249414  0.7199080365407653  1.0000
  C   C2        1.0  0.18087248383094584  0.7955098004825697  0.280096579818256  1.0000
  C   C3        1.0  0.8297317012793567  0.1731326418919679  0.6893122938039298  1.0000
  C   C4        1.0  0.1702681185494228  0.67312539562311  0.3106884204650768  1.0000
  C   C5        1.0  0.8944687578532748  0.167407754228897  0.6253830999699801  1.0000
  C   C6        1.0  0.1055206165575271  0.6673978466143353  0.37461686281185547  1.0000
  C   C7        1.0  0.9466534299029518  0.28288749722084816  0.5929256697753544  1.0000
  C   C8        1.0  0.05333316263048  0.7828762275769917  0.4070757750324319  1.0000
  C   C9        1.0  0.9289574333317173  0.4040930850506824  0.6230551199472529  1.0000
  C   C10       1.0  0.07107048832769182  0.9040841319496165  0.3769512529618311  1.0000
  C   C11       1.0  0.8632128053107944  0.41094854238919243  0.6855655832296392  1.0000
  C   C12       1.0  0.1367434125189178  0.910940329043399  0.3144386512663431  1.0000
  C   C13       1.0  0.7732368692059948  0.3067694938069465  0.7860207824711836  1.0000
  C   C14       1.0  0.22675821398426874  0.8067641813823484  0.21398288413548266  1.0000
  C   C15       1.0  0.8120328032824843  0.12698144166540706  0.9228366282001446  1.0000
  C   C16       1.0  0.18798134701167152  0.6269799235732377  0.0771632379014591  1.0000
  C   C17       1.0  0.7579496748624307  0.1262032978081038  0.9891609072373626  1.0000
  C   C18       1.0  0.2420720586546493  0.6262092524102344  0.010838660504923301  1.0000
  C   C19       1.0  0.8363225606193794  0.0158411283415134  0.028561612327301606  1.0000
  C   C20       1.0  0.16369701520083174  0.5158462259609209  0.9714368569728151  1.0000
  C   C21       1.0  0.7551301618464448  0.013119310775060502  0.0899837485010764  1.0000
  C   C22       1.0  0.24489201418402468  0.5131164100814303  0.9100152424014567  1.0000
  C   C23       1.0  0.5969356843653271  0.12119151425483922  0.1140571114683198  1.0000
  C   C24       1.0  0.4030886954716592  0.6211884278615754  0.8859434411888643  1.0000
  C   C25       1.0  0.5274916390967944  0.23359884078610088  0.0757107692690013  1.0000
  C   C26       1.0  0.4725035664108858  0.7336035725005415  0.9242868308665138  1.0000
  C   C27       1.0  0.6070480993508408  0.23528583300824826  0.014270707791204996  1.0000
  C   C28       1.0  0.39295729780631206  0.735293681060803  0.9857266686152357  1.0000
  C   C29       1.0  0.018598550516038922  0.033169074810580006  0.5399034174679116  1.0000
  C   C30       1.0  0.9813936994065524  0.5331648318729022  0.4600973386690725  1.0000
  N   N1        1.0  0.8051561537087933  0.2084363291219374  0.8259301480559883  1.0000
  N   N2        1.0  0.19484680112147149  0.7084339931545358  0.1740703497845928  1.0000
  N   N3        1.0  0.7568531777955484  0.23323557301999634  0.8873953001487322  1.0000
  N   N4        1.0  0.2431578396301503  0.7332349397113658  0.1126050435196717  1.0000
  O   O1        1.0  0.3452730634955187  0.0116696723246079  0.8062597147196016  1.0000
  O   O2        1.0  0.6547259359755626  0.5116667840295361  0.1937382450854628  1.0000
  O   O3        1.0  0.7783859233465902  0.059545640492629594  0.7182342275221174  1.0000
  O   O4        1.0  0.2216038134744877  0.5595378766908253  0.2817642354393328  1.0000
  O   O5        1.0  0.9044855176412766  0.014503094709212407  0.8976043732607552  1.0000
  O   O6        1.0  0.09552607912056028  0.5145009497508326  0.1023924775641305  1.0000
  O   O7        1.0  0.9044690819719248  0.044737434848677496  0.6003310355634427  1.0000
  O   O8        1.0  0.095531071568864  0.5447329345271186  0.3996699680271831  1.0000
  O   O9        1.0  0.5150486990860869  0.1120535762486199  0.173715649984679  1.0000
  O   O10       1.0  0.4849468794508736  0.6120571886997722  0.8262818018549254  1.0000
  O   O11       1.0  0.820069450969015  0.8292519115246363  0.7974591147050276  1.0000
  O   O12       1.0  0.17992144341208413  0.3292491893000219  0.20253366471879994  1.0000
