data_image0
_chemical_formula_structural       Cu8H64C48I8N16
_chemical_formula_sum              "Cu8 H64 C48 I8 N16"
_cell_length_a       10.250661537840063
_cell_length_b       10.959279340430866
_cell_length_c       14.432988315059195
_cell_angle_alpha    90.00015109025497
_cell_angle_beta     90.00027196711436
_cell_angle_gamma    96.54143004242822

_space_group_name_H-M_alt    "P 1"
_space_group_IT_number       1

loop_
  _space_group_symop_operation_xyz
  'x, y, z'

loop_
  _atom_site_type_symbol
  _atom_site_label
  _atom_site_symmetry_multiplicity
  _atom_site_fract_x
  _atom_site_fract_y
  _atom_site_fract_z
  _atom_site_occupancy
  Cu  Cu1       1.0  0.5208654487175437  0.5822539623769103  0.5754339201229541  1.0000
  Cu  Cu2       1.0  0.020868891798613703  0.08226148685234592  0.9245709480006001  1.0000
  Cu  Cu3       1.0  0.4791269452902114  0.41773461665398787  0.4245744217150715  1.0000
  Cu  Cu4       1.0  0.9791317996525777  0.9177390241927911  0.0754304652912055  1.0000
  Cu  Cu5       1.0  0.6232029624710193  0.45550443075205044  0.7097886796551691  1.0000
  Cu  Cu6       1.0  0.12320610811101324  0.9555039119849484  0.790217276161606  1.0000
  Cu  Cu7       1.0  0.3767931490859908  0.5444905740718298  0.29021896933831215  1.0000
  Cu  Cu8       1.0  0.8767934948863783  0.04449568172674392  0.20978482998466322  1.0000
  H   H1        1.0  0.0888565654897278  0.7617231795392031  0.65021344788223  1.0000
  H   H2        1.0  0.5888557414739353  0.26172704942315766  0.8497926995013714  1.0000
  H   H3        1.0  0.9111357574582115  0.23827274817467983  0.3497907368197275  1.0000
  H   H4        1.0  0.4111455862531841  0.7382707051687021  0.15020940664598473  1.0000
  H   H5        1.0  0.40737390617203323  0.9024361155839528  0.8104574478628166  1.0000
  H   H6        1.0  0.9073637450336707  0.40242828868925073  0.6895396617626164  1.0000
  H   H7        1.0  0.5926226575404242  0.09756256301336214  0.18954257970578683  1.0000
  H   H8        1.0  0.092633115805107  0.5975648781051461  0.3104575943721741  1.0000
  H   H9        1.0  0.551294165897339  0.7683534563377566  0.7238691135219639  1.0000
  H   H10       1.0  0.0512869292023623  0.26834566170065705  0.7761258344969237  1.0000
  H   H11       1.0  0.4486995846191206  0.23164614403854242  0.27612814261397745  1.0000
  H   H12       1.0  0.9487130839645772  0.7316493386540518  0.2238728073594274  1.0000
  H   H13       1.0  0.2874825553945897  0.5661684178157529  0.5057327678196941  1.0000
  H   H14       1.0  0.7874849055577684  0.06616647119660972  0.994270196981283  1.0000
  H   H15       1.0  0.7125101066830197  0.4338302652359547  0.49426933831394854  1.0000
  H   H16       1.0  0.21251563084935307  0.9338248542633141  0.005731909158342301  1.0000
  H   H17       1.0  0.15326743927762723  0.6549999243992704  0.4995107718483283  1.0000
  H   H18       1.0  0.6532690507930708  0.1549949508485611  0.0004952640170828  1.0000
  H   H19       1.0  0.8467278518929435  0.34500426711050386  0.5004906414380272  1.0000
  H   H20       1.0  0.34673062324917947  0.8449972941712789  0.9995068421219957  1.0000
  H   H21       1.0  0.07832115859561382  0.43382799238994363  0.534609185926584  1.0000
  H   H22       1.0  0.5783230366186984  0.9338267204624774  0.9653903395471277  1.0000
  H   H23       1.0  0.9216689163724467  0.5661734493326449  0.4653887630621868  1.0000
  H   H24       1.0  0.421678927366905  0.06616827766577422  0.0346076094553069  1.0000
  H   H25       1.0  0.0381422171031858  0.5310125457744306  0.6268915592404056  1.0000
  H   H26       1.0  0.5381442609720253  0.0310146748469364  0.873110493879672  1.0000
  H   H27       1.0  0.9618459070462108  0.4689888981746223  0.37310708260228864  1.0000
  H   H28       1.0  0.4618563174334512  0.9689849177507813  0.1268909194110321  1.0000
  H   H29       1.0  0.1743514461027331  0.44263346869423253  0.6371258951244131  1.0000
  H   H30       1.0  0.6743518373845206  0.9426335977092254  0.8628739720576704  1.0000
  H   H31       1.0  0.8256346141847717  0.5573670590353359  0.36287413242829564  1.0000
  H   H32       1.0  0.3256465640934181  0.05736416020977941  0.1371232840842893  1.0000
  H   H33       1.0  0.35048977819349153  0.4281747740084115  0.7962436075242183  1.0000
  H   H34       1.0  0.8504919511382668  0.9281742213081404  0.7037554398404924  1.0000
  H   H35       1.0  0.6495009750663029  0.5718321784090323  0.20375919147164015  1.0000
  H   H36       1.0  0.1495125708854701  0.07183363396410412  0.2962390448929995  1.0000
  H   H37       1.0  0.7063350089515837  0.6344101437018282  0.8549786116989183  1.0000
  H   H38       1.0  0.2063451358999586  0.13439993208386622  0.6450249077074519  1.0000
  H   H39       1.0  0.2936615547583799  0.3655885348940019  0.14502072301247892  1.0000
  H   H40       1.0  0.7936689852303546  0.8655987265048354  0.3549827413200718  1.0000
  H   H41       1.0  0.6038790263144591  0.7272814584443525  0.9926700442141725  1.0000
  H   H42       1.0  0.1038945805120548  0.2272752453600901  0.5073333139869192  1.0000
  H   H43       1.0  0.39611885195070323  0.2727199743856801  0.0073313690738104  1.0000
  H   H44       1.0  0.8961299729883834  0.7727289127822916  0.4926715636348433  1.0000
  H   H45       1.0  0.1890392748620258  0.4116108391076666  0.9495227331360426  1.0000
  H   H46       1.0  0.6890440627813135  0.9116160587121628  0.5504736576703166  1.0000
  H   H47       1.0  0.8109573308637438  0.5883961066362958  0.05048075872689141  1.0000
  H   H48       1.0  0.31097606579176323  0.08839177874839522  0.4495152842318291  1.0000
  H   H49       1.0  0.18640588926111692  0.5548463586871863  0.006957845545230201  1.0000
  H   H50       1.0  0.686415962827688  0.05485174662268831  0.4930384030643964  1.0000
  H   H51       1.0  0.8135859524474965  0.4451615110607535  0.9930428748817448  1.0000
  H   H52       1.0  0.31359928870744375  0.9451560964091924  0.5069546959727731  1.0000
  H   H53       1.0  0.011921634197761898  0.525736381911763  0.8826133269660231  1.0000
  H   H54       1.0  0.5119264184747506  0.025742926955203395  0.6173747700061372  1.0000
  H   H55       1.0  0.9880734308714098  0.4742659726972607  0.11738531488929033  1.0000
  H   H56       1.0  0.4880834617963572  0.9742529806939403  0.3826107075808025  1.0000
  H   H57       1.0  0.1343936890575392  0.5097510748733995  0.7978763883009066  1.0000
  H   H58       1.0  0.6343915056900258  0.009759826986815802  0.7021169403429823  1.0000
  H   H59       1.0  0.8656037370197893  0.49024668416399925  0.2021236392682368  1.0000
  H   H60       1.0  0.36561154672197205  0.9902360884586374  0.2978726943756982  1.0000
  H   H61       1.0  0.12895705009822225  0.6521707212955905  0.8558284833912779  1.0000
  H   H62       1.0  0.6289581254164602  0.15217738499118383  0.644163724388932  1.0000
  H   H63       1.0  0.8710379019177594  0.34783071486157985  0.14416807989130123  1.0000
  H   H64       1.0  0.3710450400537156  0.847819448909071  0.3558293746168958  1.0000
  C   C1        1.0  0.2704643033010896  0.6874171843634402  0.6192623633228821  1.0000
  C   C2        1.0  0.7704632497315345  0.18741751240840196  0.8807414779811256  1.0000
  C   C3        1.0  0.729528471819748  0.3125824171342161  0.3807390499546628  1.0000
  C   C4        1.0  0.22953785190415493  0.812578405288626  0.1192606281640138  1.0000
  C   C5        1.0  0.19244960687046836  0.76289290896797  0.6676015684256457  1.0000
  C   C6        1.0  0.6924461417174825  0.2628921147013657  0.8324014667205973  1.0000
  C   C7        1.0  0.8075440306077581  0.23710577296534305  0.3323977662808133  1.0000
  C   C8        1.0  0.3075550729614278  0.7371047214416038  0.16759994656844412  1.0000
  C   C9        1.0  0.3683562263398771  0.8400871200584918  0.7559156005256469  1.0000
  C   C10       1.0  0.8683472068552405  0.3400776876903748  0.7440826391092232  1.0000
  C   C11       1.0  0.6316415388721025  0.1599133943196875  0.2440837341895943  1.0000
  C   C12       1.0  0.131652580217775  0.6599154757680169  0.2559153098877048  1.0000
  C   C13       1.0  0.4469061094053473  0.7667244308209649  0.7083163699262727  1.0000
  C   C14       1.0  0.9469016730939684  0.26671795227950673  0.791682681880431  1.0000
  C   C15       1.0  0.5530875280753663  0.23327425111382646  0.2916836576373926  1.0000
  C   C16       1.0  0.05309942852926501  0.7332779654101317  0.20831595997866972  1.0000
  C   C17       1.0  0.2098080039364376  0.6019805301491844  0.546580761918463  1.0000
  C   C18       1.0  0.7098091979086832  0.10197932894133288  0.9534227047203743  1.0000
  C   C19       1.0  0.790185859640694  0.39801998868339433  0.4534206513618244  1.0000
  C   C20       1.0  0.2901919037195313  0.8980165887512612  0.04657732285314611  1.0000
  C   C21       1.0  0.1194469952389383  0.495955044315224  0.5894226366275603  1.0000
  C   C22       1.0  0.6194467542540067  0.9959553778216379  0.910578536939731  1.0000
  C   C23       1.0  0.8805439420964803  0.5040454778489264  0.4105760052189639  1.0000
  C   C24       1.0  0.3805534850068497  0.004041459429387802  0.089420797776036  1.0000
  C   C25       1.0  0.3484661657393104  0.5475408261568974  0.9173219057575396  1.0000
  C   C26       1.0  0.848474036800873  0.04754262655983149  0.5826763778967037  1.0000
  C   C27       1.0  0.651525336837146  0.4524642882517399  0.08268020038055109  1.0000
  C   C28       1.0  0.15153915086987274  0.9524643002510873  0.4173174139932812  1.0000
  C   C29       1.0  0.4063304915475001  0.49578453768192793  0.8407543018188832  1.0000
  C   C30       1.0  0.9063372213694411  0.9957837896533098  0.6592443756572877  1.0000
  C   C31       1.0  0.5936629618451333  0.504220574498774  0.1592464186080775  1.0000
  C   C32       1.0  0.0936730400770429  0.0042231404995192005  0.3407514947993847  1.0000
  C   C33       1.0  0.603633854538934  0.6087741109596506  0.8734035646061642  1.0000
  C   C34       1.0  0.1036429865841129  0.10876474034706973  0.6265988642441516  1.0000
  C   C35       1.0  0.3963579451763053  0.3912254916534509  0.1265992343841518  1.0000
  C   C36       1.0  0.8963702721638926  0.8912348377912025  0.3734039347823598  1.0000
  C   C37       1.0  0.5458182262591862  0.6604743077155038  0.9485570470078885  1.0000
  C   C38       1.0  0.045829220711397105  0.16046828825962225  0.5514445966110557  1.0000
  C   C39       1.0  0.4541798781023942  0.33952896201232363  0.05144575199671661  1.0000
  C   C40       1.0  0.95418948031061  0.839535876548851  0.4485561238575785  1.0000
  C   C41       1.0  0.20634161047821925  0.5120879314251499  0.9403639827974503  1.0000
  C   C42       1.0  0.7063485664698561  0.0120914715961007  0.5596330576869022  1.0000
  C   C43       1.0  0.7936549952400754  0.487919014314386  0.059637430493857814  1.0000
  C   C44       1.0  0.29366927215738053  0.9879136127545607  0.44035934849468833  1.0000
  C   C45       1.0  0.11535877782628752  0.5521367505042037  0.8647371189705171  1.0000
  C   C46       1.0  0.615361626842457  0.05214245554910952  0.6352562297005875  1.0000
  C   C47       1.0  0.8846351987915712  0.44786468677283864  0.1352629085964594  1.0000
  C   C48       1.0  0.3846445779001825  0.9478552934581332  0.36473548359686  1.0000
  I   I1        1.0  0.7690840675709438  0.6486578129384456  0.6443466759942922  1.0000
  I   I2        1.0  0.26908082334404787  0.14866229494435151  0.8556570835774339  1.0000
  I   I3        1.0  0.23092059659234823  0.3513353449796385  0.3556616658690005  1.0000
  I   I4        1.0  0.7309192318237409  0.851340972549629  0.14434155828720924  1.0000
  I   I5        1.0  0.5549584008111097  0.6558229839351953  0.4007896913142731  1.0000
  I   I6        1.0  0.0549646777396617  0.15582360394723344  0.0992174000227593  1.0000
  I   I7        1.0  0.44503943547314156  0.34417018176738173  0.5992172648230893  1.0000
  I   I8        1.0  0.9450423894102046  0.8441732255252108  0.9007860918477776  1.0000
  N   N1        1.0  0.3996974655098029  0.6894174647856135  0.6399506068587826  1.0000
  N   N2        1.0  0.8996941992502768  0.1894167884017507  0.8600509032824419  1.0000
  N   N3        1.0  0.6002960589301837  0.310580298704707  0.3600508064182009  1.0000
  N   N4        1.0  0.10030712847434846  0.8105809661886315  0.13995051000770087  1.0000
  N   N5        1.0  0.23936517326558968  0.8390868944917643  0.7358557798812058  1.0000
  N   N6        1.0  0.7393578387253329  0.3390821387769379  0.7641454865823933  1.0000
  N   N7        1.0  0.7606306411252247  0.16091362211140142  0.26414355483075275  1.0000
  N   N8        1.0  0.2606419483551576  0.6609110246858876  0.2358545409861605  1.0000
  N   N9        1.0  0.4189208354154915  0.6312182133607608  0.9708993701315621  1.0000
  N   N10       1.0  0.9189318836026319  0.13121702555971382  0.5291027820597094  1.0000
  N   N11       1.0  0.5810777211289491  0.3687887301567444  0.0291034288774554  1.0000
  N   N12       1.0  0.08108944650983574  0.868792647705341  0.4708965527044172  1.0000
  N   N13       1.0  0.5329571212965618  0.5263361338116966  0.8185547081112505  1.0000
  N   N14       1.0  0.03296308536652501  0.02632975682645621  0.6814452396313513  1.0000
  N   N15       1.0  0.4670369683719997  0.4736662219157284  0.18144670517125408  1.0000
  N   N16       1.0  0.9670456354532606  0.9736725822091545  0.31855409510420435  1.0000
