data_image0
_chemical_formula_structural       Hg2H28C28Br4N8
_chemical_formula_sum              "Hg2 H28 C28 Br4 N8"
_cell_length_a       7.6810944097664695
_cell_length_b       8.299651319388865
_cell_length_c       13.60314664436489
_cell_angle_alpha    88.07265092225715
_cell_angle_beta     99.16198721943734
_cell_angle_gamma    106.14696721282964

_space_group_name_H-M_alt    "P 1"
_space_group_IT_number       1

loop_
  _space_group_symop_operation_xyz
  'x, y, z'

loop_
  _atom_site_type_symbol
  _atom_site_label
  _atom_site_symmetry_multiplicity
  _atom_site_fract_x
  _atom_site_fract_y
  _atom_site_fract_z
  _atom_site_occupancy
  Hg  Hg1       1.0  0.5871851466595287  0.2653526166059379  0.2601518322208634  1.0000
  Hg  Hg2       1.0  0.41282657223163705  0.7346593363351419  0.739837210000118  1.0000
  H   H1        1.0  0.0033236242718218127  0.37057612651926775  0.40824144830689585  1.0000
  H   H2        1.0  0.9966643217793842  0.6294213606072177  0.5917589165658866  1.0000
  H   H3        1.0  0.2753388949269108  0.26031880301567883  0.45902496207399673  1.0000
  H   H4        1.0  0.7246602510445469  0.7396938619913768  0.5409733996749182  1.0000
  H   H5        1.0  0.9410155838456618  0.7828524703092229  0.3303297111534036  1.0000
  H   H6        1.0  0.0589543156326542  0.21712570267565215  0.6696993269389323  1.0000
  H   H7        1.0  0.6871597997268636  0.9126468537157066  0.2843518935042937  1.0000
  H   H8        1.0  0.3128222972102037  0.08733841882715863  0.7156634136533667  1.0000
  H   H9        1.0  0.3732380345588382  0.7119292389041194  0.4496054286417106  1.0000
  H   H10       1.0  0.6267810667969939  0.2880916735642315  0.5504011513429248  1.0000
  H   H11       1.0  0.262073532050877  0.743075860948082  0.32796479877179496  1.0000
  H   H12       1.0  0.7379231622171147  0.2569362339190988  0.6720429336224922  1.0000
  H   H13       1.0  0.12976908499116044  0.6767798959723805  0.4255919817486172  1.0000
  H   H14       1.0  0.8702441059570276  0.3232166006250665  0.5744235987528441  1.0000
  H   H15       1.0  0.0004013896323798234  0.5350974039555254  0.24214520903194625  1.0000
  H   H16       1.0  0.9996265333210204  0.46490649067090584  0.7578516898227362  1.0000
  H   H17       1.0  0.2762249776931824  0.556336337239202  0.16053995885621217  1.0000
  H   H18       1.0  0.723806654170886  0.44366577803371143  0.8394653162906849  1.0000
  H   H19       1.0  0.9365703918424939  0.15438413123909817  0.9625370628812389  1.0000
  H   H20       1.0  0.06346607123022359  0.8456168293363364  0.0374663783185838  1.0000
  H   H21       1.0  0.6774942384353934  0.1523779136030896  0.05077810545837019  1.0000
  H   H22       1.0  0.3225428932112279  0.8476168058752479  0.9492246262932439  1.0000
  H   H23       1.0  0.3849504481442169  0.27581681784408124  0.8814332698960499  1.0000
  H   H24       1.0  0.6150737842855633  0.7241738618117352  0.11857432145307457  1.0000
  H   H25       1.0  0.14274945599002822  0.24854627232186752  0.8610210393278661  1.0000
  H   H26       1.0  0.8572686516772733  0.7514422087952398  0.13898164886678893  1.0000
  H   H27       1.0  0.23691998896875077  0.11845396133149683  0.9466206706951396  1.0000
  H   H28       1.0  0.7631120321634411  0.881540297039301  0.05338975251404319  1.0000
  C   C1        1.0  0.9965653601479685  0.24095935181640732  0.39161253118976447  1.0000
  C   C2        1.0  0.003420734232833115  0.7590406609458004  0.6083876992740542  1.0000
  C   C3        1.0  0.1476708535633833  0.17977759542842622  0.4198814504509443  1.0000
  C   C4        1.0  0.8523188397657362  0.8202301106873975  0.5801161507323086  1.0000
  C   C5        1.0  0.1328210540114299  0.0112006955303343  0.3987327483029617  1.0000
  C   C6        1.0  0.8671654991683153  0.9888003444209731  0.6012712011724659  1.0000
  C   C7        1.0  0.9644719499438993  0.9146565241364258  0.3481169031141036  1.0000
  C   C8        1.0  0.03550778686501129  0.08533369988356299  0.6518997114750746  1.0000
  C   C9        1.0  0.8200939325318116  0.9859826048649721  0.32266944185163027  1.0000
  C   C10       1.0  0.1798857352412568  0.01400784554575551  0.6773434894598154  1.0000
  C   C11       1.0  0.28487902029057477  0.9359919714752963  0.43236975180533926  1.0000
  C   C12       1.0  0.7151061262105428  0.06401266657898222  0.5676370456171824  1.0000
  C   C13       1.0  0.26152282454803816  0.7558972887582841  0.4082248705142959  1.0000
  C   C14       1.0  0.7384784988959723  0.24410849201959192  0.5917831979024228  1.0000
  C   C15       1.0  0.9929903380692123  0.45319557869795096  0.1795626263459909  1.0000
  C   C16       1.0  0.007041384875165655  0.546802947710006  0.8204396979154536  1.0000
  C   C17       1.0  0.14594405248877249  0.4647353062515265  0.1345867518011588  1.0000
  C   C18       1.0  0.8540884223674965  0.5352658178724069  0.8654141706169439  1.0000
  C   C19       1.0  0.13028461569829372  0.356712538282757  0.05410824378263611  1.0000
  C   C20       1.0  0.8697388381952392  0.6432938551772908  0.9458890514419024  1.0000
  C   C21       1.0  0.9590422054452001  0.24125425642071008  0.024469307927951395  1.0000
  C   C22       1.0  0.04098010677333257  0.7587482857435219  0.9755293534060527  1.0000
  C   C23       1.0  0.8128189530035925  0.2393230693334232  0.0733991881386373  1.0000
  C   C24       1.0  0.1872101249369891  0.7606755208287268  0.9266021935905399  1.0000
  C   C25       1.0  0.2846099869453055  0.36885546974406946  0.9993823919599691  1.0000
  C   C26       1.0  0.7154173856338489  0.6311418760762564  0.0006188510969735858  1.0000
  C   C27       1.0  0.262175773371105  0.24637430812069283  0.9170330970238254  1.0000
  C   C28       1.0  0.7378478677579209  0.7536190690454206  0.08297151623249725  1.0000
  Br  Br1       1.0  0.37726417625672337  0.004577854342485902  0.1674921389215243  1.0000
  Br  Br2       1.0  0.6227605811054457  0.9954037650798001  0.8324992689496469  1.0000
  Br  Br3       1.0  0.6102307305880359  0.5263433024157821  0.3556696655095593  1.0000
  Br  Br4       1.0  0.38942136493194107  0.47368611462978555  0.6441912365836869  1.0000
  N   N1        1.0  0.8347759586234742  0.14613145439361833  0.3442270514359506  1.0000
  N   N2        1.0  0.1652090493109952  0.8538645259601837  0.6557774917595223  1.0000
  N   N3        1.0  0.4308217532137846  0.036271132939205614  0.4833526768689892  1.0000
  N   N4        1.0  0.5691598638698282  0.9637346958526791  0.5166553207834212  1.0000
  N   N5        1.0  0.43013861462272723  0.4928414396937981  0.02696817543807839  1.0000
  N   N6        1.0  0.5698866909412105  0.5071624281305275  0.9730292541954312  1.0000
  N   N7        1.0  0.8285891915994482  0.3433496612083289  0.1496398060213338  1.0000
  N   N8        1.0  0.17144420909202301  0.6566502000977509  0.8503611836012508  1.0000
