data_image0
_chemical_formula_structural       Cd2H44C44N8O8
_chemical_formula_sum              "Cd2 H44 C44 N8 O8"
_cell_length_a       5.132069675
_cell_length_b       9.824587246858453
_cell_length_c       19.759
_cell_angle_alpha    97.22746222067825
_cell_angle_beta     90.0
_cell_angle_gamma    90.0

_space_group_name_H-M_alt    "P 1"
_space_group_IT_number       1

loop_
  _space_group_symop_operation_xyz
  'x, y, z'

loop_
  _atom_site_type_symbol
  _atom_site_label
  _atom_site_symmetry_multiplicity
  _atom_site_fract_x
  _atom_site_fract_y
  _atom_site_fract_z
  _atom_site_occupancy
  Cd  Cd1       1.0  0.4999893147397714  0.500003789555322  0.49999869345424497  1.0000
  Cd  Cd2       1.0  0.9999942177324427  8.2080526909e-06  0.5000010195510426  1.0000
  H   H1        1.0  0.8700213135746252  0.6415024098437385  0.4350346255940423  1.0000
  H   H2        1.0  0.3700183591135655  0.8585038287893028  0.5649682192396528  1.0000
  H   H3        1.0  0.1299631614997523  0.3585041432603262  0.5649647215268203  1.0000
  H   H4        1.0  0.6299778071504818  0.141502724314762  0.43503011568423483  1.0000
  H   H5        1.0  0.7993480719842337  0.5152245972586372  0.3751124748964543  1.0000
  H   H6        1.0  0.2993548601812392  0.9847857454007568  0.6248896144665467  1.0000
  H   H7        1.0  0.20062276336885532  0.48478298185201407  0.6248854181105159  1.0000
  H   H8        1.0  0.7006432546144268  0.015212599650617201  0.375110231398736  1.0000
  H   H9        1.0  0.9610839899596613  0.6577163919222997  0.1409889142683056  1.0000
  H   H10       1.0  0.4610615501824782  0.8422939507370943  0.8590232970644324  1.0000
  H   H11       1.0  0.0389238674940628  0.34228297913566763  0.8590175750588714  1.0000
  H   H12       1.0  0.5389424102080227  0.15770131629452783  0.14097787455160224  1.0000
  H   H13       1.0  0.6500067635967923  0.7640034921857861  0.3605406565316045  1.0000
  H   H14       1.0  0.1500213459202513  0.7360078764801941  0.6394680762932907  1.0000
  H   H15       1.0  0.3499796600091969  0.23600716494462404  0.6394584412170516  1.0000
  H   H16       1.0  0.8499845630018683  0.2639873905514278  0.36052550384543747  1.0000
  H   H17       1.0  0.3322830959032146  0.49956773675627636  0.3331436416021917  1.0000
  H   H18       1.0  0.8323113812752324  0.00044426085173650005  0.6668656872743386  1.0000
  H   H19       1.0  0.667679945323421  0.5004439463807203  0.6668580508204656  1.0000
  H   H20       1.0  0.1676886820520451  0.9995458761469536  0.3331346573353571  1.0000
  H   H21       1.0  0.21392538868833813  0.6546424761906451  0.30971964870583696  1.0000
  H   H22       1.0  0.7139302916810095  0.8453760745214325  0.6902875089961  1.0000
  H   H23       1.0  0.7860571378544279  0.3453743369792832  0.6902788219352588  1.0000
  H   H24       1.0  0.2860717201778797  0.15460995845091222  0.3097090361979085  1.0000
  H   H25       1.0  0.8562237612255359  0.7391033383501551  0.2616182888387187  1.0000
  H   H26       1.0  0.3562286008909297  0.760904952296066  0.7383968307217971  1.0000
  H   H27       1.0  0.1437509711907765  0.260904240760496  0.7383851712516076  1.0000
  H   H28       1.0  0.6437695139047364  0.23908518470262413  0.2616055382818417  1.0000
  H   H29       1.0  0.7748569781449817  0.4589973843326689  0.0339424812989293  1.0000
  H   H30       1.0  0.274832589836187  0.0410146132753439  0.9660708963655013  1.0000
  H   H31       1.0  0.2251840043461613  0.5409968566923666  0.9660672298098093  1.0000
  H   H32       1.0  0.7251655249594791  0.9589847577826164  0.033926989287401524  1.0000
  H   H33       1.0  0.42372963301594513  0.2838755022144497  0.009981047339017808  1.0000
  H   H34       1.0  0.9237033595028094  0.2161405994199086  0.990024489475907  1.0000
  H   H35       1.0  0.5763191436016513  0.7161136087776541  0.9900222696800328  1.0000
  H   H36       1.0  0.076302549419303  0.7838618496578107  0.009968527736838007  1.0000
  H   H37       1.0  0.10874754930134149  0.2396269161800291  0.10030535053950022  1.0000
  H   H38       1.0  0.608731018446278  0.2603820034082247  0.8996967004135143  1.0000
  H   H39       1.0  0.8912797934685058  0.7603632208186542  0.8996960062671704  1.0000
  H   H40       1.0  0.3912709934126113  0.7396224976826673  0.10029593906388362  1.0000
  H   H41       1.0  0.1371396034290981  0.3656800333228035  0.21655688390645625  1.0000
  H   H42       1.0  0.6371464549533812  0.1343196522061731  0.7834476260033513  1.0000
  H   H43       1.0  0.8628624084297911  0.6343111296824661  0.7834455492787598  1.0000
  H   H44       1.0  0.3628594539687313  0.8656725368056827  0.21654576159066613  1.0000
  C   C1        1.0  0.332604603619302  0.7450798267135994  0.42749242483601085  1.0000
  C   C2        1.0  0.8326192492700315  0.7549387239984782  0.5725147328659261  1.0000
  C   C3        1.0  0.6673876655815292  0.25493185642339  0.5725087614881588  1.0000
  C   C4        1.0  0.1673905567153113  0.2450606470594892  0.42748214059000134  1.0000
  C   C5        1.0  0.5418340311211765  0.6783740085248198  0.37820654707439166  1.0000
  C   C6        1.0  0.0418427678497935  0.8216342821214014  0.6218014871073125  1.0000
  C   C7        1.0  0.4581368042319127  0.3216376746121767  0.6217951453482726  1.0000
  C   C8        1.0  0.9581650896039305  0.1783630369233933  0.3781927274930439  1.0000
  C   C9        1.0  0.39495956375533586  0.5984686156071463  0.31777005819090937  1.0000
  C   C10       1.0  0.8949683638112303  0.9015448050719996  0.6822377908001586  1.0000
  C   C11       1.0  0.6050229627874231  0.40154717155618874  0.6822318909580292  1.0000
  C   C12       1.0  0.1050336480476588  0.09844840994644953  0.31776274635424784  1.0000
  C   C13       1.0  0.7505529433405442  0.6551257252926492  0.23306279891950513  1.0000
  C   C14       1.0  0.250542194753038  0.8448805133403995  0.7669491556869517  1.0000
  C   C15       1.0  0.2494393258602798  0.3448798018048294  0.7669420511031433  1.0000
  C   C16       1.0  0.7494461773845629  0.1551106496648771  0.23305074700582656  1.0000
  C   C17       1.0  0.5431317531751958  0.5786082061219489  0.2520507483335521  1.0000
  C   C18       1.0  0.0431521810934896  0.9213959804979268  0.7479620901067392  1.0000
  C   C19       1.0  0.45685272189918175  0.4213983469821159  0.7479526475752041  1.0000
  C   C20       1.0  0.9568556763602417  0.07858389643490682  0.2520376126872605  1.0000
  C   C21       1.0  0.475297522144416  0.4851184860056393  0.19247055346698974  1.0000
  C   C22       1.0  0.9752965795422455  0.014882225529930801  0.8075370572153062  1.0000
  C   C23       1.0  0.5247083867776965  0.5148819110589075  0.8075334695493269  1.0000
  C   C24       1.0  0.024705432316643797  0.985103807442414  0.19245746358475202  1.0000
  C   C25       1.0  0.6523294132790554  0.5102771935009401  0.13931789596810526  1.0000
  C   C26       1.0  0.1523225617547723  0.9897290451321014  0.8606910220474262  1.0000
  C   C27       1.0  0.3476940324275688  0.4897232035636065  0.8606861270482042  1.0000
  C   C28       1.0  0.8476833471673402  0.0102672479060999  0.13930717715925311  1.0000
  C   C29       1.0  0.6386117507260849  0.4381468784919775  0.0737298378767548  1.0000
  C   C30       1.0  0.1385971050753483  0.0618630671028626  0.9262793626366417  1.0000
  C   C31       1.0  0.361413643512158  0.5618494145462236  0.926277977201174  1.0000
  C   C32       1.0  0.8614029582519295  0.9381352779485114  0.07371845883469061  1.0000
  C   C33       1.0  0.44165612385221203  0.34074602126983683  0.06080108084740491  1.0000
  C   C34       1.0  0.9416415415287602  0.1592680283513488  0.9392053398013473  1.0000
  C   C35       1.0  0.5583712189176353  0.6592441157288533  0.9392038186486714  1.0000
  C   C36       1.0  0.0583702129881942  0.8407374987461297  0.060790906547026714  1.0000
  C   C37       1.0  0.2629933117577963  0.3151748591269623  0.11218341587141371  1.0000
  C   C38       1.0  0.7629787294343373  0.18483406046129153  0.8878206594755439  1.0000
  C   C39       1.0  0.7370223398223814  0.6848173298849006  0.8878200936923407  1.0000
  C   C40       1.0  0.23702912801938678  0.8151622325769097  0.11217349094324193  1.0000
  C   C41       1.0  0.2784958292679462  0.386146812700332  0.1778149095241162  1.0000
  C   C42       1.0  0.7784948866657757  0.11386210688792181  0.8221916963152723  1.0000
  C   C43       1.0  0.7215100796541734  0.6138494803378763  0.8221883506674317  1.0000
  C   C44       1.0  0.2215188163827904  0.8861331601436931  0.17780492041437415  1.0000
  N   N1        1.0  0.7183924290739512  0.5876955464541497  0.41050826770751314  1.0000
  N   N2        1.0  0.2183933716761146  0.9123137701986579  0.5894962879663552  1.0000
  N   N3        1.0  0.2815862004055916  0.4123130586630879  0.5894907016780027  1.0000
  N   N4        1.0  0.781606691651163  0.08768867887906853  0.41050330852672084  1.0000
  N   N5        1.0  0.8159008480335928  0.6138935986210683  0.16596761738316704  1.0000
  N   N6        1.0  0.3159115332938285  0.8861034059527029  0.8340488205740328  1.0000
  N   N7        1.0  0.1840953182304546  0.38610679844347834  0.834041466618011  1.0000
  N   N8        1.0  0.6840846329702259  0.1138836530262282  0.16595133149095892  1.0000
  O   O1        1.0  0.23949012344615284  0.6788449455477945  0.47334304624479984  1.0000
  O   O2        1.0  0.7394930779072055  0.8211582150654949  0.5266621365366149  1.0000
  O   O3        1.0  0.7604885060333899  0.3211626335628566  0.5266553528606579  1.0000
  O   O4        1.0  0.2604991912936185  0.17885244206491543  0.4733354429165786  1.0000
  O   O5        1.0  0.2513898060045321  0.8612104341631693  0.4150039202198458  1.0000
  O   O6        1.0  0.7513849663391383  0.6387865704106019  0.5850044201615674  1.0000
  O   O7        1.0  0.7486102573227456  0.1388074050133383  0.5849996755876887  1.0000
  O   O8        1.0  0.24861704551975086  0.36121177464077914  0.41498834032490356  1.0000
