data_image0
_chemical_formula_structural       Yb2Cu2H44C36I2N10O18
_chemical_formula_sum              "Yb2 Cu2 H44 C36 I2 N10 O18"
_cell_length_a       10.897579224563065
_cell_length_b       12.661084270118392
_cell_length_c       14.51366120074895
_cell_angle_alpha    91.80997078418072
_cell_angle_beta     96.59511676797817
_cell_angle_gamma    120.1756764628745

_space_group_name_H-M_alt    "P 1"
_space_group_IT_number       1

loop_
  _space_group_symop_operation_xyz
  'x, y, z'

loop_
  _atom_site_type_symbol
  _atom_site_label
  _atom_site_symmetry_multiplicity
  _atom_site_fract_x
  _atom_site_fract_y
  _atom_site_fract_z
  _atom_site_occupancy
  Yb  Yb1       1.0  0.27887848235781115  0.3765208907387814  0.4642463739123741  1.0000
  Yb  Yb2       1.0  0.721115116840217  0.623478090104868  0.5357506532517888  1.0000
  Cu  Cu1       1.0  0.5104819989874088  0.996915492079239  0.0878545607301433  1.0000
  Cu  Cu2       1.0  0.4895053702365005  0.0030787937781652955  0.9121348726771076  1.0000
  H   H1        1.0  0.7279126804796477  0.7873608360171005  0.2790794908307959  1.0000
  H   H2        1.0  0.27208013431558  0.2126417104193195  0.7209161868935965  1.0000
  H   H3        1.0  0.2698742594335003  0.6171886768943438  0.2579557908406755  1.0000
  H   H4        1.0  0.7301094221250681  0.3827973586789427  0.7420372061414897  1.0000
  H   H5        1.0  0.3357731253878883  0.20589784382980983  0.2973508944566348  1.0000
  H   H6        1.0  0.6642053083312761  0.7940987449652043  0.7026419190310946  1.0000
  H   H7        1.0  0.793933593403807  0.3531680565116986  0.34256536702878293  1.0000
  H   H8        1.0  0.20605840494977926  0.6468246096895032  0.6574265121311527  1.0000
  H   H9        1.0  0.7580870863539675  0.2072006066156291  0.20754766027712185  1.0000
  H   H10       1.0  0.24189544031164453  0.7927899072003727  0.7924391558021924  1.0000
  H   H11       1.0  0.7216031878551805  0.9272595722966273  0.16086959455314806  1.0000
  H   H12       1.0  0.2783715381888285  0.0727404242996528  0.8391277983933423  1.0000
  H   H13       1.0  0.31766327836283653  0.061586182968554205  0.16646205697071542  1.0000
  H   H14       1.0  0.6823409665157175  0.9384186257923661  0.833534043210733  1.0000
  H   H15       1.0  0.1009522501854576  0.10044718007111439  0.5720691681887473  1.0000
  H   H16       1.0  0.8990436233674969  0.8995241111509031  0.42792246354098756  1.0000
  H   H17       1.0  0.18791619464519022  0.3664956060298508  0.6855618877927016  1.0000
  H   H18       1.0  0.8120792154230331  0.6334935052759575  0.3144467406696521  1.0000
  H   H19       1.0  0.2817315555425565  0.7668696621022587  0.142242262085567  1.0000
  H   H20       1.0  0.7182474152754069  0.23311971444022114  0.857759354728529  1.0000
  H   H21       1.0  0.11783260230600939  0.4393948792854017  0.7897331609148139  1.0000
  H   H22       1.0  0.8821642801864654  0.5606068652453188  0.21027389159026913  1.0000
  H   H23       1.0  0.9286423307833261  0.34882225755572455  0.7881815600684376  1.0000
  H   H24       1.0  0.07135667579755997  0.6511849648870579  0.21182446351109263  1.0000
  H   H25       1.0  0.006156070448383889  0.49971471962059166  0.7505394237305296  1.0000
  H   H26       1.0  0.9938480025821265  0.5002900037308392  0.24946906089288495  1.0000
  H   H27       1.0  0.08496972784769244  0.9490572547768609  0.6458433290417176  1.0000
  H   H28       1.0  0.9150354871365213  0.05093769827865202  0.35415671639366764  1.0000
  H   H29       1.0  0.24912714803937774  0.9472127219589056  0.6633243965611655  1.0000
  H   H30       1.0  0.7508708807145226  0.052772872008802096  0.3366898850365915  1.0000
  H   H31       1.0  0.10089901638022533  0.8374473186966044  0.5790299947253601  1.0000
  H   H32       1.0  0.899108727052557  0.1625423102983348  0.420977022702786  1.0000
  H   H33       1.0  0.8917035760018737  0.3250295051333083  0.519937040454316  1.0000
  H   H34       1.0  0.1083216738296925  0.6749949613978358  0.4800670515812371  1.0000
  H   H35       1.0  0.8702573035441432  0.430244338820124  0.5922539614181019  1.0000
  H   H36       1.0  0.12976893980576432  0.5697801897981308  0.4077467782688302  1.0000
  H   H37       1.0  0.7750252738087157  0.2707141678559637  0.606935644025647  1.0000
  H   H38       1.0  0.22498205911967525  0.7293078342445298  0.3930577787900162  1.0000
  H   H39       1.0  0.3538485629826483  0.08268124454596662  0.4423371963281398  1.0000
  H   H40       1.0  0.6462131054896362  0.9173409623188038  0.5576935973507845  1.0000
  H   H41       1.0  0.25884166662010694  0.9190369713153074  0.44342794221743986  1.0000
  H   H42       1.0  0.741245481625441  0.08098271956986738  0.5565989147591637  1.0000
  H   H43       1.0  0.40165723079083193  0.013591617455482204  0.5354965878244187  1.0000
  H   H44       1.0  0.5983932392000358  0.9864372515628336  0.464543013675403  1.0000
  C   C1        1.0  0.4989938457610848  0.6942149187857326  0.2798791563940171  1.0000
  C   C2        1.0  0.5009846825082603  0.30578524074949337  0.7201172115999768  1.0000
  C   C3        1.0  0.5816937412380058  0.3801019303103459  0.4075369241899552  1.0000
  C   C4        1.0  0.4183044923290923  0.6199018158891789  0.5924461924216402  1.0000
  C   C5        1.0  0.6271259674833589  0.7807188796130833  0.25059040403038324  1.0000
  C   C6        1.0  0.3728553269914415  0.2192795977763566  0.749406170094332  1.0000
  C   C7        1.0  0.5666927348500225  0.2902791156397059  0.33119068597507356  1.0000
  C   C8        1.0  0.43329808951638443  0.7097180193142664  0.6687963883311241  1.0000
  C   C9        1.0  0.4979599343204627  0.6149142463567401  0.3548209509498008  1.0000
  C   C10       1.0  0.5020390349929189  0.3850894338156509  0.6451773899761407  1.0000
  C   C11       1.0  0.3716489698973575  0.6865195292011065  0.2390624746312682  1.0000
  C   C12       1.0  0.6283277293177748  0.3134706785218526  0.7609348231959886  1.0000
  C   C13       1.0  0.43125259304197533  0.20694037639804458  0.280828086332086  1.0000
  C   C14       1.0  0.5687237227437549  0.7930454519216568  0.7191497599412103  1.0000
  C   C15       1.0  0.6865414311487044  0.2898267455798873  0.3055069544327509  1.0000
  C   C16       1.0  0.3134407675282915  0.7101664638836738  0.6944771514488937  1.0000
  C   C17       1.0  0.6669781194904587  0.2077465454826921  0.2314757900392053  1.0000
  C   C18       1.0  0.3330053911463796  0.7922440256754444  0.7685083617160516  1.0000
  C   C19       1.0  0.6244645144068814  0.8584317857350287  0.1860002600644535  1.0000
  C   C20       1.0  0.3755204009034757  0.1415749087237259  0.8139975666572212  1.0000
  C   C21       1.0  0.42063132138917336  0.12710600297791794  0.2083957933824152  1.0000
  C   C22       1.0  0.579353239127748  0.8728881820276585  0.7915913126287109  1.0000
  C   C23       1.0  0.17136343367170787  0.09837631616596812  0.5240635732455701  1.0000
  C   C24       1.0  0.8286594986526198  0.9016256226701244  0.4759403602564518  1.0000
  C   C25       1.0  0.09519138724490263  0.340592763600327  0.6311509251835546  1.0000
  C   C26       1.0  0.904809307020024  0.6594091486143158  0.3688544143444831  1.0000
  C   C27       1.0  0.3777403069367794  0.7681907607752905  0.17563014880345662  1.0000
  C   C28       1.0  0.6222403124611875  0.2318049541344962  0.8243731758920988  1.0000
  C   C29       1.0  0.013154691182073503  0.41613850119920665  0.7515821222353338  1.0000
  C   C30       1.0  0.9868532647637597  0.5838681870686742  0.24842470660279056  1.0000
  C   C31       1.0  0.15913317360970333  0.9327952611283621  0.6112921422243075  1.0000
  C   C32       1.0  0.8408808145783341  0.06719730832502792  0.3887162195480158  1.0000
  C   C33       1.0  0.876287485781141  0.3463314514630298  0.5898607207304494  1.0000
  C   C34       1.0  0.12372782208807111  0.6536899638654035  0.4101354836433231  1.0000
  C   C35       1.0  0.3126692126265311  0.0076505737975835954  0.4868548317377802  1.0000
  C   C36       1.0  0.6873992715751812  0.9923656162352614  0.5131784841498472  1.0000
  I   I1        1.0  0.7492971502351721  0.09415734878857054  0.01146954951617828  1.0000
  I   I2        1.0  0.25068940594460537  0.9058404884266833  0.988520598524964  1.0000
  N   N1        1.0  0.5023549197930566  0.8553935394858528  0.1505869856644821  1.0000
  N   N2        1.0  0.49762883199280583  0.14460596089530503  0.8494057083441646  1.0000
  N   N3        1.0  0.5359806883948579  0.1262648970379274  0.18354754737516288  1.0000
  N   N4        1.0  0.4640019380549704  0.8737274282455232  0.8164372618222373  1.0000
  N   N5        1.0  0.9978886702394194  0.3650714698781882  0.6566855464796292  1.0000
  N   N6        1.0  0.002113587602444536  0.6349332147085178  0.343317258399054  1.0000
  N   N7        1.0  0.08953978878494688  0.32676468667274605  0.29736063076688884  1.0000
  N   N8        1.0  0.9104454501955813  0.6732294038358689  0.7026458277059007  1.0000
  N   N9        1.0  0.21239681376509628  0.016587741706629803  0.5400774505528645  1.0000
  N   N10       1.0  0.787624873423802  0.983408724364864  0.4599324158207523  1.0000
  O   O1        1.0  0.37701482020880667  0.536958121447192  0.3755628272373387  1.0000
  O   O2        1.0  0.6229788849230432  0.4630292440158144  0.6244269918219985  1.0000
  O   O3        1.0  0.46788026475621797  0.3734878380154996  0.4279307549470062  1.0000
  O   O4        1.0  0.532128970200411  0.626522577979138  0.5720625155576827  1.0000
  O   O5        1.0  0.7069748848268207  0.46079267648657674  0.4472747635894053  1.0000
  O   O6        1.0  0.29301811567664526  0.5392117241220404  0.5527127150320936  1.0000
  O   O7        1.0  0.6199188376507935  0.6347578989462548  0.3932029899656371  1.0000
  O   O8        1.0  0.380076766757199  0.3652447388520557  0.6067963912039929  1.0000
  O   O9        1.0  0.207068504651815  0.16790284934548794  0.4603739534271512  1.0000
  O   O10       1.0  0.7929554168724097  0.8320892432751422  0.5396325492797089  1.0000
  O   O11       1.0  0.08661361345647828  0.2923160762278981  0.5516843700454289  1.0000
  O   O12       1.0  0.9133890626111028  0.7076877194337144  0.4483198261735595  1.0000
  O   O13       1.0  0.07645057307634325  0.37186367212584065  0.37479909296013864  1.0000
  O   O14       1.0  0.92354374277911  0.6281433774855785  0.6252037396504022  1.0000
  O   O15       1.0  0.17938688908718353  0.28918653863204474  0.30525265723114364  1.0000
  O   O16       1.0  0.8205776911022371  0.7107887312392265  0.6947575782879128  1.0000
  O   O17       1.0  0.01995983268376733  0.3209358972405454  0.22231680231740822  1.0000
  O   O18       1.0  0.9800361899499564  0.6790658516326786  0.7776839701925341  1.0000
