data_image0
_chemical_formula_structural       Al4H50C70N2O20
_chemical_formula_sum              "Al4 H50 C70 N2 O20"
_cell_length_a       6.695084845023284
_cell_length_b       23.603472377433683
_cell_length_c       25.984237073049076
_cell_angle_alpha    101.80451054535813
_cell_angle_beta     90.00026521568586
_cell_angle_gamma    90.0000793388959

_space_group_name_H-M_alt    "P 1"
_space_group_IT_number       1

loop_
  _space_group_symop_operation_xyz
  'x, y, z'

loop_
  _atom_site_type_symbol
  _atom_site_label
  _atom_site_symmetry_multiplicity
  _atom_site_fract_x
  _atom_site_fract_y
  _atom_site_fract_z
  _atom_site_occupancy
  Al  Al1       1.0  0.1070722778351367  0.49950511295046607  0.5003757836487353  1.0000
  Al  Al2       1.0  0.607071911922212  0.5004944503604281  0.49962416044090935  1.0000
  Al  Al3       1.0  0.7034337798944535  0.0005775315114462127  0.9997002315542718  1.0000
  Al  Al4       1.0  0.203433882348321  0.9994205628097604  0.00029865980661729976  1.0000
  H   H1        1.0  0.6248810164919548  0.897272953696721  0.1033963044885482  1.0000
  H   H2        1.0  0.12487735971954089  0.10272898981857993  0.8966028827496687  1.0000
  H   H3        1.0  0.6074626605319153  0.831657208389203  0.16713257465526973  1.0000
  H   H4        1.0  0.1074597120644825  0.16834600881624343  0.8328685568285155  1.0000
  H   H5        1.0  0.25056358007551444  0.8295507180934437  0.17412107626289244  1.0000
  H   H6        1.0  0.7505583021528252  0.17044509981914058  0.8258751226159121  1.0000
  H   H7        1.0  0.2647467122270015  0.8938384551896377  0.10910711147624853  1.0000
  H   H8        1.0  0.7647422488965957  0.10615779620404454  0.8908891073907557  1.0000
  H   H9        1.0  0.1805493912831011  0.7377709348141367  0.18490593099524233  1.0000
  H   H10       1.0  0.6805608224242121  0.26222432425475267  0.8150897796975657  1.0000
  H   H11       1.0  0.159355129067869  0.6734238447762879  0.24805707504361862  1.0000
  H   H12       1.0  0.6593717532056972  0.3265723352322426  0.7519390021721578  1.0000
  H   H13       1.0  0.6291797179999391  0.7626618102158319  0.3153441827178441  1.0000
  H   H14       1.0  0.1291730228077057  0.23734269331897204  0.6846569807239151  1.0000
  H   H15       1.0  0.6506383538589731  0.8270437238367948  0.25225048856907517  1.0000
  H   H16       1.0  0.15062347722203379  0.17296079423132235  0.747750703711482  1.0000
  H   H17       1.0  0.559249175453637  0.6709334197206547  0.3264321307424964  1.0000
  H   H18       1.0  0.0592561964964631  0.32907198561231615  0.6735712986072501  1.0000
  H   H19       1.0  0.54586663072606  0.6066383253630647  0.3914606200071021  1.0000
  H   H20       1.0  0.0458653687799782  0.3933667207075402  0.608541218698406  1.0000
  H   H21       1.0  0.18577563844846887  0.6032266743048212  0.39678125567742484  1.0000
  H   H22       1.0  0.6857765638844314  0.3967662799682331  0.6032117062038793  1.0000
  H   H23       1.0  0.20235606583467103  0.6688058639413159  0.3330063941056879  1.0000
  H   H24       1.0  0.7023607647658494  0.33118905970292906  0.6669877732446139  1.0000
  H   H25       1.0  0.8107189773908559  0.7742813455314633  0.6644815164110228  1.0000
  H   H26       1.0  0.31063289724188087  0.22571908815928055  0.335514380263092  1.0000
  H   H27       1.0  0.8629999494423116  0.8494161029515371  0.7368596310925781  1.0000
  H   H28       1.0  0.36290026418613036  0.15058427860119394  0.26313594268498264  1.0000
  H   H29       1.0  0.2235221544265471  0.7584218719640958  0.7956803409444434  1.0000
  H   H30       1.0  0.7235541096535981  0.24155678895779434  0.20433779071923655  1.0000
  H   H31       1.0  0.15910668118793583  0.7410790760168668  0.6807689902262979  1.0000
  H   H32       1.0  0.6590526206451415  0.25890281693835965  0.31924473923513835  1.0000
  H   H33       1.0  0.19887037929503754  0.6879845205878183  0.7188377019643398  1.0000
  H   H34       1.0  0.6988995641521641  0.3119964042273367  0.2811792226111081  1.0000
  H   H35       1.0  0.6867009901890029  0.751388509425688  0.8249778972316053  1.0000
  H   H36       1.0  0.18676754336862442  0.24862603528855948  0.17501118322838494  1.0000
  H   H37       1.0  0.9262842548274222  0.726031993393278  0.8371733526257686  1.0000
  H   H38       1.0  0.4263835831233749  0.2739679751523952  0.16282977182441272  1.0000
  H   H39       1.0  0.6551292338130993  0.6745085292462962  0.7523594273146161  1.0000
  H   H40       1.0  0.15520044344539494  0.32550701692625245  0.24763039888127747  1.0000
  H   H41       1.0  0.6492836698633367  0.827464841376859  0.7666099639074206  1.0000
  H   H42       1.0  0.1492253954022686  0.17254915265727536  0.2333767071978557  1.0000
  H   H43       1.0  0.6048592151627188  0.7493841590754899  0.6959415483079426  1.0000
  H   H44       1.0  0.10481602445305073  0.25063041771050376  0.3040478152306322  1.0000
  H   H45       1.0  0.8981388878515446  0.6506601218747575  0.7635686655330077  1.0000
  H   H46       1.0  0.3982458694852014  0.34933846843978245  0.23643402515848078  1.0000
  H   H47       1.0  0.3552890538699742  0.5757268068756789  0.5186009393260634  1.0000
  H   H48       1.0  0.8552909655787956  0.4242728231599387  0.4813969803612609  1.0000
  H   H49       1.0  0.4556915394481892  0.9244657372382223  0.9807808814897429  1.0000
  H   H50       1.0  0.9556895200066222  0.07553283654713283  0.019214026930932004  1.0000
  C   C1        1.0  0.4528898378945598  0.0767876549689248  0.07778573922612253  1.0000
  C   C2        1.0  0.9528871103973487  0.9232099356837158  0.9222142719262153  1.0000
  C   C3        1.0  0.3570577720839622  0.4233548630976075  0.42213566381562373  1.0000
  C   C4        1.0  0.8570472213885338  0.5766449570986439  0.5778650094555431  1.0000
  C   C5        1.0  0.3587782145567858  0.43690411370741356  0.5627834803059459  1.0000
  C   C6        1.0  0.8587740839751702  0.5630956062382708  0.4372148372299094  1.0000
  C   C7        1.0  0.7606239819034358  0.881963537592398  0.11923833955712841  1.0000
  C   C8        1.0  0.26062161845874243  0.11803773767789494  0.8807614214617633  1.0000
  C   C9        1.0  0.7521941402124313  0.8457874412866321  0.15514635841852006  1.0000
  C   C10       1.0  0.2521898366453783  0.1542146760189525  0.8448533931137095  1.0000
  C   C11       1.0  0.927805185497867  0.8258143836636976  0.17535715147612055  1.0000
  C   C12       1.0  0.4278036158883936  0.17418580691491317  0.8246412597691662  1.0000
  C   C13       1.0  0.112650361022304  0.8435277995135311  0.15811777103076002  1.0000
  C   C14       1.0  0.6126467866937375  0.15646988311549143  0.8418794256481732  1.0000
  C   C15       1.0  0.121729932226323  0.8797171626339451  0.12210760879933254  1.0000
  C   C16       1.0  0.6217268061160155  0.12028010227256665  0.8778895991615415  1.0000
  C   C17       1.0  0.9455371417329204  0.8991752755815058  0.10224139478778943  1.0000
  C   C18       1.0  0.4455349891738862  0.10082501455708837  0.8977574334545935  1.0000
  C   C19       1.0  0.060715483096402095  0.7440506162385886  0.21396486286791125  1.0000
  C   C20       1.0  0.5607233840932437  0.2559471187621726  0.7860326571713615  1.0000
  C   C21       1.0  0.0487292992753936  0.7076720373363942  0.24972271616211125  1.0000
  C   C22       1.0  0.548739744724287  0.2923257770943409  0.7502751809297978  1.0000
  C   C23       1.0  0.8926427663152551  0.7129260532997037  0.28666347100431727  1.0000
  C   C24       1.0  0.3926457910594365  0.28707420100998604  0.7133352861419129  1.0000
  C   C25       1.0  0.7487716566139184  0.7562520438339109  0.2862071589993533  1.0000
  C   C26       1.0  0.2487684936089067  0.24375091889999112  0.7137925897790965  1.0000
  C   C27       1.0  0.7608071305973283  0.7926637498767591  0.2504705983519245  1.0000
  C   C28       1.0  0.2607999289700089  0.20733888468399903  0.7495295588412603  1.0000
  C   C29       1.0  0.9168406623208938  0.7873698037681296  0.21349427446863703  1.0000
  C   C30       1.0  0.4168401122531904  0.2126296191856838  0.7865045133556663  1.0000
  C   C31       1.0  0.697359551424299  0.6567672527274199  0.3421894169550158  1.0000
  C   C32       1.0  0.19736338052082664  0.3432352651787198  0.657812226687689  1.0000
  C   C33       1.0  0.6886967039992911  0.62058960650797  0.3782141449388662  1.0000
  C   C34       1.0  0.18870456545865716  0.37941248165816427  0.6217874861391622  1.0000
  C   C35       1.0  0.8650485882133907  0.6010661102657125  0.39794570571164917  1.0000
  C   C36       1.0  0.36505321520736794  0.3989331900573347  0.602052619335666  1.0000
  C   C37       1.0  0.0498056397909181  0.618345428872253  0.38087828763684684  1.0000
  C   C38       1.0  0.5498082612486357  0.3816511007958427  0.6191176432380845  1.0000
  C   C39       1.0  0.057812783114009406  0.6545092552444772  0.34494941426446973  1.0000
  C   C40       1.0  0.557818838762259  0.3454873673973752  0.6550469205383394  1.0000
  C   C41       1.0  0.8819919061020443  0.6744824226748634  0.32480295410574206  1.0000
  C   C42       1.0  0.38199744397579843  0.32551748809616754  0.6751961809650738  1.0000
  C   C43       1.0  0.7926543229404783  0.8120872285645792  0.748758838052659  1.0000
  C   C44       1.0  0.2925949472281673  0.1879179291819568  0.25123547278245445  1.0000
  C   C45       1.0  0.1345880351429258  0.774470607639863  0.7659664672162165  1.0000
  C   C46       1.0  0.6345756217291125  0.22551388563845626  0.2340456631262029  1.0000
  C   C47       1.0  0.1082128974268457  0.7258979879660006  0.7157607000015177  1.0000
  C   C48       1.0  0.6082001210041739  0.27408851926293926  0.2842510063398791  1.0000
  C   C49       1.0  0.859080580337789  0.6222465173713376  0.6242756490623549  1.0000
  C   C50       1.0  0.35908112050014296  0.3777521201279868  0.3757254173289866  1.0000
  C   C51       1.0  0.9251637927628025  0.7927847644827113  0.7907865042662935  1.0000
  C   C52       1.0  0.4251575476466627  0.20721315758132872  0.20921504226494395  1.0000
  C   C53       1.0  0.7630947762819602  0.7616590287439353  0.7009944924718072  1.0000
  C   C54       1.0  0.26304545954403846  0.2383472055047378  0.2989989950804529  1.0000
  C   C55       1.0  0.8857204842022026  0.7082124344582967  0.7083419151916673  1.0000
  C   C56       1.0  0.38572358844706395  0.29178588476316497  0.29165957924983843  1.0000
  C   C57       1.0  0.8113215178172554  0.6885841217723512  0.7583566727606341  1.0000
  C   C58       1.0  0.3113820947385407  0.31141979091009386  0.24163962536805175  1.0000
  C   C59       1.0  0.8322881982454717  0.7387347980867605  0.8067373741713412  1.0000
  C   C60       1.0  0.33234617494886004  0.26127023918963493  0.19326013347208004  1.0000
  C   C61       1.0  0.8670600059201873  0.6613981173772603  0.6627141745837618  1.0000
  C   C62       1.0  0.3670581768063458  0.33860197224312577  0.3372876916256615  1.0000
  C   C63       1.0  0.9430804444458261  0.8390487761882214  0.8368767529768563  1.0000
  C   C64       1.0  0.44308211462646346  0.16094838394786143  0.16312324406987955  1.0000
  C   C65       1.0  0.9505072281978713  0.877584549970962  0.8757670338226335  1.0000
  C   C66       1.0  0.45050801794609197  0.12241423700943703  0.12423454862539532  1.0000
  C   C67       1.0  0.4519593534884551  0.06287815118673018  0.9370604205567831  1.0000
  C   C68       1.0  0.9519580216548178  0.9371218069779419  0.0629388085583571  1.0000
  C   C69       1.0  0.23976670369108893  0.8239598972278729  0.7534559683954855  1.0000
  C   C70       1.0  0.739701980353104  0.1760183507921766  0.24656218411589495  1.0000
  N   N1        1.0  0.32270067347892  0.8627962855551703  0.741566732876727  1.0000
  N   N2        1.0  0.8226075817996019  0.13717906539223182  0.258453489522971  1.0000
  O   O1        1.0  0.5267117553554216  0.4518217588037318  0.5466220958583677  1.0000
  O   O2        1.0  0.026716024500657902  0.5481744188965082  0.4533741962148811  1.0000
  O   O3        1.0  0.1868868746033243  0.44046922889732104  0.4410091364512568  1.0000
  O   O4        1.0  0.6868848665436645  0.5595281217557472  0.5589940537621845  1.0000
  O   O5        1.0  0.18749574786733092  0.4508162994307697  0.5477482941234444  1.0000
  O   O6        1.0  0.6875037596491752  0.5491858754704354  0.4522537285029173  1.0000
  O   O7        1.0  0.0271665695875001  0.5582557511648504  0.5598408386077056  1.0000
  O   O8        1.0  0.5271693391910617  0.4417458635151591  0.4401570378013134  1.0000
  O   O9        1.0  0.7840407027977463  0.9520394302009624  0.046766195375468604  1.0000
  O   O10       1.0  0.284040749160134  0.04796383294056741  0.9532367451903954  1.0000
  O   O11       1.0  0.3564344336196612  0.534646026743225  0.5035938843987964  1.0000
  O   O12       1.0  0.8564353253079843  0.4653531065158205  0.49640560763165814  1.0000
  O   O13       1.0  0.6232145804827952  0.05980023621845732  0.0589781694158091  1.0000
  O   O14       1.0  0.1232159812728142  0.9402008445537718  0.9410190488502366  1.0000
  O   O15       1.0  0.4541563271747435  0.9653678440615964  0.9964886089770318  1.0000
  O   O16       1.0  0.9541553163823836  0.0346308301023157  0.0035086554329382008  1.0000
  O   O17       1.0  0.2829410764334668  0.05837623413874131  0.05972973935922002  1.0000
  O   O18       1.0  0.7829402540141146  0.9416192234435456  0.9402723967899362  1.0000
  O   O19       1.0  0.6232627325285023  0.0491442254057262  0.9522131005229114  1.0000
  O   O20       1.0  0.1232634217203881  0.9508523540215705  0.04778292909036711  1.0000
