data_image0
_chemical_formula_structural       Ho4Ag4H32C56N8O32
_chemical_formula_sum              "Ho4 Ag4 H32 C56 N8 O32"
_cell_length_a       9.086426401023742
_cell_length_b       9.759869719019047
_cell_length_c       22.05406115663587
_cell_angle_alpha    89.99963279541352
_cell_angle_beta     90.00086634038601
_cell_angle_gamma    118.4594049750719

_space_group_name_H-M_alt    "P 1"
_space_group_IT_number       1

loop_
  _space_group_symop_operation_xyz
  'x, y, z'

loop_
  _atom_site_type_symbol
  _atom_site_label
  _atom_site_symmetry_multiplicity
  _atom_site_fract_x
  _atom_site_fract_y
  _atom_site_fract_z
  _atom_site_occupancy
  Ho  Ho1       1.0  0.38272774942013404  0.6500653516999011  0.9912426525848445  1.0000
  Ho  Ho2       1.0  0.11727450266761248  0.3499386854047374  0.4912477170010873  1.0000
  Ho  Ho3       1.0  0.6172683685545266  0.3499451497234531  0.0087521950039715  1.0000
  Ho  Ho4       1.0  0.8827345241353868  0.6500603166948906  0.508758466424645  1.0000
  Ag  Ag1       1.0  0.9769942023800198  0.3065571443571642  0.1501436586401823  1.0000
  Ag  Ag2       1.0  0.5230195088682662  0.6934463582483374  0.6501425857837403  1.0000
  Ag  Ag3       1.0  0.023014519072645977  0.6934499791710066  0.8498548164423453  1.0000
  Ag  Ag4       1.0  0.47699504360146955  0.3065526893486706  0.349854529034566  1.0000
  H   H1        1.0  0.07101452644250364  0.7661685860024505  0.0681253724837916  1.0000
  H   H2        1.0  0.42898213893321463  0.23383344185339894  0.5681331004773753  1.0000
  H   H3        1.0  0.9289662123136537  0.23382670142871834  0.9318676613537278  1.0000
  H   H4        1.0  0.5710000811585586  0.766156054969528  0.4318748966033468  1.0000
  H   H5        1.0  0.2868531379454424  0.9774988227084979  0.1328598551217581  1.0000
  H   H6        1.0  0.21315402440428238  0.022495290446528305  0.6328654757014291  1.0000
  H   H7        1.0  0.7131422025414408  0.0224861398955554  0.8671345390692905  1.0000
  H   H8        1.0  0.7868383766956201  0.9774838451403556  0.3671411611317907  1.0000
  H   H9        1.0  0.2368457535934709  0.1965819582504622  0.16560805327661396  1.0000
  H   H10       1.0  0.26317391468958806  0.8034192834044801  0.6656108839358481  1.0000
  H   H11       1.0  0.7631625437710383  0.803411235012412  0.8343899683929406  1.0000
  H   H12       1.0  0.7368364517279674  0.1965692846442622  0.3343912186276654  1.0000
  H   H13       1.0  0.795367341690799  0.023446874372218904  0.06663279599820979  1.0000
  H   H14       1.0  0.7046378878752861  0.9765633633453062  0.566632509527686  1.0000
  H   H15       1.0  0.2046343728885277  0.9765659942743387  0.9333665859169358  1.0000
  H   H16       1.0  0.2953658956710825  0.0234448800821099  0.43336641896915745  1.0000
  H   H17       1.0  0.011379729552885468  0.34622534373014713  0.2844954500729102  1.0000
  H   H18       1.0  0.4886161606398501  0.6537724459382162  0.7844896727589017  1.0000
  H   H19       1.0  0.988622454083455  0.6537666386211924  0.7155043853042499  1.0000
  H   H20       1.0  0.5113926313981381  0.34623699929524326  0.2155038145770902  1.0000
  H   H21       1.0  0.9033387806317279  0.708531954860078  0.34319257023822997  1.0000
  H   H22       1.0  0.596656247052742  0.29147059954521387  0.843197164990279  1.0000
  H   H23       1.0  0.09666554278918937  0.2914577239909377  0.6568140666172155  1.0000
  H   H24       1.0  0.40333302805626653  0.708532882147381  0.15680720464290226  1.0000
  H   H25       1.0  0.8608071399895749  0.7526439666658504  0.23238693391235898  1.0000
  H   H26       1.0  0.6391934895979717  0.24735378141356537  0.732394183978215  1.0000
  H   H27       1.0  0.1391846507364676  0.2473514117971547  0.7676215166210552  1.0000
  H   H28       1.0  0.3608026511105251  0.7526393117440621  0.2676138131406987  1.0000
  H   H29       1.0  0.8853399358594558  0.5793113823031248  0.1537332592961107  1.0000
  H   H30       1.0  0.6146714185869585  0.42068282319228  0.6537366960555175  1.0000
  H   H31       1.0  0.1146468462201611  0.4206827943448133  0.8462724706360804  1.0000
  H   H32       1.0  0.38533894783920164  0.5793057448569596  0.34626585993922276  1.0000
  C   C1        1.0  0.7799799768465691  0.7521742628906481  0.025210782093750994  1.0000
  C   C2        1.0  0.7200268556367108  0.24783126719383827  0.5252144520810517  1.0000
  C   C3        1.0  0.22002380663959537  0.24783398053326514  0.9747849723845049  1.0000
  C   C4        1.0  0.27997450564618725  0.752169992904733  0.47479037102402083  1.0000
  C   C5        1.0  0.9158569668152555  0.8784265075597661  0.0627406225650873  1.0000
  C   C6        1.0  0.5841457634670703  0.12157905993693423  0.5627433496810639  1.0000
  C   C7        1.0  0.08413900983395452  0.12157935044399443  0.9372560387547182  1.0000
  C   C8        1.0  0.4158483081539828  0.8784186584328142  0.4372587528189768  1.0000
  C   C9        1.0  0.055068571812242166  0.8651634015614319  0.0822024097655785  1.0000
  C   C10       1.0  0.44493311881618774  0.13484101550818653  0.5822050737510124  1.0000
  C   C11       1.0  0.9449227721520048  0.134835454905506  0.9177956118433597  1.0000
  C   C12       1.0  0.5550586717980508  0.865154362948303  0.4177974821764607  1.0000
  C   C13       1.0  0.17354636383389282  0.9807297898857358  0.1190715619055922  1.0000
  C   C14       1.0  0.32645703058399533  0.019266587207262407  0.6190738145488481  1.0000
  C   C15       1.0  0.8264491887615649  0.019262137854724404  0.8809264597261472  1.0000
  C   C16       1.0  0.673536546311979  0.9807148791888948  0.38093010169739455  1.0000
  C   C17       1.0  0.1477362486911389  0.1043027629390565  0.13653525615723788  1.0000
  C   C18       1.0  0.3522700892172849  0.8956959926534794  0.6365379276828378  1.0000
  C   C19       1.0  0.8522665228260351  0.8956903848159216  0.8634623120639872  1.0000
  C   C20       1.0  0.6477281203464499  0.10429247527849128  0.36346372141182565  1.0000
  C   C21       1.0  0.9010409920416506  0.0081481685380425  0.0812603836557599  1.0000
  C   C22       1.0  0.5989618528259938  0.9918562744700806  0.5812621183316793  1.0000
  C   C23       1.0  0.09895881740631313  0.9918565604684989  0.9187389982648995  1.0000
  C   C24       1.0  0.4010378859506503  0.0081461328261625  0.41873771702324797  1.0000
  C   C25       1.0  0.9755556781408926  0.43543305083111505  0.2740567053094054  1.0000
  C   C26       1.0  0.5244415233576588  0.5645635874926072  0.774053736228197  1.0000
  C   C27       1.0  0.024444883118185663  0.5645600787254069  0.7259449437860184  1.0000
  C   C28       1.0  0.4755598377446333  0.4354376725954411  0.22594156482111313  1.0000
  C   C29       1.0  0.9595214653088817  0.5229248173684697  0.32103291454649957  1.0000
  C   C30       1.0  0.540475002727888  0.47708002798626137  0.8210343717208912  1.0000
  C   C31       1.0  0.04048631488052486  0.4770695322030748  0.6789687345696364  1.0000
  C   C32       1.0  0.45952052742614313  0.5229293080369573  0.1789659170424613  1.0000
  C   C33       1.0  0.9166401344842824  0.6392559611330173  0.3067681249995076  1.0000
  C   C34       1.0  0.5833579321336728  0.36074654919906385  0.8067719890900235  1.0000
  C   C35       1.0  0.08336543544702828  0.36073837024007827  0.69323760499082  1.0000
  C   C36       1.0  0.41663576363772137  0.6392569688989482  0.1932319271256091  1.0000
  C   C37       1.0  0.8927976265316033  0.6626282922811626  0.24591255976955745  1.0000
  C   C38       1.0  0.6072068315796386  0.33736951298349993  0.7459166376579772  1.0000
  C   C39       1.0  0.10720455722513832  0.33736369007718997  0.7540936236447777  1.0000
  C   C40       1.0  0.3927916607812064  0.6626282417961704  0.2540890923055557  1.0000
  C   C41       1.0  0.9077933868346548  0.5680079138500747  0.20159165058231573  1.0000
  C   C42       1.0  0.5922160209396239  0.4319898480938207  0.7015917420734467  1.0000
  C   C43       1.0  0.09220127280483577  0.4319909699313271  0.7984154396614045  1.0000
  C   C44       1.0  0.4077922764592827  0.5680033451710571  0.298408093321008  1.0000
  C   C45       1.0  0.9889427091632114  0.4892659277654302  0.38508248111266136  1.0000
  C   C46       1.0  0.5110513212099477  0.510742500708936  0.8850795800689394  1.0000
  C   C47       1.0  0.011065659010227954  0.5107295872157636  0.6149223420222469  1.0000
  C   C48       1.0  0.48894110546341096  0.4892737731412423  0.11491980181257588  1.0000
  C   C49       1.0  0.49188081199574163  0.9928308059964194  0.0350730386765576  1.0000
  C   C50       1.0  0.0081212788501688  0.0071909334359077015  0.5350846835010188  1.0000
  C   C51       1.0  0.5081174230726546  0.007194800194838501  0.9649177280165869  1.0000
  C   C52       1.0  0.9918825756255315  0.9928196317168342  0.4649273944983535  1.0000
  C   C53       1.0  0.002848113710435021  0.480588817514395  0.0336724969904054  1.0000
  C   C54       1.0  0.49715984794391227  0.5194097563086117  0.5336698707523907  1.0000
  C   C55       1.0  0.9971493440765826  0.5194112498695918  0.9663286986544006  1.0000
  C   C56       1.0  0.5028556683251111  0.4805846569677785  0.46632679064418875  1.0000
  N   N1        1.0  0.013632685564679987  0.11833443178321092  0.11822844100127129  1.0000
  N   N2        1.0  0.4863808353926872  0.8816689904910789  0.6182292644495674  1.0000
  N   N3        1.0  0.9863714738743425  0.8816680119184427  0.8817709409361142  1.0000
  N   N4        1.0  0.5136208310169437  0.11832414816593229  0.38177147778682036  1.0000
  N   N5        1.0  0.9484722471708976  0.45554652215403024  0.21548234709090508  1.0000
  N   N6        1.0  0.5515343719755564  0.5444512431732208  0.7154796027872833  1.0000
  N   N7        1.0  0.051527279660568574  0.54444892001532  0.78452247601664  1.0000
  N   N8        1.0  0.4484741374545321  0.45554891522355934  0.2845197791668213  1.0000
  O   O1        1.0  0.6761896467464082  0.7844800782049716  0.9988115959092169  1.0000
  O   O2        1.0  0.8238109789436335  0.21553094146911891  0.49881424007953257  1.0000
  O   O3        1.0  0.323809269513383  0.21553160682898212  0.0011846119803138  1.0000
  O   O4        1.0  0.17619162890986922  0.784474971155035  0.5011928501790095  1.0000
  O   O5        1.0  0.7797274995733331  0.6222063832947241  0.0248731575978596  1.0000
  O   O6        1.0  0.7202810839273255  0.37780264226531574  0.5248796380685263  1.0000
  O   O7        1.0  0.22027694246499147  0.37780534724311826  0.9751198762901865  1.0000
  O   O8        1.0  0.27972307564070314  0.6221998014438554  0.475126545337254  1.0000
  O   O9        1.0  0.04804674932785247  0.39604753419751404  0.3928478733077654  1.0000
  O   O10       1.0  0.4519318063060922  0.6039537999558604  0.8928397409562193  1.0000
  O   O11       1.0  0.9519555051088132  0.6039467698716408  0.6071583101035358  1.0000
  O   O12       1.0  0.5480455237738724  0.3960565467398355  0.10715283941832607  1.0000
  O   O13       1.0  0.9531879470169217  0.5566753564244992  0.426891355045818  1.0000
  O   O14       1.0  0.5468161123483026  0.44335644524568346  0.9268906792064158  1.0000
  O   O15       1.0  0.04682637104900774  0.4433341343273867  0.5731121077942589  1.0000
  O   O16       1.0  0.4531796780410033  0.5566795859009942  0.07310960952024459  1.0000
  O   O17       1.0  0.8645572655157993  0.3831417073580213  0.05759652820113809  1.0000
  O   O18       1.0  0.6354432712113718  0.6168707956952486  0.5575927414612636  1.0000
  O   O19       1.0  0.13543464398245667  0.6168757228008204  0.9424064811269588  1.0000
  O   O20       1.0  0.36456081748752917  0.38312932629209945  0.44240346646057555  1.0000
  O   O21       1.0  0.1426039358137103  0.5468219135397591  0.060077952100535  1.0000
  O   O22       1.0  0.35740239312787747  0.4531627701595228  0.5600773643359176  1.0000
  O   O23       1.0  0.8573969305893031  0.4531630945762047  0.9399205229886575  1.0000
  O   O24       1.0  0.6426067266932803  0.5468211453621379  0.4399211107804462  1.0000
  O   O25       1.0  0.4256944645723594  0.8558602554995717  0.056879440029931096  1.0000
  O   O26       1.0  0.07429631909073459  0.14414402371511406  0.5568897509362216  1.0000
  O   O27       1.0  0.5742933292354383  0.14414901680327571  0.9431117800849549  1.0000
  O   O28       1.0  0.9256989992471247  0.8558583471887361  0.44312232704814386  1.0000
  O   O29       1.0  0.545608770990249  0.11829365755780691  0.0646916547849159  1.0000
  O   O30       1.0  0.9543973489980359  0.8817119415652642  0.564704522094253  1.0000
  O   O31       1.0  0.4543888985871403  0.8817133749440487  0.9352963913451973  1.0000
  O   O32       1.0  0.045615510689721396  0.11828593154216088  0.435308916244594  1.0000
