data_image0
_chemical_formula_structural       Cu2H22C24I2N4
_chemical_formula_sum              "Cu2 H22 C24 I2 N4"
_cell_length_a       7.094870629989608
_cell_length_b       8.637343433516193
_cell_length_c       10.392315132108044
_cell_angle_alpha    66.50909565199113
_cell_angle_beta     88.31668181089152
_cell_angle_gamma    76.63532205357872

_space_group_name_H-M_alt    "P 1"
_space_group_IT_number       1

loop_
  _space_group_symop_operation_xyz
  'x, y, z'

loop_
  _atom_site_type_symbol
  _atom_site_label
  _atom_site_symmetry_multiplicity
  _atom_site_fract_x
  _atom_site_fract_y
  _atom_site_fract_z
  _atom_site_occupancy
  Cu  Cu1       1.0  0.42572373611603337  0.9003298596846819  0.09345967025467412  1.0000
  Cu  Cu2       1.0  0.5742716369231573  0.09966822386304132  0.9065409830731637  1.0000
  H   H1        1.0  0.204878024296569  0.3923436749943292  0.6774884251692014  1.0000
  H   H2        1.0  0.7951338720443952  0.6076618448431077  0.3225142388921184  1.0000
  H   H3        1.0  0.16942071520617918  0.630707988911503  0.7603874392580251  1.0000
  H   H4        1.0  0.8305894672719274  0.36929882551333987  0.2396177278859923  1.0000
  H   H5        1.0  0.19102283246613888  0.925064275074284  0.5992275484620606  1.0000
  H   H6        1.0  0.8089798601953291  0.07494406823013829  0.4007667039370729  1.0000
  H   H7        1.0  0.2661703602342412  0.9915053935356681  0.3474058045484725  1.0000
  H   H8        1.0  0.7338295196557991  0.008491396263941901  0.6525874708453614  1.0000
  H   H9        1.0  0.25039221512002996  0.23143703496059226  0.5409222156668534  1.0000
  H   H10       1.0  0.7496197485106606  0.7685568240580593  0.4590852149892015  1.0000
  H   H11       1.0  0.41398533265731163  0.20805665919895938  0.41346826616685906  1.0000
  H   H12       1.0  0.5860196409543119  0.7919425453152654  0.5865327664861084  1.0000
  H   H13       1.0  0.1562851213961451  0.2725439443374214  0.3700612670138099  1.0000
  H   H14       1.0  0.843723220206506  0.7274474069811774  0.6299451394381561  1.0000
  H   H15       1.0  0.2876764052922879  0.24987962868925712  0.06753216218649528  1.0000
  H   H16       1.0  0.7123181347430645  0.7501275301595809  0.9324655480012891  1.0000
  H   H17       1.0  0.00509725161909808  0.7577737464934912  0.0495345879187426  1.0000
  H   H18       1.0  0.99490107704743  0.24222947409684534  0.9504633596722483  1.0000
  H   H19       1.0  0.4552943156866148  0.3823781582663628  0.17045180232924642  1.0000
  H   H20       1.0  0.5447077936953447  0.6176211338976003  0.8295454173512051  1.0000
  H   H21       1.0  0.42146995521724046  0.6044458168978364  0.05390399705342481  1.0000
  H   H22       1.0  0.5785243466125748  0.3955509613910878  0.9460999933567747  1.0000
  C   C1        1.0  0.27595697606494707  0.7286605408834247  0.3728025095319296  1.0000
  C   C2        1.0  0.7240440383604109  0.2713374755180809  0.6271951512896122  1.0000
  C   C3        1.0  0.2541829460061535  0.5616814478993601  0.4643984378063094  1.0000
  C   C4        1.0  0.7458226860904417  0.4383151371044177  0.535605359473834  1.0000
  C   C5        1.0  0.21759542916469599  0.5214981176555114  0.6055306056778703  1.0000
  C   C6        1.0  0.7824114288648828  0.4785049186425141  0.39447105832061163  1.0000
  C   C7        1.0  0.19833840163528285  0.655842384585199  0.6510446865678432  1.0000
  C   C8        1.0  0.801666726699949  0.3441619659644672  0.3489575498858244  1.0000
  C   C9        1.0  0.21196837957027262  0.824028468437277  0.5589676226245572  1.0000
  C   C10       1.0  0.7880342058620398  0.1759746698390217  0.4410312178564267  1.0000
  C   C11       1.0  0.2518023915944312  0.8627751299203367  0.4190132745045502  1.0000
  C   C12       1.0  0.7481932711085406  0.1372216930327426  0.5809839345680883  1.0000
  C   C13       1.0  0.31922939993681604  0.568515407142918  0.2513570502887248  1.0000
  C   C14       1.0  0.680762037663335  0.4314814587957442  0.7486431271489591  1.0000
  C   C15       1.0  0.27477748354935017  0.28354282792412977  0.4287124540597133  1.0000
  C   C16       1.0  0.7252288149479468  0.7164511277370875  0.5712950731613659  1.0000
  C   C17       1.0  0.16792653338276858  0.5039931255549988  0.06744015412566993  1.0000
  C   C18       1.0  0.832065003530793  0.4960089552439086  0.9325544699164039  1.0000
  C   C19       1.0  0.16121141502220834  0.3602887800160986  0.038318569647216784  1.0000
  C   C20       1.0  0.8387773130718938  0.6397133196077434  0.9616789986186444  1.0000
  C   C21       1.0  0.00419496225075019  0.6439910607073855  0.02835749397100784  1.0000
  C   C22       1.0  0.9957962533360741  0.3560123200146279  0.971636713071234  1.0000
  C   C23       1.0  0.3521753124365785  0.5105567422689674  0.13399078942745749  1.0000
  C   C24       1.0  0.6478175493626636  0.4894400896769396  0.8660103291827211  1.0000
  I   I1        1.0  0.29558872925390023  0.994851073110553  0.8379645308386255  1.0000
  I   I2        1.0  0.704407746657644  0.005148276367528097  0.16203664666188183  1.0000
  N   N1        1.0  0.31968312063151666  0.7275747558037439  0.24185851400024205  1.0000
  N   N2        1.0  0.6803125499871924  0.2724220573172218  0.7581396603861561  1.0000
  N   N3        1.0  0.28067832001588033  0.4645614001338886  0.3832746248169556  1.0000
  N   N4        1.0  0.7193262092083614  0.5354339189395391  0.6167286482905182  1.0000
