data_image0
_chemical_formula_structural       Cu4H22C24N4Cl6O4
_chemical_formula_sum              "Cu4 H22 C24 N4 Cl6 O4"
_cell_length_a       7.625468137557044
_cell_length_b       8.865936787980853
_cell_length_c       11.889633064274605
_cell_angle_alpha    78.55474247644992
_cell_angle_beta     76.81128924406892
_cell_angle_gamma    66.67331994093531

_space_group_name_H-M_alt    "P 1"
_space_group_IT_number       1

loop_
  _space_group_symop_operation_xyz
  'x, y, z'

loop_
  _atom_site_type_symbol
  _atom_site_label
  _atom_site_symmetry_multiplicity
  _atom_site_fract_x
  _atom_site_fract_y
  _atom_site_fract_z
  _atom_site_occupancy
  Cu  Cu1       1.0  0.43417816386269703  0.018760589468783496  0.15784214246341577  1.0000
  Cu  Cu2       1.0  0.5656443245856908  0.9814497003342808  0.8420550698412796  1.0000
  Cu  Cu3       1.0  0.1962191947084619  0.0226250955050915  0.3876999973294346  1.0000
  Cu  Cu4       1.0  0.8035464736067653  0.9775521291353968  0.6122561653963742  1.0000
  H   H1        1.0  0.48919315404732094  0.5187177032566693  0.25123079003602555  1.0000
  H   H2        1.0  0.5107962174954183  0.481416477698403  0.7485373646201339  1.0000
  H   H3        1.0  0.8404403758209043  0.45052626765426845  0.16926440475712204  1.0000
  H   H4        1.0  0.1594720077891055  0.5495998394725773  0.8303290257973117  1.0000
  H   H5        1.0  0.02993836311758713  0.17903984544970797  0.08926112795101199  1.0000
  H   H6        1.0  0.9700346210299676  0.8207905195193632  0.91080307651373  1.0000
  H   H7        1.0  0.8526864504920233  0.9943209632028099  0.08446527258082162  1.0000
  H   H8        1.0  0.14733007268904427  0.0053199434004654  0.9160311505450167  1.0000
  H   H9        1.0  0.26984842658029623  0.5484852059356626  0.4074568428248568  1.0000
  H   H10       1.0  0.729340515146994  0.45174309216932335  0.5927865651453104  1.0000
  H   H11       1.0  0.2608157539380259  0.5117623549021459  0.6198583967037194  1.0000
  H   H12       1.0  0.7384448752007418  0.48824092195746266  0.3803447617526388  1.0000
  H   H13       1.0  0.24405166354112137  0.24615121379795832  0.7384100288837133  1.0000
  H   H14       1.0  0.756445373683889  0.7534146252414756  0.2615985907243328  1.0000
  H   H15       1.0  0.2248681725615285  0.03323988119048241  0.6338667852774549  1.0000
  H   H16       1.0  0.7762463710901103  0.9662140684169105  0.3659836899575311  1.0000
  H   H17       1.0  0.0413859720303051  0.6342738543499992  0.10564580362907353  1.0000
  H   H18       1.0  0.9589295588631687  0.3659904806511349  0.8942857431507818  1.0000
  H   H19       1.0  0.17427329996196056  0.4268173192007795  0.07025142337302269  1.0000
  H   H20       1.0  0.8259162837937098  0.5734057618101787  0.929651494053907  1.0000
  H   H21       1.0  0.3004687717272816  0.5535164042555182  0.08371725365383753  1.0000
  H   H22       1.0  0.6999867214460239  0.4464187566992521  0.9162810818919453  1.0000
  C   C1        1.0  0.2829181396987153  0.31264273897876643  0.2762660487453061  1.0000
  C   C2        1.0  0.7169137243488565  0.6875094155858433  0.7237124603684819  1.0000
  C   C3        1.0  0.4919163078722306  0.28775608633813493  0.21743981745834157  1.0000
  C   C4        1.0  0.5080183970099557  0.7122596751444873  0.7825923417808411  1.0000
  C   C5        1.0  0.5760493897411081  0.40200637439588865  0.21610908598208312  1.0000
  C   C6        1.0  0.42392587735609744  0.5980463208478144  0.7837717979857003  1.0000
  C   C7        1.0  0.7709774115639051  0.36435180683120194  0.16934700577731118  1.0000
  C   C8        1.0  0.22898235176576526  0.6356627470398026  0.8304855733566043  1.0000
  C   C9        1.0  0.8761331734003053  0.2145801862446746  0.12382864204202089  1.0000
  C   C10       1.0  0.12382454651289276  0.7853144670455023  0.8762164757104215  1.0000
  C   C11       1.0  0.7807938348182902  0.11048636964979863  0.1221747629799594  1.0000
  C   C12       1.0  0.21917333396265812  0.8893216542148252  0.8780761796416812  1.0000
  C   C13       1.0  0.2652209133909835  0.3060830510382075  0.4078548779562751  1.0000
  C   C14       1.0  0.7345569644962141  0.6940002357272946  0.5921698465700018  1.0000
  C   C15       1.0  0.26697773882795434  0.4333566938667488  0.45937590670713035  1.0000
  C   C16       1.0  0.7325244389379717  0.5667403607736149  0.5407590646512901  1.0000
  C   C17       1.0  0.2604862984901075  0.4123817477019429  0.5791078967288712  1.0000
  C   C18       1.0  0.7391783943110326  0.587553952280146  0.4210148843289545  1.0000
  C   C19       1.0  0.24969136626690164  0.2665195343323177  0.6444810153403253  1.0000
  C   C20       1.0  0.7505306764135118  0.733221847632798  0.3555496196038987  1.0000
  C   C21       1.0  0.24142659340967035  0.1472684785982636  0.5881355514058839  1.0000
  C   C22       1.0  0.7591147536441559  0.8524169182775979  0.41179465755454453  1.0000
  C   C23       1.0  0.1701333008894253  0.5229839535332844  0.1178446471731931  1.0000
  C   C24       1.0  0.8301262888153647  0.4771930301666956  0.8821067372894261  1.0000
  N   N1        1.0  0.24987697255065916  0.1672655595727051  0.4720892673848596  1.0000
  N   N2        1.0  0.7503200690586739  0.8326315613552568  0.5278596051963478  1.0000
  N   N3        1.0  0.5922505580564347  0.1470178689382706  0.1680266568482693  1.0000
  N   N4        1.0  0.4076623242888787  0.8529127342313104  0.8321325636329746  1.0000
  Cl  Cl1       1.0  0.661023723978687  0.8179374927923108  0.056404053286321656  1.0000
  Cl  Cl2       1.0  0.3388714029959275  0.1820747318334384  0.9436901269405168  1.0000
  Cl  Cl3       1.0  0.24062667003776292  0.8661141489600936  0.24168819144534837  1.0000
  Cl  Cl4       1.0  0.7591210179372541  0.13412986848484112  0.7582236874597044  1.0000
  Cl  Cl5       1.0  0.19588200099633482  0.8226764828852497  0.5360226179612297  1.0000
  Cl  Cl6       1.0  0.8044357886181219  0.17726817311672252  0.4638571629997088  1.0000
  O   O1        1.0  0.23195481013107874  0.18753892950971365  0.2520167185615918  1.0000
  O   O2        1.0  0.7677280370329241  0.8127572623304362  0.747927430935121  1.0000
  O   O3        1.0  0.152856574486549  0.4726473062353805  0.2409366474528554  1.0000
  O   O4        1.0  0.8472915598013274  0.527588326937  0.7589899997721402  1.0000
