data_image0
_chemical_formula_structural       Y6H26C20S4O26
_chemical_formula_sum              "Y6 H26 C20 S4 O26"
_cell_length_a       7.209212273877095
_cell_length_b       9.223805105705543
_cell_length_c       14.33528437299806
_cell_angle_alpha    76.83721669476067
_cell_angle_beta     76.90182305632548
_cell_angle_gamma    79.30951079452365

_space_group_name_H-M_alt    "P 1"
_space_group_IT_number       1

loop_
  _space_group_symop_operation_xyz
  'x, y, z'

loop_
  _atom_site_type_symbol
  _atom_site_label
  _atom_site_symmetry_multiplicity
  _atom_site_fract_x
  _atom_site_fract_y
  _atom_site_fract_z
  _atom_site_occupancy
  Y   Y1        1.0  0.05698569764235366  0.6485710910817135  0.5571318856097563  1.0000
  Y   Y2        1.0  0.9430138132278783  0.35143018506421  0.4428665271996196  1.0000
  Y   Y3        1.0  0.7330222293567771  0.9858112746915567  0.5488240401216515  1.0000
  Y   Y4        1.0  0.2669787051147381  0.014190004543863202  0.45117420888414034  1.0000
  Y   Y5        1.0  0.5723305936693986  0.6477493242375872  0.5561970759020768  1.0000
  Y   Y6        1.0  0.427670348245762  0.3522519391114471  0.4438025697054187  1.0000
  H   H1        1.0  0.04872894772784521  0.8975491732996161  0.6463492739635371  1.0000
  H   H2        1.0  0.9512691395410968  0.1024520997568032  0.35364930264941563  1.0000
  H   H3        1.0  0.3649222065127518  0.895684214414402  0.647397726993198  1.0000
  H   H4        1.0  0.6350770936416198  0.1043181943114817  0.3525998512520162  1.0000
  H   H5        1.0  0.3846633062540477  0.7231098034672173  0.3987153762326868  1.0000
  H   H6        1.0  0.6153347921803628  0.276891445759631  0.6012852952828212  1.0000
  H   H7        1.0  0.6643563073112801  0.5869130292871888  0.3563905178630052  1.0000
  H   H8        1.0  0.33564035635637884  0.4130882406797341  0.6436082225535316  1.0000
  H   H9        1.0  0.8468399404470407  0.3925134401969714  0.6400286491213694  1.0000
  H   H10       1.0  0.1531595741450147  0.6074878280057591  0.35997046198885846  1.0000
  H   H11       1.0  0.870589308461973  0.800063317004039  0.3929484601228382  1.0000
  H   H12       1.0  0.12940878252879173  0.19993794810919502  0.6070508147909734  1.0000
  H   H13       1.0  0.720462105545124  0.7170904411712657  0.7117353033892188  1.0000
  H   H14       1.0  0.279535981723825  0.2829108318851539  0.28826327322373413  1.0000
  H   H15       1.0  0.48831942199744544  0.4575098935372708  0.8653153706906452  1.0000
  H   H16       1.0  0.5116770346761824  0.542492501066427  0.13468323346258154  1.0000
  H   H17       1.0  0.4662823433169763  0.29376582794619566  0.030665836549658813  1.0000
  H   H18       1.0  0.5337145236228977  0.7062343253271524  0.9693323418293361  1.0000
  H   H19       1.0  0.1537136884252774  0.2801857550196943  0.14262957944444574  1.0000
  H   H20       1.0  0.8462860294389856  0.7198143964894541  0.8573689696282403  1.0000
  H   H21       1.0  0.9140606423851667  0.1883326371614658  0.8844315182040037  1.0000
  H   H22       1.0  0.0859454094754639  0.8116641130794093  0.115570275948528  1.0000
  H   H23       1.0  0.8866717156138009  0.12870108334980304  0.06601399546627111  1.0000
  H   H24       1.0  0.11333311963958437  0.8712945391648079  0.9339880987531545  1.0000
  H   H25       1.0  0.6257097244234089  0.9981066081991871  0.17123321411839504  1.0000
  H   H26       1.0  0.37429164264528947  0.0018923820467406994  0.8287687989182688  1.0000
  C   C1        1.0  0.18966811854159724  0.5472234309327747  0.8895518016665208  1.0000
  C   C2        1.0  0.810331599322673  0.45277672057637375  0.11044674740616506  1.0000
  C   C3        1.0  0.3519226066619651  0.4579376706468567  0.9167066104242495  1.0000
  C   C4        1.0  0.6480744747155923  0.542061342103338  0.08329310081975902  1.0000
  C   C5        1.0  0.3377896692418573  0.363870866646586  0.009606181323029296  1.0000
  C   C6        1.0  0.6622059885344171  0.6361281430141048  0.9903936937245562  1.0000
  C   C7        1.0  0.16306333605117374  0.3581566213541549  0.07270792328190369  1.0000
  C   C8        1.0  0.8369321110092399  0.6418435208864965  0.927291117201527  1.0000
  C   C9        1.0  0.005805009141582174  0.5492892759495406  0.9530163999504424  1.0000
  C   C10       1.0  0.9941932813995746  0.4507108804132969  0.04698161462496848  1.0000
  C   C11       1.0  0.6634577579511927  0.09205634036023722  0.8892795002003525  1.0000
  C   C12       1.0  0.3365489148915444  0.9079370359703276  0.11072270274210894  1.0000
  C   C13       1.0  0.7970166912862381  0.13122934866889577  0.9311415925615736  1.0000
  C   C14       1.0  0.20298793697310916  0.8687673984824898  0.06886036539454213  1.0000
  C   C15       1.0  0.7817441571272353  0.09683914925316371  0.03334833055371429  1.0000
  C   C16       1.0  0.21825947268436616  0.9031553217056043  0.9666561586351462  1.0000
  C   C17       1.0  0.6348255456667574  0.0232871576216738  0.0925713891082438  1.0000
  C   C18       1.0  0.3651752257768023  0.9767073309876723  0.9074313327852296  1.0000
  C   C19       1.0  0.5064219929415755  0.017607501370612497  0.947680915903888  1.0000
  C   C20       1.0  0.49358120799465877  0.9823892506344619  0.05232050755495981  1.0000
  S   S1        1.0  0.2115573821838979  0.6532061168419504  0.7693618907591927  1.0000
  S   S2        1.0  0.7884394921996218  0.346794020545012  0.23063768422149886  1.0000
  S   S3        1.0  0.6921562954415492  0.14607598309565623  0.7593136893774146  1.0000
  S   S4        1.0  0.3078534099626467  0.8539241423808334  0.24068790287530117  1.0000
  O   O1        1.0  0.07838458724357623  0.597773151226228  0.7248272206417283  1.0000
  O   O2        1.0  0.921615130620694  0.40222700028292013  0.27517132843095043  1.0000
  O   O3        1.0  0.4144145225465365  0.6152941571793492  0.7225794550227462  1.0000
  O   O4        1.0  0.585582351836983  0.3847059802076133  0.2774201199579522  1.0000
  O   O5        1.0  0.15960913393842446  0.8140964679952064  0.771193787377193  1.0000
  O   O6        1.0  0.8403865275596728  0.1859025337222988  0.22880678597124424  1.0000
  O   O7        1.0  0.6953663525328793  0.008459627536808501  0.7209286329289313  1.0000
  O   O8        1.0  0.30463701887494926  0.9915438992079543  0.27906971424393845  1.0000
  O   O9        1.0  0.8757227239378196  0.20745610339447754  0.7251867575321642  1.0000
  O   O10       1.0  0.1242845482518788  0.7925417666294764  0.2748154348543324  1.0000
  O   O11       1.0  0.5255974879701952  0.2590961832340781  0.738952189580303  1.0000
  O   O12       1.0  0.47441323821267645  0.7409061707758795  0.2610510612447712  1.0000
  O   O13       1.0  0.044311861137423164  0.9016223582299855  0.5780836356989242  1.0000
  O   O14       1.0  0.9556876497328091  0.0983789179159302  0.4219147771104517  1.0000
  O   O15       1.0  0.4364155157010784  0.9075361951873901  0.5802184242938325  1.0000
  O   O16       1.0  0.5635864209400053  0.09246735229744732  0.41977799178005887  1.0000
  O   O17       1.0  0.3369170999060672  0.7575414707688208  0.4609204936855562  1.0000
  O   O18       1.0  0.6630783583198152  0.24245864764226605  0.5390806417004157  1.0000
  O   O19       1.0  0.6568508353900668  0.5240424382364068  0.42149579300282625  1.0000
  O   O20       1.0  0.34314867920198816  0.47595882996632355  0.5785033181073944  1.0000
  O   O21       1.0  0.8512750549639847  0.4672000727507495  0.5785034833535792  1.0000
  O   O22       1.0  0.1487230360267802  0.5328011923624769  0.4214957915602255  1.0000
  O   O23       1.0  0.8239015825799001  0.7826755900308839  0.4634124634605855  1.0000
  O   O24       1.0  0.1760965084108719  0.2173256750823498  0.5365868114532192  1.0000
  O   O25       1.0  0.7529201677570042  0.7341876547990225  0.6411457443228488  1.0000
  O   O26       1.0  0.24707791951194477  0.26581361825739697  0.3588528322901041  1.0000
