data_image0
_chemical_formula_structural       K4H68C36S8O20
_chemical_formula_sum              "K4 H68 C36 S8 O20"
_cell_length_a       9.066062053940323
_cell_length_b       11.556813386000227
_cell_length_c       13.735578407491515
_cell_angle_alpha    90.00002247774123
_cell_angle_beta     104.64143235987702
_cell_angle_gamma    89.99999108131144

_space_group_name_H-M_alt    "P 1"
_space_group_IT_number       1

loop_
  _space_group_symop_operation_xyz
  'x, y, z'

loop_
  _atom_site_type_symbol
  _atom_site_label
  _atom_site_symmetry_multiplicity
  _atom_site_fract_x
  _atom_site_fract_y
  _atom_site_fract_z
  _atom_site_occupancy
  K   K1        1.0  0.7700557101440993  0.5335009432411651  0.5136966036159408  1.0000
  K   K2        1.0  0.7700575017468623  0.9664930220580386  0.013698112351818335  1.0000
  K   K3        1.0  0.22993693088199757  0.46649460959781647  0.486297775843923  1.0000
  K   K4        1.0  0.2299465454252001  0.033504261362395496  0.9863018028659739  1.0000
  H   H1        1.0  0.7628236540580531  0.2806691718375162  0.660169639054061  1.0000
  H   H2        1.0  0.7628243224508822  0.21933034738614765  0.1601694235002782  1.0000
  H   H3        1.0  0.23717697416844175  0.7193315727448778  0.33983043601040924  1.0000
  H   H4        1.0  0.2371763057756482  0.7806695319058148  0.8398306515640571  1.0000
  H   H5        1.0  0.9567730618548894  0.6367161680701371  0.22553018999136037  1.0000
  H   H6        1.0  0.9567735270982496  0.8632839303109632  0.725530621201159  1.0000
  H   H7        1.0  0.0432275663716126  0.3632845765122496  0.7744698850731169  1.0000
  H   H8        1.0  0.0432271011282808  0.13671594898099926  0.2744694538631762  1.0000
  H   H9        1.0  0.7578551546766833  0.6297860677776228  0.2196433106399455  1.0000
  H   H10       1.0  0.7578556182239355  0.8702140520924713  0.7196430158177379  1.0000
  H   H11       1.0  0.242144332355565  0.37021381151419763  0.78035584673394  1.0000
  H   H12       1.0  0.24214386880831282  0.1297858271993491  0.2803561415561547  1.0000
  H   H13       1.0  0.9990150689645177  0.7317449964059292  0.3981109974954152  1.0000
  H   H14       1.0  0.9990132603389412  0.7682551773188137  0.8981102914224836  1.0000
  H   H15       1.0  0.0009855604213627003  0.2682548828862109  0.6018898057982938  1.0000
  H   H16       1.0  0.0009862278526640005  0.23174470197317015  0.1018895941807756  1.0000
  H   H17       1.0  0.8942564310497119  0.8162042468271621  0.2949902625044274  1.0000
  H   H18       1.0  0.8942557690006795  0.6837958915659568  0.7949897191127067  1.0000
  H   H19       1.0  0.1057441971767901  0.1837964977552246  0.7050098125600499  1.0000
  H   H20       1.0  0.10574371919092582  0.3162039877260341  0.2050101664905526  1.0000
  H   H21       1.0  0.8714681830963827  0.8333552206440299  0.5130781213802893  1.0000
  H   H22       1.0  0.8714677155349622  0.6666447890440208  0.013077699660108516  1.0000
  H   H23       1.0  0.12853244628949773  0.16664465864810296  0.4869226819134198  1.0000
  H   H24       1.0  0.12853177265664334  0.3333550902479628  0.9869221859431505  1.0000
  H   H25       1.0  0.7766538657992329  0.9189324250461862  0.4071864706762512  1.0000
  H   H26       1.0  0.7766543517416977  0.5810686452925535  0.9071860841732756  1.0000
  H   H27       1.0  0.22334676358661204  0.08106831953637789  0.5928143326175999  1.0000
  H   H28       1.0  0.2233462764847687  0.4189329645802714  0.0928139908913366  1.0000
  H   H29       1.0  0.6230941730197871  0.9201395425935811  0.5274551850093587  1.0000
  H   H30       1.0  0.6230948522149904  0.5798605040599084  0.027454925233172438  1.0000
  H   H31       1.0  0.3769053151717543  0.07986206727926508  0.4725447005941774  1.0000
  H   H32       1.0  0.3769046359766151  0.42013937523208245  0.9725449603700866  1.0000
  H   H33       1.0  0.524738382828943  0.8359597443977475  0.42064151222614754  1.0000
  H   H34       1.0  0.5247388635043393  0.664039632327217  0.9206418802607886  1.0000
  H   H35       1.0  0.47526110536262683  0.16404100018466744  0.5793583733772465  1.0000
  H   H36       1.0  0.47526062468726604  0.3359602469647739  0.07935800534247056  1.0000
  H   H37       1.0  0.4747719365075155  0.8238102503746203  0.6171773223254959  1.0000
  H   H38       1.0  0.4747714682068037  0.6761898561950728  0.11717690363179406  1.0000
  H   H39       1.0  0.5252286928783291  0.17619049420794394  0.382823480968348  1.0000
  H   H40       1.0  0.5252291611790769  0.3238100230970601  0.882823899661915  1.0000
  H   H41       1.0  0.3923212195122758  0.718510445631352  0.5240249991042631  1.0000
  H   H42       1.0  0.39232074189642674  0.7814896275379364  0.02402388556905782  1.0000
  H   H43       1.0  0.6076782709980008  0.28149029895140376  0.4759763429578713  1.0000
  H   H44       1.0  0.6076787462951785  0.21851025175405428  0.9759760000342013  1.0000
  H   H45       1.0  0.6243108495146574  0.6622259313283221  0.7225403883723659  1.0000
  H   H46       1.0  0.6243115087337117  0.8377733408726156  0.22254021037386457  1.0000
  H   H47       1.0  0.3756886398362981  0.3377739479638322  0.2774602254602598  1.0000
  H   H48       1.0  0.3756879794578936  0.16222653841937523  0.7774596752293945  1.0000
  H   H49       1.0  0.42302260821320203  0.6611296174543354  0.708974123656603  1.0000
  H   H50       1.0  0.4230232673473111  0.8388705382333654  0.20897394600585534  1.0000
  H   H51       1.0  0.5769768799784031  0.3388702618376555  0.2910257619466563  1.0000
  H   H52       1.0  0.5769773608792194  0.16112934105859716  0.7910261290584871  1.0000
  H   H53       1.0  0.5026393512911226  0.47690756404340806  0.769528620802042  1.0000
  H   H54       1.0  0.5026400360425499  0.023092037883515097  0.2695290712554624  1.0000
  H   H55       1.0  0.4973601369004825  0.5230923152485827  0.23047126480121696  1.0000
  H   H56       1.0  0.49736059218398054  0.9769078414084473  0.7304710038088729  1.0000
  H   H57       1.0  0.4729654936865018  0.37055296610591865  0.6723126633709597  1.0000
  H   H58       1.0  0.4729661702004152  0.12944745938599306  0.17231314754683785  1.0000
  H   H59       1.0  0.5270339945050964  0.6294469131860649  0.3276872222322993  1.0000
  H   H60       1.0  0.5270344591854297  0.870553285196571  0.8276876557470061  1.0000
  H   H61       1.0  0.776876547483326  0.49768489695838264  0.7517995381288287  1.0000
  H   H62       1.0  0.7768760926497366  0.0023146632885939996  0.2517990643038317  1.0000
  H   H63       1.0  0.22312408190255437  0.5023149823337504  0.24820126516488022  1.0000
  H   H64       1.0  0.22312339554186172  0.9976852160033969  0.7482008212994274  1.0000
  H   H65       1.0  0.7352189372309182  0.36053637713732906  0.7966733846862583  1.0000
  H   H66       1.0  0.7352184717747363  0.13946407440413813  0.2966729543476988  1.0000
  H   H67       1.0  0.2647805521200368  0.6394635021548324  0.20332722914636756  1.0000
  H   H68       1.0  0.2647810164168689  0.8605358048878526  0.7033269312555605  1.0000
  C   C1        1.0  0.8622926241762059  0.42379417442830886  0.2949891975649024  1.0000
  C   C2        1.0  0.8622931128139515  0.07620626084620598  0.7949902659790382  1.0000
  C   C3        1.0  0.1377068616966923  0.5762057048633407  0.7050092315796093  1.0000
  C   C4        1.0  0.13770751425322914  0.9237936184455928  0.20500908085593042  1.0000
  C   C5        1.0  0.8725501566451969  0.6337785227106775  0.2706112768097739  1.0000
  C   C6        1.0  0.872549480466745  0.8662216069568413  0.7706107912605732  1.0000
  C   C7        1.0  0.1274493315464085  0.3662213565813131  0.7293886087934851  1.0000
  C   C8        1.0  0.12745000772486043  0.13377827233514944  0.22938909434267882  1.0000
  C   C9        1.0  0.8908543423008412  0.7369142343161241  0.33938403859441735  1.0000
  C   C10       1.0  0.8908548141454916  0.7630859251963426  0.839383709804608  1.0000
  C   C11       1.0  0.1091451470501141  0.2630856449760372  0.6606165752382155  1.0000
  C   C12       1.0  0.1091446740461137  0.23691395409564817  0.1606161757986513  1.0000
  C   C13       1.0  0.769780176009526  0.8379101006460556  0.4487332867077357  1.0000
  C   C14       1.0  0.7697806568359483  0.662090124616952  0.948733654124105  1.0000
  C   C15       1.0  0.23022045221697604  0.16209064393633804  0.5512667883567417  1.0000
  C   C16       1.0  0.2302199713905466  0.33791061996544136  0.0512664209403724  1.0000
  C   C17       1.0  0.6264789935313573  0.839160462523651  0.4850970154498667  1.0000
  C   C18       1.0  0.6264783344197014  0.6608397971579192  0.9850971930087056  1.0000
  C   C19       1.0  0.3735216346951091  0.16084114734917415  0.5149030596147526  1.0000
  C   C20       1.0  0.37352115377187534  0.3391609474244957  0.01490269259469559  1.0000
  C   C21       1.0  0.4931256046951447  0.7383576204916976  0.5860163104684659  1.0000
  C   C22       1.0  0.4931251297758692  0.7616424693086967  0.08601591886960593  1.0000
  C   C23       1.0  0.5068738846557821  0.2616431240908951  0.41398430336430186  1.0000
  C   C24       1.0  0.5068743584157359  0.23835740998329397  0.9139839667336531  1.0000
  C   C25       1.0  0.5128328637765237  0.6496619084865852  0.6684253713881106  1.0000
  C   C26       1.0  0.5128323819875008  0.8503382173477119  0.16842500791239703  1.0000
  C   C27       1.0  0.48716776560936387  0.35033797080555446  0.33157543190559846  1.0000
  C   C28       1.0  0.4871682462390013  0.14966252723468185  0.8315750671520803  1.0000
  C   C29       1.0  0.5396884132865409  0.44773687531837686  0.7027925380819084  1.0000
  C   C30       1.0  0.5396879545843306  0.052262690969470775  0.2027920800941558  1.0000
  C   C31       1.0  0.4603122149399896  0.5522630039735859  0.29720753698243396  1.0000
  C   C32       1.0  0.46031153244795325  0.947736323031925  0.7972070772795945  1.0000
  C   C33       1.0  0.7081317805821216  0.4183559350744017  0.7306512539441528  1.0000
  C   C34       1.0  0.7081324596391596  0.08164448897498029  0.23065099473356554  1.0000
  C   C35       1.0  0.2918677076094482  0.5816448095080203  0.26934863165924133  1.0000
  C   C36       1.0  0.2918670273930887  0.9183553903168399  0.7693481626403198  1.0000
  S   S1        1.0  0.90808325579345  0.3190369413313333  0.3834868616199785  1.0000
  S   S2        1.0  0.9080837363174724  0.18096266434851313  0.8834879632498133  1.0000
  S   S3        1.0  0.0919162312387982  0.680962937960487  0.6165122957539142  1.0000
  S   S4        1.0  0.0919157518741329  0.8190372149434777  0.11651192235343902  1.0000
  S   S5        1.0  0.7793497652142135  0.4071485586509879  0.17119503196521887  1.0000
  S   S6        1.0  0.7793502514033577  0.09285182899196796  0.6711953774278712  1.0000
  S   S7        1.0  0.2206497229773845  0.5928513206409958  0.8288048536380402  1.0000
  S   S8        1.0  0.2206503768231727  0.9071480502999942  0.328804697636464  1.0000
  O   O1        1.0  0.8982644366386908  0.5321129678668367  0.3347999226196308  1.0000
  O   O2        1.0  0.898263753745333  0.9678863233146299  0.8348001975352235  1.0000
  O   O3        1.0  0.1017361904284826  0.4678869114249622  0.6651994242153378  1.0000
  O   O4        1.0  0.10173687448119752  0.032113555977332495  0.16519987752911902  1.0000
  O   O5        1.0  0.7644757852262529  0.7399695929791007  0.3842540941155335  1.0000
  O   O6        1.0  0.7644762584668925  0.7600306028576183  0.8842544925863294  1.0000
  O   O7        1.0  0.23552370412470217  0.2600302863130608  0.6157465197170922  1.0000
  O   O8        1.0  0.2355243697596023  0.23997014172477546  0.11574558247814791  1.0000
  O   O9        1.0  0.6277089495556255  0.7416803190540975  0.5496416476579356  1.0000
  O   O10       1.0  0.6277096160880119  0.7583188720944917  0.04964217269583321  1.0000
  O   O11       1.0  0.3722905374765944  0.2583204255281543  0.450357509716092  1.0000
  O   O12       1.0  0.3722910121385183  0.2416810071974709  0.950357902368502  1.0000
  O   O13       1.0  0.5020765160983487  0.5353907799913955  0.6257541387107821  1.0000
  O   O14       1.0  0.5020760254587274  0.9646084619614536  0.1257538114673764  1.0000
  O   O15       1.0  0.49792411212818183  0.46460909930056704  0.3742459363535531  1.0000
  O   O16       1.0  0.4979234627329134  0.03539055204010569  0.8742460741357407  1.0000
  O   O17       1.0  0.7537726824496573  0.3659461372084321  0.6484977221204744  1.0000
  O   O18       1.0  0.7537722185718678  0.13405337767444073  0.14849801829583242  1.0000
  O   O19       1.0  0.24622680458259794  0.6340537420833879  0.3515014352534109  1.0000
  O   O20       1.0  0.24622726961973743  0.8659465016175428  0.8515018673074195  1.0000
