data_image0
_chemical_formula_structural       Ag4H12C20N20O12
_chemical_formula_sum              "Ag4 H12 C20 N20 O12"
_cell_length_a       7.148761369683417
_cell_length_b       7.148750386691246
_cell_length_c       15.844669240323084
_cell_angle_alpha    79.2630004686406
_cell_angle_beta     79.26294206272587
_cell_angle_gamma    78.51942626476036

_space_group_name_H-M_alt    "P 1"
_space_group_IT_number       1

loop_
  _space_group_symop_operation_xyz
  'x, y, z'

loop_
  _atom_site_type_symbol
  _atom_site_label
  _atom_site_symmetry_multiplicity
  _atom_site_fract_x
  _atom_site_fract_y
  _atom_site_fract_z
  _atom_site_occupancy
  Ag  Ag1       1.0  0.9203277438250269  0.6278735915448618  0.3703554913475173  1.0000
  Ag  Ag2       1.0  0.37212128394080685  0.0796734268522243  0.129643227297592  1.0000
  Ag  Ag3       1.0  0.07967815778292224  0.37212157755789116  0.6296446126371575  1.0000
  Ag  Ag4       1.0  0.627880989273237  0.9203260435326894  0.8703568220528551  1.0000
  H   H1        1.0  0.5220063940805489  0.8452660476280581  0.4453733029873347  1.0000
  H   H2        1.0  0.15473352478130664  0.47798996011785266  0.05462433140947811  1.0000
  H   H3        1.0  0.47799709268660723  0.15473493892309884  0.5546221066762341  1.0000
  H   H4        1.0  0.8452633037518142  0.5220079760556826  0.9453781780428155  1.0000
  H   H5        1.0  0.6674595328897582  0.331085138563786  0.3422513058075935  1.0000
  H   H6        1.0  0.6689139158449394  0.3325459490930669  0.15774608031362186  1.0000
  H   H7        1.0  0.3325441690160675  0.6689143561493079  0.6577479944148549  1.0000
  H   H8        1.0  0.33108043505021106  0.6674577417410176  0.8422567942107617  1.0000
  H   H9        1.0  0.3133141909414405  0.32547331279012337  0.3463724590610865  1.0000
  H   H10       1.0  0.6745245063227331  0.6866923937042343  0.1536237708244741  1.0000
  H   H11       1.0  0.68669184387484  0.6745291200736716  0.6536251508774029  1.0000
  H   H12       1.0  0.32546870166613223  0.31330985159993924  0.846378051569438  1.0000
  C   C1        1.0  0.27922229457794867  0.7246568120298773  0.42727088032987837  1.0000
  C   C2        1.0  0.2753438666681092  0.7207770036297559  0.0727251963075943  1.0000
  C   C3        1.0  0.7207769375124543  0.2753441329306908  0.5727242470210924  1.0000
  C   C4        1.0  0.7246538582340493  0.2792238385178294  0.9272770044128932  1.0000
  C   C5        1.0  0.47553602465742983  0.728679246795657  0.4235353581793575  1.0000
  C   C6        1.0  0.2713216035763041  0.524465710162424  0.07646487214969967  1.0000
  C   C7        1.0  0.5244719005265566  0.27132025811409477  0.5764667540522906  1.0000
  C   C8        1.0  0.7286769315844311  0.47553082128905527  0.9235357193402648  1.0000
  C   C9        1.0  0.5547348428450505  0.44520572720515617  0.36556437393554114  1.0000
  C   C10       1.0  0.5547937197327925  0.44526735931592754  0.13443330864220118  1.0000
  C   C11       1.0  0.44527426449345603  0.554795262476915  0.6344356283058231  1.0000
  C   C12       1.0  0.44520054505190393  0.5547291148480012  0.865568265383473  1.0000
  C   C13       1.0  0.35954661232965185  0.44310285197901306  0.36777583643782197  1.0000
  C   C14       1.0  0.5568936325591594  0.6404562304828615  0.13222082514842268  1.0000
  C   C15       1.0  0.6404568744375044  0.5568981345721439  0.6322195732257399  1.0000
  C   C16       1.0  0.4430967101964925  0.3595459583164881  0.8677831279256478  1.0000
  C   C17       1.0  0.1303732225052769  0.8731989534642605  0.4653686758779685  1.0000
  C   C18       1.0  0.1267988257883489  0.8696273159606349  0.03462951023766438  1.0000
  C   C19       1.0  0.8696345267882678  0.12680208252596967  0.5346263836740448  1.0000
  C   C20       1.0  0.8731968362895375  0.13036915113755038  0.9653738443566051  1.0000
  N   N1        1.0  0.22156397987975399  0.5819287493044883  0.3984942485265178  1.0000
  N   N2        1.0  0.418068161801216  0.7784380245705336  0.1015031533281743  1.0000
  N   N3        1.0  0.7784389745646578  0.4180751188925527  0.6015016015332434  1.0000
  N   N4        1.0  0.5819233474096707  0.22156563330416648  0.8984999546039132  1.0000
  N   N5        1.0  0.6121604947554858  0.5887185871546237  0.3933620738849584  1.0000
  N   N6        1.0  0.4112784911006103  0.38784048675785937  0.1066352925173106  1.0000
  N   N7        1.0  0.3878372693949076  0.41128229423537016  0.6066369647147737  1.0000
  N   N8        1.0  0.5887153588703955  0.6121661171160326  0.893365492706671  1.0000
  N   N9        1.0  0.9434903542902265  0.8673526881269209  0.46379723970167663  1.0000
  N   N10       1.0  0.13264456192617052  0.05650852121920739  0.03620279393896199  1.0000
  N   N11       1.0  0.0565130932286948  0.1326482591818348  0.5362013320826475  1.0000
  N   N12       1.0  0.8673466146370001  0.9434893804294898  0.963797652632131  1.0000
  N   N13       1.0  0.19043355812146961  0.0034353285792505977  0.5011096291292603  1.0000
  N   N14       1.0  0.9965624309675437  0.8095682046030107  0.9988897382073246  1.0000
  N   N15       1.0  0.8095639516420264  0.9965670054064047  0.4988886810323477  1.0000
  N   N16       1.0  0.0034316733903594038  0.19043694667521288  0.001111775454788197  1.0000
  N   N17       1.0  0.7887919860872258  0.9345503197062612  0.22244169086386725  1.0000
  N   N18       1.0  0.0654472791760057  0.21121109338371719  0.2775567714828497  1.0000
  N   N19       1.0  0.21121132037370677  0.06544335599296858  0.7775600073907964  1.0000
  N   N20       1.0  0.9345516278806799  0.7887912335361804  0.7224433192473467  1.0000
  O   O1        1.0  0.9182501868135236  0.7806583525099312  0.22237684574842825  1.0000
  O   O2        1.0  0.21934249385651583  0.08175344287721488  0.27762059962108043  1.0000
  O   O3        1.0  0.08175660331381354  0.21933971471839436  0.7776235819285942  1.0000
  O   O4        1.0  0.7806553799532807  0.9182546787283739  0.7223778422049134  1.0000
  O   O5        1.0  0.7150268665995653  0.9983528241390757  0.2919379994739373  1.0000
  O   O6        1.0  0.0016426676616774054  0.2849773384615943  0.20805994902899266  1.0000
  O   O7        1.0  0.2849790271587338  0.001642337115193  0.7080627369348915  1.0000
  O   O8        1.0  0.9983491194850558  0.7150248903628903  0.7919419900687713  1.0000
  O   O9        1.0  0.7369463247218846  0.016385820424233095  0.15027181512024868  1.0000
  O   O10       1.0  0.9836108558478999  0.26305534799192287  0.349728492944827  1.0000
  O   O11       1.0  0.26305323583610374  0.9836049084930777  0.8497310576980721  1.0000
  O   O12       1.0  0.016391417366136873  0.7369441223929909  0.6502715564056272  1.0000
