data_image0
_chemical_formula_structural       Er2H22C36N4O12
_chemical_formula_sum              "Er2 H22 C36 N4 O12"
_cell_length_a       8.837988726032016
_cell_length_b       9.365978916251557
_cell_length_c       10.665342839489098
_cell_angle_alpha    80.24938429206671
_cell_angle_beta     76.68471305555514
_cell_angle_gamma    73.38765411000558

_space_group_name_H-M_alt    "P 1"
_space_group_IT_number       1

loop_
  _space_group_symop_operation_xyz
  'x, y, z'

loop_
  _atom_site_type_symbol
  _atom_site_label
  _atom_site_symmetry_multiplicity
  _atom_site_fract_x
  _atom_site_fract_y
  _atom_site_fract_z
  _atom_site_occupancy
  Er  Er1       1.0  0.09027929431663045  0.3839256087202328  0.35468787816348163  1.0000
  Er  Er2       1.0  0.9097254574987801  0.6160746886631826  0.6453129556830389  1.0000
  H   H1        1.0  0.24825038817103015  0.025560173448127388  0.48823542528958086  1.0000
  H   H2        1.0  0.7517488612656749  0.9744390017664415  0.5117675673729991  1.0000
  H   H3        1.0  0.4910016043595178  0.8086188226556953  0.4560192872405794  1.0000
  H   H4        1.0  0.5089939190062083  0.1913769919459795  0.5439821051046536  1.0000
  H   H5        1.0  0.6931458755350803  0.8126128316820098  0.24644139204063722  1.0000
  H   H6        1.0  0.30685166201713804  0.18738410503346606  0.753558510199028  1.0000
  H   H7        1.0  0.7779792937283856  0.949031588520846  0.02918474784126356  1.0000
  H   H8        1.0  0.22201971483855948  0.05096422803314478  0.9708141008511217  1.0000
  H   H9        1.0  0.7146088806339179  0.16335617123780102  0.8635190091327659  1.0000
  H   H10       1.0  0.2853909838752743  0.8366407645657286  0.1364813847710806  1.0000
  H   H11       1.0  0.5321544139224628  0.40586177166173326  0.7921341269470688  1.0000
  H   H12       1.0  0.4678474662687152  0.5941362853069732  0.20786571432238793  1.0000
  H   H13       1.0  0.27090348165945954  0.6026757408838317  0.8431864972886487  1.0000
  H   H14       1.0  0.7290957617952499  0.3973234381252837  0.15681274548922633  1.0000
  H   H15       1.0  0.1009149533856687  0.5859241647511619  0.06077162668420752  1.0000
  H   H16       1.0  0.8990868534092729  0.41407837485250076  0.9392294393145022  1.0000
  H   H17       1.0  0.999858194250024  0.10893350454798417  0.8585237719121253  1.0000
  H   H18       1.0  0.00014259660665070717  0.8910600697674124  0.14147506753157296  1.0000
  H   H19       1.0  0.03345103763113843  0.9669165453535626  0.609117653813989  1.0000
  H   H20       1.0  0.9665533939362801  0.03308487979878549  0.3908765109068995  1.0000
  H   H21       1.0  0.6273109637461971  0.4165645948401035  0.3921307095989519  1.0000
  H   H22       1.0  0.3726899915930062  0.5834368226681048  0.6078716236018309  1.0000
  C   C1        1.0  0.33694406629787477  0.022546053324866498  0.3982207440956387  1.0000
  C   C2        1.0  0.6630533963626063  0.9774553669741971  0.6017794454021087  1.0000
  C   C3        1.0  0.47412258401886465  0.9014321889590845  0.37951766226514383  1.0000
  C   C4        1.0  0.5258746437538591  0.09856586888486156  0.6204821331471138  1.0000
  C   C5        1.0  0.585364737079864  0.9045524358399816  0.2651463030878318  1.0000
  C   C6        1.0  0.4146333436441055  0.09544674315078078  0.734853162593538  1.0000
  C   C7        1.0  0.5583669076347135  0.028461526884591092  0.16960593395254622  1.0000
  C   C8        1.0  0.44163233881099734  0.9715376502272544  0.8303951837676778  1.0000
  C   C9        1.0  0.6674820106071949  0.037999902492067895  0.04836471318630943  1.0000
  C   C10       1.0  0.33251754561800345  0.9619981534913007  0.9516365113613148  1.0000
  C   C11       1.0  0.6329328118791439  0.15675919089117224  0.9566755397054861  1.0000
  C   C12       1.0  0.367067905581294  0.843238866059181  0.0433245244674652  1.0000
  C   C13       1.0  0.48956160570752166  0.2751256931199179  0.9792904196003676  1.0000
  C   C14       1.0  0.5104394230279112  0.7248712417533338  0.02071068887116208  1.0000
  C   C15       1.0  0.4499372869935954  0.3978919133285145  0.8850850410167154  1.0000
  C   C16       1.0  0.5500611050053691  0.6021061435851391  0.11491546896322552  1.0000
  C   C17       1.0  0.3086684048837469  0.5075561425621514  0.9130876189539948  1.0000
  C   C18       1.0  0.6913293660607281  0.49244415755708815  0.08691173989997478  1.0000
  C   C19       1.0  0.2100866682696464  0.4973282089747568  0.036470066877555475  1.0000
  C   C20       1.0  0.789913431127303  0.5026720892839049  0.9635307211117734  1.0000
  C   C21       1.0  0.3813301765512663  0.27201208008780486  0.10038044633076738  1.0000
  C   C22       1.0  0.61866969094892  0.7279848538184622  0.8996218225154351  1.0000
  C   C23       1.0  0.4152551064036701  0.1455186217576241  0.19672606940670073  1.0000
  C   C24       1.0  0.5847453027727738  0.8544805553725676  0.8032748254100213  1.0000
  C   C25       1.0  0.011138083993422783  0.24207658779415914  0.6654341543141626  1.0000
  C   C26       1.0  0.988862561566286  0.7579259508425192  0.33456807205921996  1.0000
  C   C27       1.0  0.0133197888669159  0.10153969011292928  0.7551683934237873  1.0000
  C   C28       1.0  0.9866820149370312  0.8984628513880039  0.24483079763257354  1.0000
  C   C29       1.0  0.02441663356802346  0.971644081987328  0.7122308448199562  1.0000
  C   C30       1.0  0.9755845461904328  0.02836070461646048  0.28776532016807715  1.0000
  C   C31       1.0  0.025942629331019967  0.8270178987219976  0.7976526650155266  1.0000
  C   C32       1.0  0.9740559870872048  0.17298352728723637  0.20234167675166506  1.0000
  C   C33       1.0  0.6960868395085457  0.5241054159297887  0.5308144544670981  1.0000
  C   C34       1.0  0.30391504217813303  0.4758926400902792  0.4691863242735366  1.0000
  C   C35       1.0  0.5792125262231166  0.48052398881549147  0.4754745158070577  1.0000
  C   C36       1.0  0.4207905181943018  0.5194740672229228  0.5245260400300822  1.0000
  N   N1        1.0  0.3071843081444854  0.14153303803958284  0.31049117811197385  1.0000
  N   N2        1.0  0.6928160980409646  0.8584661409878789  0.6895078417623992  1.0000
  N   N3        1.0  0.2457881498217844  0.3845269900847155  0.12841710009269042  1.0000
  N   N4        1.0  0.7542139652571507  0.615474429339116  0.8715831352622416  1.0000
  O   O1        1.0  0.06162575070334949  0.2310163119280374  0.5443419888232697  1.0000
  O   O2        1.0  0.938373964022375  0.7689895910426896  0.45565897959673396  1.0000
  O   O3        1.0  0.9574057985497717  0.3650749668348893  0.7166161790103658  1.0000
  O   O4        1.0  0.04259577634841353  0.6349242084163718  0.2833863678452175  1.0000
  O   O5        1.0  0.050932081070314474  0.7127942693488118  0.732937065344565  1.0000
  O   O6        1.0  0.9490694084676433  0.28720939612650637  0.26705920647086867  1.0000
  O   O7        1.0  0.008851460683118328  0.8196729979711178  0.917344023904441  1.0000
  O   O8        1.0  0.9911365413749779  0.1803373950401762  0.08265289851036782  1.0000
  O   O9        1.0  0.8440126277760741  0.49576169353107236  0.47274490701185107  1.0000
  O   O10       1.0  0.15598715885038675  0.5042397277533367  0.5272538992077216  1.0000
  O   O11       1.0  0.6507314059365753  0.5903279022614215  0.6326474426722938  1.0000
  O   O12       1.0  0.34927365416282913  0.4096712749421626  0.3673525605304491  1.0000
