data_image0
_chemical_formula_structural       Al4H14C44Cl2O20
_chemical_formula_sum              "Al4 H14 C44 Cl2 O20"
_cell_length_a       6.697177290816172
_cell_length_b       20.515215049100203
_cell_length_c       22.878711130007982
_cell_angle_alpha    93.10442190379511
_cell_angle_beta     90.74275438274735
_cell_angle_gamma    90.21067491157594

_space_group_name_H-M_alt    "P 1"
_space_group_IT_number       1

loop_
  _space_group_symop_operation_xyz
  'x, y, z'

loop_
  _atom_site_type_symbol
  _atom_site_label
  _atom_site_symmetry_multiplicity
  _atom_site_fract_x
  _atom_site_fract_y
  _atom_site_fract_z
  _atom_site_occupancy
  Al  Al1       1.0  0.8732743423884913  0.48870153482378237  0.49249185254960537  1.0000
  Al  Al2       1.0  0.3738285784774931  0.48855464085320216  0.4924087382436326  1.0000
  Al  Al3       1.0  0.34677666144000346  0.020196412081595803  0.017579497186233094  1.0000
  Al  Al4       1.0  0.846173883060807  0.020455635347858  0.0177014927196026  1.0000
  H   H1        1.0  0.418744783073123  0.3203261941269915  0.737626697393047  1.0000
  H   H2        1.0  0.8185334147435414  0.2603974501309949  0.687581564577961  1.0000
  H   H3        1.0  0.8101080762825674  0.18842580458500888  0.771864251975849  1.0000
  H   H4        1.0  0.3062597478525362  0.7695830089591454  0.1913239310943169  1.0000
  H   H5        1.0  0.9049063327013798  0.8263143106451877  0.24611792920492795  1.0000
  H   H6        1.0  0.9063046884539858  0.7385602380823784  0.31728634287965457  1.0000
  H   H7        1.0  0.2953797550302468  0.7082676383561194  0.7100371018569902  1.0000
  H   H8        1.0  0.2813664860278848  0.7941775034947014  0.7916490129965154  1.0000
  H   H9        1.0  0.9241336295354757  0.8005092780748408  0.7995214202901835  1.0000
  H   H10       1.0  0.9381631373732944  0.7147092133915649  0.7178222228884862  1.0000
  H   H11       1.0  0.6222839476026467  0.4036760554356179  0.47787894518761925  1.0000
  H   H12       1.0  0.12386894140742302  0.5704916026744373  0.4763280091246854  1.0000
  H   H13       1.0  0.5967104223446144  0.1058003076844685  0.013710914154209797  1.0000
  H   H14       1.0  0.09513488869463772  0.9348302258322646  0.01991030157586949  1.0000
  C   C1        1.0  0.6203816765657493  0.5669571474453506  0.41647260731038915  1.0000
  C   C2        1.0  0.6285463490510352  0.5686995961325252  0.5734394366408182  1.0000
  C   C3        1.0  0.12668621924512283  0.4137913380230599  0.5699051889161948  1.0000
  C   C4        1.0  0.1183875652890407  0.4072517700750425  0.4109522975504021  1.0000
  C   C5        1.0  0.1161308153681375  0.36067704653888205  0.361494524117198  1.0000
  C   C6        1.0  0.1141608874941227  0.319805532751495  0.32029794886545904  1.0000
  C   C7        1.0  0.11196368729191163  0.27483706473414315  0.2754764663689143  1.0000
  C   C8        1.0  0.10979259998393333  0.23319788670943348  0.23446703308746913  1.0000
  C   C9        1.0  0.10733233322198293  0.18821987997981177  0.18965272181883816  1.0000
  C   C10       1.0  0.1048228374738969  0.1473317435115788  0.1484801669677651  1.0000
  C   C11       1.0  0.2858338032751817  0.29129863420005353  0.7449091036636728  1.0000
  C   C12       1.0  0.11947764070872322  0.2947821635549062  0.7067955457952876  1.0000
  C   C13       1.0  0.9472600520033725  0.2572934793492224  0.7169021832097966  1.0000
  C   C14       1.0  0.9426605354890826  0.21724401113499425  0.7636916663485137  1.0000
  C   C15       1.0  0.1075202493164085  0.2132831248728735  0.8024631529899579  1.0000
  C   C16       1.0  0.27908849382191653  0.25148491918825755  0.7920999954864455  1.0000
  C   C17       1.0  0.12484780700637543  0.33595353165393504  0.6591408541526391  1.0000
  C   C18       1.0  0.10019400776937462  0.17246977714665954  0.8501325847548385  1.0000
  C   C19       1.0  0.0939908302351782  0.13714218261066694  0.8911974216908617  1.0000
  C   C20       1.0  0.1268459338059529  0.37144531360479505  0.6181566977548342  1.0000
  C   C21       1.0  0.43743727079136363  0.7629202329059055  0.21894254960534448  1.0000
  C   C22       1.0  0.6051830410153445  0.803973745230195  0.2142958547872027  1.0000
  C   C23       1.0  0.7750776791224255  0.7947955729413536  0.2500575816194086  1.0000
  C   C24       1.0  0.7758476249515667  0.7460742397237681  0.2896196866551932  1.0000
  C   C25       1.0  0.6094266066601293  0.7043944127351978  0.294823018381109  1.0000
  C   C26       1.0  0.4404235268762591  0.7136790283848953  0.2583074784945438  1.0000
  C   C27       1.0  0.6027599383255193  0.8533732307536467  0.17347015118273387  1.0000
  C   C28       1.0  0.6130590964824663  0.6554396428240422  0.33581868535526377  1.0000
  C   C29       1.0  0.6184561897297697  0.6140105911452167  0.3719825025736298  1.0000
  C   C30       1.0  0.6011988452514672  0.8954816529174674  0.13792662715709264  1.0000
  C   C31       1.0  0.4242493039701927  0.7764216474158587  0.7752035005527134  1.0000
  C   C32       1.0  0.601873843066258  0.8027497438513649  0.8008311396369762  1.0000
  C   C33       1.0  0.787541526627443  0.7800000667638899  0.7795931750387693  1.0000
  C   C34       1.0  0.7952907802337917  0.732407958831324  0.7343192175507127  1.0000
  C   C35       1.0  0.6176295187709188  0.7059876508982657  0.7087700126841056  1.0000
  C   C36       1.0  0.43197683860338293  0.7287958790811686  0.7299470561499248  1.0000
  C   C37       1.0  0.594878332693142  0.8509000183204022  0.8474124296585331  1.0000
  C   C38       1.0  0.6247005482926723  0.657578640042665  0.662398137075833  1.0000
  C   C39       1.0  0.6286031838982923  0.6161483571179645  0.6222277842876167  1.0000
  C   C40       1.0  0.5912333752535732  0.8920138218012422  0.887847869304771  1.0000
  C   C41       1.0  0.5911042949177626  0.939195765075624  0.9368310255272189  1.0000
  C   C42       1.0  0.6002893869903545  0.9428154728895707  0.0936392493047435  1.0000
  C   C43       1.0  0.10247735786155232  0.10072487246853258  0.0990082268165864  1.0000
  C   C44       1.0  0.09278773309216601  0.09556288809228158  0.9399557998436806  1.0000
  Cl  Cl1       1.0  0.481908711405282  0.24920498634262606  0.8391025864999477  1.0000
  Cl  Cl2       1.0  0.23601785964486768  0.6629258017291875  0.26236782335119097  1.0000
  O   O1        1.0  0.45778736856123464  0.550889957589014  0.5531182100924922  1.0000
  O   O2        1.0  0.7915052102144244  0.549692336762348  0.43507140981486697  1.0000
  O   O3        1.0  0.9485620587333444  0.4257173652143251  0.42992026739956657  1.0000
  O   O4        1.0  0.7981040883219279  0.5499036912852802  0.5546412301361912  1.0000
  O   O5        1.0  0.9562571686918631  0.4295735324555425  0.5499602587131064  1.0000
  O   O6        1.0  0.4503466620341144  0.5480793631622234  0.43360495088268886  1.0000
  O   O7        1.0  0.6231291702401335  0.44958076755322207  0.4902822656820901  1.0000
  O   O8        1.0  0.2963008211331726  0.4309341789796973  0.5514021638340765  1.0000
  O   O9        1.0  0.290012728207401  0.424469949559132  0.43109866380697065  1.0000
  O   O10       1.0  0.12404051263758477  0.5274335117514966  0.4918308551461691  1.0000
  O   O11       1.0  0.7701973195594292  0.9623115432859491  0.07712108244120937  1.0000
  O   O12       1.0  0.42111461793598454  0.9582901896540222  0.9551925148363549  1.0000
  O   O13       1.0  0.263098772941504  0.08042282218652733  0.960603301764145  1.0000
  O   O14       1.0  0.42965600471954  0.9596237775101315  0.07448938375978288  1.0000
  O   O15       1.0  0.272082532408163  0.08170884901490177  0.08052958095986898  1.0000
  O   O16       1.0  0.7619443767763839  0.9564401612527577  0.9576143709507576  1.0000
  O   O17       1.0  0.5967819000412078  0.059204708077224694  0.0186033563064427  1.0000
  O   O18       1.0  0.9311306513335895  0.0841281694940648  0.07841731276976559  1.0000
  O   O19       1.0  0.9226352061999918  0.0783436988559814  0.9581982669116016  1.0000
  O   O20       1.0  0.0958624688812506  0.9817297774104787  0.016925454278222694  1.0000
