data_image0
_chemical_formula_structural       Ni6H24C42O30
_chemical_formula_sum              "Ni6 H24 C42 O30"
_cell_length_a       8.913950432035405
_cell_length_b       8.913950432035405
_cell_length_c       21.1663
_cell_angle_alpha    90.0
_cell_angle_beta     90.0
_cell_angle_gamma    119.97159673934019

_space_group_name_H-M_alt    "P 1"
_space_group_IT_number       1

loop_
  _space_group_symop_operation_xyz
  'x, y, z'

loop_
  _atom_site_type_symbol
  _atom_site_label
  _atom_site_symmetry_multiplicity
  _atom_site_fract_x
  _atom_site_fract_y
  _atom_site_fract_z
  _atom_site_occupancy
  Ni  Ni1       1.0  0.017694880515740734  0.9827270797976978  0.082983799719365  1.0000
  Ni  Ni2       1.0  0.016794046823640902  0.033729754945881  0.4164653245961745  1.0000
  Ni  Ni3       1.0  0.9652224833375201  0.9827697011165668  0.7498183433098831  1.0000
  Ni  Ni4       1.0  0.033734888154278095  0.016797884460729107  0.5835450692846677  1.0000
  Ni  Ni5       1.0  0.9827714702579016  0.9652229569075529  0.2501944128165974  1.0000
  Ni  Ni6       1.0  0.9827305420184159  0.017680204738162883  0.9170237594667014  1.0000
  H   H1        1.0  0.0759001550443656  0.4609556075614377  0.0682216542333833  1.0000
  H   H2        1.0  0.5378892637713691  0.6137138700720328  0.4018099526133554  1.0000
  H   H3        1.0  0.38565094019534035  0.9247899837991795  0.7353373050556797  1.0000
  H   H4        1.0  0.6137165863534405  0.5378932756240785  0.598190519835775  1.0000
  H   H5        1.0  0.9247862713008814  0.3856524099822706  0.264672616376032  1.0000
  H   H6        1.0  0.4609720034035191  0.07590618631599713  0.9317896845457196  1.0000
  H   H7        1.0  0.5969202288809399  0.5009766957572735  0.09580654153064218  1.0000
  H   H8        1.0  0.499500444532721  0.09609192888379428  0.42927483783183357  1.0000
  H   H9        1.0  0.9048474637139066  0.4036310878308526  0.7624336799535101  1.0000
  H   H10       1.0  0.09609865701790453  0.49950717266683836  0.5707355560490015  1.0000
  H   H11       1.0  0.4036407825239437  0.9048714096913741  0.2375710445377806  1.0000
  H   H12       1.0  0.5009643608447334  0.5969078939683996  0.9041996003080399  1.0000
  H   H13       1.0  0.3408840347445334  0.23406418050043948  0.14331838819255438  1.0000
  H   H14       1.0  0.7660292871407748  0.10598623361682508  0.4767989681711029  1.0000
  H   H15       1.0  0.8935475742168747  0.6593730605162094  0.8099762358088114  1.0000
  H   H16       1.0  0.10599071903956764  0.7660337725635172  0.5232104808114784  1.0000
  H   H17       1.0  0.6593872897088814  0.8935669856947752  0.19003132337725498  1.0000
  H   H18       1.0  0.23404325015878408  0.34088253797247586  0.8566905883409034  1.0000
  H   H19       1.0  0.08603080647566928  0.7246308593010864  0.0209776862276385  1.0000
  H   H20       1.0  0.2745879237776522  0.36053223755558145  0.35462315095222147  1.0000
  H   H21       1.0  0.6388252284221284  0.914138017827007  0.6881996381039669  1.0000
  H   H22       1.0  0.36053637454708115  0.27459724305437305  0.645380628640808  1.0000
  H   H23       1.0  0.9141380178270071  0.6388252284221282  0.3118135904716439  1.0000
  H   H24       1.0  0.7246268965252084  0.08601907027194505  0.9790345974497185  1.0000
  C   C1        1.0  0.0006698445704244702  0.723252716215299  0.1664348516273506  1.0000
  C   C2        1.0  0.27617156615944793  0.2761858174438245  0.50000425204216  1.0000
  C   C3        1.0  0.7232533149241219  0.0006782167070867137  0.8335802667447751  1.0000
  C   C4        1.0  0.00026249858245111214  0.24165204889057887  0.16655390880787016  1.0000
  C   C5        1.0  0.7574208682579027  0.7574117992587545  0.5000023622456452  1.0000
  C   C6        1.0  0.24166184173734  0.0002684047152925096  0.8334569575221024  1.0000
  C   C7        1.0  0.7308721736929583  0.7308553312659709  0.0  1.0000
  C   C8        1.0  0.26934976431936514  0.00012097777112530936  0.3334290830234821  1.0000
  C   C9        1.0  0.00011424963701500435  0.2693430361852478  0.6665789486117077  1.0000
  C   C10       1.0  0.24923612902176737  0.24924908473483504  3.7795930296999997e-06  1.0000
  C   C11       1.0  0.7510539347830446  0.9998308326824343  0.3333997911774844  1.0000
  C   C12       1.0  0.9998359658908313  0.7510577724201326  0.6666072955594515  1.0000
  C   C13       1.0  0.5641149721822033  0.5641123810395926  0.0  1.0000
  C   C14       1.0  0.4364562996706809  0.0005898360729688325  0.3334120748548415  1.0000
  C   C15       1.0  0.0005829337232299498  0.4364519884635598  0.6665954843312248  1.0000
  C   C16       1.0  0.35907558212087315  0.30235158359607794  0.053297931145266396  1.0000
  C   C17       1.0  0.6980079424683154  0.05656799733843346  0.3867336284565539  1.0000
  C   C18       1.0  0.9436517329904106  0.6414091984027834  0.7199458573298115  1.0000
  C   C19       1.0  0.05656829669284487  0.6980121285366464  0.6132744031786359  1.0000
  C   C20       1.0  0.6414138580411474  0.9436538014861637  0.2800612294071243  1.0000
  C   C21       1.0  0.3023383776054302  0.359075331843293  0.946707738244285  1.0000
  C   C22       1.0  0.042606685604162794  0.5072814727794606  0.110775147286013  1.0000
  C   C23       1.0  0.49178966237690963  0.5341094991129155  0.4443606109712163  1.0000
  C   C24       1.0  0.4652539278356614  0.958266746204174  0.777897412396122  1.0000
  C   C25       1.0  0.5341056123989959  0.49179354909082923  0.5556408063761751  1.0000
  C   C26       1.0  0.9582656248484867  0.4652528064799739  0.2221125090355898  1.0000
  C   C27       1.0  0.5072907920561889  0.04261082259566245  0.889237136391337  1.0000
  C   C28       1.0  0.513003335321585  0.45931745151119685  0.05429763350231549  1.0000
  C   C29       1.0  0.5412361234644507  0.0540041442667913  0.3877276614240586  1.0000
  C   C30       1.0  0.9470151925701557  0.4876069027569228  0.7209313862129889  1.0000
  C   C31       1.0  0.05400833033512239  0.5412364228188622  0.6122794253128774  1.0000
  C   C32       1.0  0.4876075505425775  0.9470145447845013  0.2790733382783017  1.0000
  C   C33       1.0  0.4593154811691136  0.5129806358385948  0.9457033113959453  1.0000
  C   C34       1.0  0.04669305278988387  0.6648295568246921  0.1117502822883552  1.0000
  C   C35       1.0  0.33435395355575537  0.380687470200165  0.44537354190387646  1.0000
  C   C36       1.0  0.6187712765166038  0.9543449741137875  0.7789316035395899  1.0000
  C   C37       1.0  0.38068742112333354  0.3343629734780719  0.5546283478926383  1.0000
  C   C38       1.0  0.9543355296982696  0.6187605365297771  0.2210806801377672  1.0000
  C   C39       1.0  0.664842065952854  0.04670297077542789  0.8882624738381323  1.0000
  C   C40       1.0  0.0004457547222926944  0.40840949908586305  0.1664622536768334  1.0000
  C   C41       1.0  0.5908110379119903  0.5908175157685205  0.5  1.0000
  C   C42       1.0  0.40842006485706867  0.00045761606479999636  0.8335476677548711  1.0000
  O   O1        1.0  0.10018592880247472  0.10018463323117288  3.7795930296999997e-06  1.0000
  O   O2        1.0  0.8999372975541321  0.9993387104955929  0.33335868810326014  1.0000
  O   O3        1.0  0.9993611866861373  0.8999507047455282  0.6666465088371609  1.0000
  O   O4        1.0  0.779190602575831  0.8095730452911525  0.053117928027098985  1.0000
  O   O5        1.0  0.19031469961045394  0.9688351579969063  0.3865092151202631  1.0000
  O   O6        1.0  0.030958427839728096  0.22114700010386906  0.7196548286663215  1.0000
  O   O7        1.0  0.9688324417155059  0.19031068775774426  0.6134978716166728  1.0000
  O   O8        1.0  0.22115631938059718  0.030962564831227724  0.2803517856214839  1.0000
  O   O9        1.0  0.8095833117079466  0.7791982778500071  0.9468820719729009  1.0000
  O   O10       1.0  0.0007949612969752911  0.8723957402191188  0.16651894757232097  1.0000
  O   O11       1.0  0.12714845269223218  0.12714586154961438  0.5000047244912906  1.0000
  O   O12       1.0  0.8724080260548276  0.0008163161318322311  0.8334933361050361  1.0000
  O   O13       1.0  0.3010919879577401  0.18099900567568028  0.1018666465088387  1.0000
  O   O14       1.0  0.8192149098129278  0.11934858546113966  0.43536187241038954  1.0000
  O   O15       1.0  0.8803794055045842  0.6994761927961476  0.7685646523010661  1.0000
  O   O16       1.0  0.11936356059312905  0.8192156336605406  0.5646471041230612  1.0000
  O   O17       1.0  0.6994672219506626  0.8803704346591061  0.2314438517832613  1.0000
  O   O18       1.0  0.18099058446218666  0.3011004091712337  0.8981409126772276  1.0000
  O   O19       1.0  0.9506035116630753  0.15281272565955822  0.11550294572032267  1.0000
  O   O20       1.0  0.8464953864357126  0.796349003435452  0.44899108488493766  1.0000
  O   O21       1.0  0.2024566909241727  0.049662193287645075  0.7823261505317446  1.0000
  O   O22       1.0  0.7963496512210994  0.8464947386500582  0.5510108049115843  1.0000
  O   O23       1.0  0.04965003259072628  0.20244193908463606  0.21768471579822798  1.0000
  O   O24       1.0  0.15281820729919823  0.9506025154461782  0.8845065032622585  1.0000
  O   O25       1.0  0.10016305791092613  0.7812785787396662  0.06170091135437159  1.0000
  O   O26       1.0  0.21788677383248256  0.3177960507262014  0.3953260607664077  1.0000
  O   O27       1.0  0.6819005110253116  0.9007898744485701  0.7289280601711212  1.0000
  O   O28       1.0  0.317800187717708  0.21789609310921068  0.6046777188266219  1.0000
  O   O29       1.0  0.9007812520343278  0.6818867063258408  0.2710828061588444  1.0000
  O   O30       1.0  0.781277108952743  0.1001667704092243  0.9383123172212464  1.0000
