data_image0
_chemical_formula_structural       Gd2H44C66O22
_chemical_formula_sum              "Gd2 H44 C66 O22"
_cell_length_a       10.319604808929286
_cell_length_b       11.38287211669764
_cell_length_c       13.85541170946605
_cell_angle_alpha    102.56075512794283
_cell_angle_beta     111.21646154386804
_cell_angle_gamma    99.90107565414692

_space_group_name_H-M_alt    "P 1"
_space_group_IT_number       1

loop_
  _space_group_symop_operation_xyz
  'x, y, z'

loop_
  _atom_site_type_symbol
  _atom_site_label
  _atom_site_symmetry_multiplicity
  _atom_site_fract_x
  _atom_site_fract_y
  _atom_site_fract_z
  _atom_site_occupancy
  Gd  Gd1       1.0  0.6177535159162203  0.5649794462943234  0.6620217653896745  1.0000
  Gd  Gd2       1.0  0.3822478691812989  0.4350208341987242  0.33798004165652173  1.0000
  H   H1        1.0  0.19422034061565088  0.1431551393029125  0.9823927622057697  1.0000
  H   H2        1.0  0.8057746824919434  0.8568479792072025  0.017605675831276726  1.0000
  H   H3        1.0  0.26761112510180857  0.9396884533204501  0.9430550910228703  1.0000
  H   H4        1.0  0.7323857126666553  0.06032028280989011  0.0569448403347224  1.0000
  H   H5        1.0  0.46810778741131287  0.871587277771738  0.9076864723050804  1.0000
  H   H6        1.0  0.5318832131498326  0.1284130444124969  0.09230966147455173  1.0000
  H   H7        1.0  0.4479475913926763  0.8034255057232186  0.7192254619948031  1.0000
  H   H8        1.0  0.5520398249704357  0.19657014266280726  0.28077320171344405  1.0000
  H   H9        1.0  0.22654312047243513  0.8022760047582196  0.5639421423949074  1.0000
  H   H10       1.0  0.7734490498104452  0.1977215002545379  0.43605452376058207  1.0000
  H   H11       1.0  0.03090156836420018  0.8771574340154016  0.6014670444510983  1.0000
  H   H12       1.0  0.9690913791402237  0.12284569262482847  0.39853155837798226  1.0000
  H   H13       1.0  0.6961328449294868  0.9458892732443047  0.6351048685113057  1.0000
  H   H14       1.0  0.3038651232330523  0.0541100833473109  0.3648958539650522  1.0000
  H   H15       1.0  0.9860461474106686  0.676253416140412  0.17462211028417574  1.0000
  H   H16       1.0  0.013960253997922218  0.32374309499778064  0.825377484924843  1.0000
  H   H17       1.0  0.932678850547198  0.6222479581136396  0.9767651640210316  1.0000
  H   H18       1.0  0.06732953640783992  0.37775791996342895  0.023235919580450605  1.0000
  H   H19       1.0  0.12581933371387072  0.6977984532949082  0.9192512988561462  1.0000
  H   H20       1.0  0.8741852423569795  0.3022149399109182  0.08074866064508508  1.0000
  H   H21       1.0  0.36935434568381  0.8256673880679557  0.05713446563911615  1.0000
  H   H22       1.0  0.6306517040012737  0.1743441240051737  0.9428677189528827  1.0000
  H   H23       1.0  0.42076258921002124  0.8812148668947092  0.2534716012705759  1.0000
  H   H24       1.0  0.5792441583167545  0.118789142187012  0.7465323155667534  1.0000
  H   H25       1.0  0.8643916001129597  0.46217534073209515  0.6096607789737121  1.0000
  H   H26       1.0  0.13560887910313818  0.5378221307195828  0.3903417252403614  1.0000
  H   H27       1.0  0.8670177224715447  0.7334072601843148  0.4483761455914248  1.0000
  H   H28       1.0  0.1329885495526639  0.26659206365560817  0.5516253615449926  1.0000
  H   H29       1.0  0.7573664934103307  0.9075261457029314  0.41986666480492835  1.0000
  H   H30       1.0  0.24263679495576437  0.09247037757261013  0.5801335385491627  1.0000
  H   H31       1.0  0.6272368920071401  0.9154064170595076  0.23247501393599626  1.0000
  H   H32       1.0  0.3727671306303009  0.08458916605438561  0.7675237752642091  1.0000
  H   H33       1.0  0.59991552764221  0.7458545176713542  0.07276707839906747  1.0000
  H   H34       1.0  0.400087459004915  0.25414106921852664  0.9272335979823438  1.0000
  H   H35       1.0  0.7117162025210038  0.5712067808464597  0.1018800129828321  1.0000
  H   H36       1.0  0.28828574596228407  0.42878881016629583  0.8981203848375544  1.0000
  H   H37       1.0  0.9380300089487504  0.5434676755338259  0.7733981193310199  1.0000
  H   H38       1.0  0.06197345102742703  0.45653259694474013  0.22660280100907224  1.0000
  H   H39       1.0  0.8318120196372333  0.44198971030508005  0.7894106066522253  1.0000
  H   H40       1.0  0.1681907038940835  0.5580115026820138  0.21058956209952845  1.0000
  H   H41       1.0  0.560440203607982  0.3648018898547605  0.7553624154692429  1.0000
  H   H42       1.0  0.43956087759704593  0.6351974545994991  0.2446376988620429  1.0000
  H   H43       1.0  0.49868253548586233  0.46690759280431143  0.802108107738654  1.0000
  H   H44       1.0  0.5013198863264776  0.5330926837971219  0.19789253404041315  1.0000
  C   C1        1.0  0.7984974792862901  0.7853007589565024  0.8202644722964932  1.0000
  C   C2        1.0  0.20149888877565297  0.21470329100702662  0.17973882467280328  1.0000
  C   C3        1.0  0.9010883917808528  0.8986928091460201  0.9111247318777559  1.0000
  C   C4        1.0  0.09890961643385773  0.10131310969721603  0.08887645376977102  1.0000
  C   C5        1.0  0.1090643697735416  0.0782970505323135  0.988857490959738  1.0000
  C   C6        1.0  0.890930957951049  0.9217070039009558  0.011143361706302844  1.0000
  C   C7        1.0  0.011109482827762916  0.9778355855710075  0.8992540237869167  1.0000
  C   C8        1.0  0.9888851070029504  0.0221694096020499  0.10074463346262523  1.0000
  C   C9        1.0  0.02033672199143421  0.9621806384984098  0.7911327432851325  1.0000
  C   C10       1.0  0.979660077898366  0.03782153503343011  0.20886889064352226  1.0000
  C   C11       1.0  0.1367006637121905  0.9122993794631998  0.7737542069560279  1.0000
  C   C12       1.0  0.8632919806242468  0.08770281102261632  0.22624342507221218  1.0000
  C   C13       1.0  0.2593766465630409  0.9097863182672444  0.8603304860603345  1.0000
  C   C14       1.0  0.7406173391052208  0.09021680425011173  0.13966839532976388  1.0000
  C   C15       1.0  0.3714559974711377  0.8718425512843595  0.8405350319186411  1.0000
  C   C16       1.0  0.6285388547508789  0.1281568179071115  0.15946341104648803  1.0000
  C   C17       1.0  0.36054031253122787  0.8334168333815197  0.7343189015770051  1.0000
  C   C18       1.0  0.6394481405467046  0.16657881111289197  0.2656785968641202  1.0000
  C   C19       1.0  0.23661826845255257  0.8326179967997334  0.6472846718160383  1.0000
  C   C20       1.0  0.7633749414431749  0.1673795038589105  0.3527137167286227  1.0000
  C   C21       1.0  0.12627167453665314  0.872858366530913  0.6672051534712226  1.0000
  C   C22       1.0  0.8737197607503758  0.1271400787591261  0.3327922049240683  1.0000
  C   C23       1.0  0.4830090885676909  0.7410258542902356  0.4963573554951067  1.0000
  C   C24       1.0  0.5169926033203396  0.2589753617790933  0.5036490319223006  1.0000
  C   C25       1.0  0.4874621673800518  0.8745506977917329  0.4989457582545355  1.0000
  C   C26       1.0  0.5125354961654836  0.12544772287672148  0.5010525495928349  1.0000
  C   C27       1.0  0.6091857599641203  0.9696746870765411  0.5765736722642387  1.0000
  C   C28       1.0  0.39081294319426263  0.030323729237792897  0.42342635797231043  1.0000
  C   C29       1.0  0.3768584713481289  0.9056515390998856  0.4224630384575222  1.0000
  C   C30       1.0  0.6231412699740915  0.09434687309158113  0.5775372703400592  1.0000
  C   C31       1.0  0.23839048153481454  0.808943633362439  0.343019803164708  1.0000
  C   C32       1.0  0.7616147530500614  0.19105569448472448  0.6569821473247615  1.0000
  C   C33       1.0  0.20691536815404274  0.7808022305561052  0.22603020459285258  1.0000
  C   C34       1.0  0.7930861463278589  0.2191952372352119  0.773969690525945  1.0000
  C   C35       1.0  0.0691414427372408  0.7074857375046406  0.14766637176370526  1.0000
  C   C36       1.0  0.9308643931120669  0.292515463460731  0.8523324669288923  1.0000
  C   C37       1.0  0.03990908891439915  0.6777763014085992  0.03771826552197416  1.0000
  C   C38       1.0  0.9600928974475523  0.3222258522026564  0.9622804297273576  1.0000
  C   C39       1.0  0.14795812702103467  0.7207010832217621  0.005093435920393587  1.0000
  C   C40       1.0  0.8520452407249053  0.27930856467266096  0.9949069718619583  1.0000
  C   C41       1.0  0.2850356337456645  0.7931279463414783  0.08261850867395992  1.0000
  C   C42       1.0  0.7149670883366426  0.20687326687686888  0.91738021624964  1.0000
  C   C43       1.0  0.3144333096870611  0.8239289038914633  0.19265193739040137  1.0000
  C   C44       1.0  0.6855717940644155  0.1760732368886764  0.8073504811983128  1.0000
  C   C45       1.0  0.6980486028980125  0.493979498156456  0.4276649668344136  1.0000
  C   C46       1.0  0.3019521780370554  0.5060189096808899  0.5723370643523467  1.0000
  C   C47       1.0  0.8548793661581725  0.5021550792300645  0.4637974738273699  1.0000
  C   C48       1.0  0.14512111233341327  0.4978423923372475  0.5362043084726338  1.0000
  C   C49       1.0  0.9255789911318503  0.48227557379808433  0.5630448925340445  1.0000
  C   C50       1.0  0.07442118419175611  0.5177209616148133  0.4369559189651184  1.0000
  C   C51       1.0  0.9303082236757376  0.5201640405380346  0.3992089139067048  1.0000
  C   C52       1.0  0.06969298981170617  0.47983249075199547  0.600792176153483  1.0000
  C   C53       1.0  0.867820108582478  0.5408967596863334  0.290872184290535  1.0000
  C   C54       1.0  0.13218214234428427  0.459099767596456  0.7091284624166081  1.0000
  C   C55       1.0  0.7944177410835139  0.6405377591416723  0.27659721175536583  1.0000
  C   C56       1.0  0.2055855465580763  0.35945876424949574  0.7234022696846552  1.0000
  C   C57       1.0  0.8067344473567672  0.7351691631162397  0.36616488914411605  1.0000
  C   C58       1.0  0.1932694466207892  0.2648292325837573  0.6338365338975649  1.0000
  C   C59       1.0  0.7456143428402413  0.8331412322163204  0.350197817189887  1.0000
  C   C60       1.0  0.2543889440768439  0.16685529129047438  0.6498009423360571  1.0000
  C   C61       1.0  0.6718408864439381  0.8371000841826728  0.24472208120340602  1.0000
  C   C62       1.0  0.32816179703520026  0.1628945665528008  0.7552776243771716  1.0000
  C   C63       1.0  0.6580347267740336  0.742680805223472  0.155007448231423  1.0000
  C   C64       1.0  0.3419669185412673  0.25731384963486903  0.8449919787881299  1.0000
  C   C65       1.0  0.7194797225504033  0.6448762699465789  0.17058451863438506  1.0000
  C   C66       1.0  0.2805239998170778  0.3551183765504008  0.8294161874212946  1.0000
  O   O1        1.0  0.6857516119674257  0.7277040894947575  0.8273490998535209  1.0000
  O   O2        1.0  0.3142514169053925  0.2722980592998709  0.1726542054412903  1.0000
  O   O3        1.0  0.827566200256463  0.7459378013965221  0.738868976749707  1.0000
  O   O4        1.0  0.1724313368027097  0.25406343151115607  0.2611341306813699  1.0000
  O   O5        1.0  0.9377671319616143  0.9987788864404904  0.7219747287924606  1.0000
  O   O6        1.0  0.062225510925813396  0.0012233042765786002  0.2780214594076327  1.0000
  O   O7        1.0  0.426358142099339  0.6586592391737653  0.40284228974557124  1.0000
  O   O8        1.0  0.5736412960548947  0.34133823686328674  0.5971570482511765  1.0000
  O   O9        1.0  0.5383083954449789  0.7208388565289781  0.5868495218423746  1.0000
  O   O10       1.0  0.46168511544521346  0.279159580630946  0.41314767176089623  1.0000
  O   O11       1.0  0.1547364380312786  0.7572689126339895  0.3759233552867443  1.0000
  O   O12       1.0  0.8452662454478598  0.24272573810148407  0.6240763502938336  1.0000
  O   O13       1.0  0.6144475182654786  0.4495047171063931  0.3274686044218953  1.0000
  O   O14       1.0  0.3855528279436983  0.5504955676251485  0.672532202149199  1.0000
  O   O15       1.0  0.6499334280149611  0.5285700685717103  0.49940665824763636  1.0000
  O   O16       1.0  0.3500673514710968  0.47142833949688884  0.5005939291109627  1.0000
  O   O17       1.0  0.8882401581017304  0.4784867048474411  0.2148173395350597  1.0000
  O   O18       1.0  0.1117650757586404  0.5215126231153491  0.7851838890403331  1.0000
  O   O19       1.0  0.8393717692343614  0.5197781033608778  0.7701639948516146  1.0000
  O   O20       1.0  0.16063199318529797  0.4802231053877222  0.2298371743752412  1.0000
  O   O21       1.0  0.5865319323584899  0.45362971017624426  0.7955457361157627  1.0000
  O   O22       1.0  0.41346945056550777  0.5463705706636829  0.2044539051882026  1.0000
