data_image0
_chemical_formula_structural       Al4H24C64Cl12O20
_chemical_formula_sum              "Al4 H24 C64 Cl12 O20"
_cell_length_a       6.687752400178667
_cell_length_b       23.763391675853487
_cell_length_c       26.030892044355333
_cell_angle_alpha    101.47486019731038
_cell_angle_beta     89.99990497089732
_cell_angle_gamma    90.00079357091145

_space_group_name_H-M_alt    "P 1"
_space_group_IT_number       1

loop_
  _space_group_symop_operation_xyz
  'x, y, z'

loop_
  _atom_site_type_symbol
  _atom_site_label
  _atom_site_symmetry_multiplicity
  _atom_site_fract_x
  _atom_site_fract_y
  _atom_site_fract_z
  _atom_site_occupancy
  Al  Al1       1.0  0.21182976809213014  0.2501746717248424  0.25012764791107855  1.0000
  Al  Al2       1.0  0.7881683866221748  0.7498266133193214  0.7498732427733755  1.0000
  Al  Al3       1.0  0.7118288334877574  0.2498253348530781  0.24987264086591676  1.0000
  Al  Al4       1.0  0.2881663306635359  0.7501749402687923  0.7501274628501805  1.0000
  H   H1        1.0  0.9424505339384766  0.6497302710384504  0.9810602156535708  1.0000
  H   H2        1.0  0.05755061128361659  0.3502694153173636  0.018939102587893296  1.0000
  H   H3        1.0  0.4424527242167571  0.8502697339430372  0.5189401230390019  1.0000
  H   H4        1.0  0.5575499162878828  0.14973054119435864  0.4810599806778839  1.0000
  H   H5        1.0  0.12403506750171538  0.5088832555194787  0.8576719436566692  1.0000
  H   H6        1.0  0.8759675729606112  0.4911150836061965  0.14232697811539197  1.0000
  H   H7        1.0  0.6240339083175641  0.9911160175608278  0.6423271549233007  1.0000
  H   H8        1.0  0.3759702274469063  0.008883752621642326  0.35767255530972625  1.0000
  H   H9        1.0  0.26924847334387175  0.4322196909833097  0.010886521033704398  1.0000
  H   H10       1.0  0.7307466907759518  0.5677791530848781  0.9891127942215833  1.0000
  H   H11       1.0  0.7692528966193277  0.06777937656794825  0.4891122088975735  1.0000
  H   H12       1.0  0.2307497438940729  0.9322212358866225  0.5108875043208414  1.0000
  H   H13       1.0  0.6931561012983848  0.5452212266667332  0.5441407589966971  1.0000
  H   H14       1.0  0.3068495297506928  0.4547792999381814  0.4558605206942445  1.0000
  H   H15       1.0  0.1931491541546108  0.9548425710816204  0.955804528061222  1.0000
  H   H16       1.0  0.8068504957813544  0.045156608277622516  0.04419635515952079  1.0000
  H   H17       1.0  0.6649371646257904  0.46505995515116905  0.46616369176886246  1.0000
  H   H18       1.0  0.33507145696461993  0.5349405714599558  0.5338375879223919  1.0000
  H   H19       1.0  0.16494404346588706  0.03500881663904921  0.03377729405248431  1.0000
  H   H20       1.0  0.8350541112004419  0.9649904465375203  0.966223981159345  1.0000
  H   H21       1.0  0.4626631567563989  0.3253798351980777  0.2572880631145082  1.0000
  H   H22       1.0  0.5373364932275351  0.6746213660287596  0.7427124355788594  1.0000
  H   H23       1.0  0.9626557634715525  0.1746202872407921  0.24271188356234324  1.0000
  H   H24       1.0  0.037343886503620596  0.8253805766688701  0.7572890056294952  1.0000
  C   C1        1.0  0.46112417651592347  0.17359382718381514  0.17328589453702387  1.0000
  C   C2        1.0  0.5388739781865083  0.8264068690818719  0.8267142106721648  1.0000
  C   C3        1.0  0.9611264483074036  0.32640645855845213  0.32671287733545273  1.0000
  C   C4        1.0  0.03887619222456349  0.6735949123508933  0.6732864468772634  1.0000
  C   C5        1.0  0.46152641890617463  0.18826574002606128  0.31315273021112944  1.0000
  C   C6        1.0  0.5384657547244202  0.8117354611852434  0.6868477684814421  1.0000
  C   C7        1.0  0.9615181946059081  0.3117331142762155  0.1868472117476756  1.0000
  C   C8        1.0  0.03847696952267649  0.6882660671091402  0.8131517130091408  1.0000
  C   C9        1.0  0.9836922239349589  0.669093350574805  0.9045307165235101  1.0000
  C   C10       1.0  0.016305930714324297  0.3309049047211162  0.0954678132568318  1.0000
  C   C11       1.0  0.48369614533207533  0.8309052270350463  0.5954680584199679  1.0000
  C   C12       1.0  0.5163020093497223  0.16909454313499592  0.4045316518124337  1.0000
  C   C13       1.0  0.9819463097589746  0.6326017144334912  0.9403600638393498  1.0000
  C   C14       1.0  0.0180518449119873  0.367397550778506  0.0596392529090295  1.0000
  C   C15       1.0  0.4819520977909874  0.8673979496641595  0.5596398896955606  1.0000
  C   C16       1.0  0.5180475521723125  0.13260232546702613  0.4403602140210125  1.0000
  C   C17       1.0  0.0333243503723537  0.5745416244155523  0.9241127282318332  1.0000
  C   C18       1.0  0.9666723090181361  0.42545721965574057  0.07588658702361069  1.0000
  C   C19       1.0  0.5333279210876255  0.9254578606378062  0.5758871367014818  1.0000
  C   C20       1.0  0.46667621468664305  0.07454233068226303  0.42411257502431704  1.0000
  C   C21       1.0  0.0868621582029263  0.5538767162299083  0.8716527440081093  1.0000
  C   C22       1.0  0.913137491727866  0.4461220440271632  0.1283461792564111  1.0000
  C   C23       1.0  0.5868619599989557  0.9461228235725374  0.6283463482284405  1.0000
  C   C24       1.0  0.4131376899633067  0.05387736773821674  0.37165336349688977  1.0000
  C   C25       1.0  0.08941702988204978  0.5911371320297576  0.8366044180479548  1.0000
  C   C26       1.0  0.9105796294986417  0.4088612909039284  0.16339489571472401  1.0000
  C   C27       1.0  0.5894283903597496  0.9088625022301501  0.6633950667196443  1.0000
  C   C28       1.0  0.410572754892783  0.09113853135892212  0.3366046479913862  1.0000
  C   C29       1.0  0.037939167917819795  0.6492428013053131  0.8520570697690318  1.0000
  C   C30       1.0  0.9620530056389922  0.35075503284058845  0.1479414585179057  1.0000
  C   C31       1.0  0.5379523810190321  0.8507573775725136  0.6479420151411901  1.0000
  C   C32       1.0  0.462048764234538  0.14924373983699016  0.35205809156109064  1.0000
  C   C33       1.0  0.17024584625940514  0.495933653740707  0.9687868833581347  1.0000
  C   C34       1.0  0.8297523084115567  0.5040656114712975  0.0312124333902446  1.0000
  C   C35       1.0  0.6702479487095656  0.004066166885770891  0.5312120446346994  1.0000
  C   C36       1.0  0.3297531965429669  0.9959348667033014  0.46878767007633115  1.0000
  C   C37       1.0  0.14822793498577616  0.4612726298100115  0.005720029671394401  1.0000
  C   C38       1.0  0.851768724411414  0.5387263839375863  0.9942781111030925  1.0000
  C   C39       1.0  0.6482309813801947  0.038726777290371224  0.4942786777333623  1.0000
  C   C40       1.0  0.3517731543863432  0.9612731605329615  0.5057218164821579  1.0000
  C   C41       1.0  0.9784724793659763  0.46414276257137044  0.0378656547037863  1.0000
  C   C42       1.0  0.0215271705766824  0.5358565864641706  0.9621340540359923  1.0000
  C   C43       1.0  0.47847291075503046  0.03585683677771102  0.46213350983133233  1.0000
  C   C44       1.0  0.5215312249975738  0.9641423446262823  0.5378654149264294  1.0000
  C   C45       1.0  0.8108699283444948  0.4806461838438525  0.48125060742884773  1.0000
  C   C46       1.0  0.18913719797525624  0.5193543427641673  0.5187506722622501  1.0000
  C   C47       1.0  0.31086717955744797  0.019389390810829406  0.0187173162302727  1.0000
  C   C48       1.0  0.6891294798304841  0.9806096188658986  0.9812847414711143  1.0000
  C   C49       1.0  0.9841772368947515  0.4547872984091655  0.45600162533976624  1.0000
  C   C50       1.0  0.015829889415194  0.5452128070612476  0.5439996528585596  1.0000
  C   C51       1.0  0.48416809686111145  0.04521493526385001  0.0439979413448341  1.0000
  C   C52       1.0  0.5158315530738234  0.9547841602749545  0.9560025498846656  1.0000
  C   C53       1.0  0.17359890663956176  0.4748994214119124  0.4755020398426666  1.0000
  C   C54       1.0  0.8264052291563786  0.5251017798242401  0.5244984588511697  1.0000
  C   C55       1.0  0.6735990284635633  0.025067038062324805  0.0245310248334647  1.0000
  C   C56       1.0  0.32640211673637504  0.9749319716237181  0.9754710328683986  1.0000
  C   C57       1.0  0.9701072875521886  0.40962845788457275  0.41164748725701367  1.0000
  C   C58       1.0  0.029899838775285993  0.5903723222201834  0.5883530099443702  1.0000
  C   C59       1.0  0.4701075190845501  0.09037186720502892  0.08834932804549568  1.0000
  C   C60       1.0  0.5298951213850244  0.9096270586636879  0.9116523376652808  1.0000
  C   C61       1.0  0.0373112094963091  0.62900123658887  0.6268540257729215  1.0000
  C   C62       1.0  0.9626884404638857  0.3709987870810141  0.37314490196991557  1.0000
  C   C63       1.0  0.5373168356453702  0.8709954029229297  0.8731442630794392  1.0000
  C   C64       1.0  0.4626768332264957  0.1290045348786677  0.1268562311349726  1.0000
  Cl  Cl1       1.0  0.9210046150172672  0.7405446463461587  0.9257349140101355  1.0000
  Cl  Cl2       1.0  0.07899653019295978  0.2594544512311857  0.0742636187560635  1.0000
  Cl  Cl3       1.0  0.42100680400630336  0.7594546807698209  0.5742646346862302  1.0000
  Cl  Cl4       1.0  0.5789928459580266  0.24054567818180322  0.42573586102158595  1.0000
  Cl  Cl5       1.0  0.15233305797109145  0.5641879778369727  0.7717708683571517  1.0000
  Cl  Cl6       1.0  0.8476665919607383  0.4358108662405301  0.2282284468986049  1.0000
  Cl  Cl7       1.0  0.6523349032254302  0.9358132649916303  0.7282290261421167  1.0000
  Cl  Cl8       1.0  0.3476647467466307  0.06418734745673052  0.2717706870759855  1.0000
  Cl  Cl9       1.0  0.3919734980457504  0.4900510579910107  0.9335284658830217  1.0000
  Cl  Cl10      1.0  0.6080231613447393  0.5099477860802824  0.0664708493724291  1.0000
  Cl  Cl11      1.0  0.8919772048082418  0.00994875760698483  0.5664701138748357  1.0000
  Cl  Cl12      1.0  0.10802394043345487  0.9900517710240424  0.4335292073521799  1.0000
  O   O1        1.0  0.6315001639349731  0.20162208263858622  0.29769056914938824  1.0000
  O   O2        1.0  0.3684994860598039  0.798379623546289  0.7023103230279945  1.0000
  O   O3        1.0  0.13150954759537828  0.298378011406605  0.20230970418746352  1.0000
  O   O4        1.0  0.868476644949439  0.7016229383309778  0.7976896185307466  1.0000
  O   O5        1.0  0.2907070427082843  0.19090185724881087  0.19185830130415135  1.0000
  O   O6        1.0  0.7092896167322492  0.8090991763309391  0.8081414134064104  1.0000
  O   O7        1.0  0.7907205576392826  0.30909898401134234  0.3081404391227878  1.0000
  O   O8        1.0  0.20927311125680598  0.6909017981008958  0.6918580996137251  1.0000
  O   O9        1.0  0.29166554463193245  0.20308986471549426  0.2989295750844719  1.0000
  O   O10       1.0  0.7083326100704994  0.796910831550193  0.7010705301247171  1.0000
  O   O11       1.0  0.79167600211224  0.29690845369432856  0.2010691565875575  1.0000
  O   O12       1.0  0.20831019037943574  0.7030900550734888  0.7989285907018059  1.0000
  O   O13       1.0  0.1318160816328771  0.3091726808244246  0.3082847791915598  1.0000
  O   O14       1.0  0.8681805778226347  0.6908291929951035  0.6917168969680033  1.0000
  O   O15       1.0  0.6318007097516585  0.1908258975721183  0.19171627222068108  1.0000
  O   O16       1.0  0.3681989401776064  0.8091731121108128  0.8082857854810257  1.0000
  O   O17       1.0  0.46206558941843656  0.2839573233709772  0.2530131714445787  1.0000
  O   O18       1.0  0.5379325652937935  0.7160437940323164  0.7469869352573824  1.0000
  O   O19       1.0  0.9620675811674955  0.21604262896419618  0.24698599112479508  1.0000
  O   O20       1.0  0.0379320688076774  0.783958234945459  0.7530148980670363  1.0000
