data_image0
_chemical_formula_structural       Cu4Mo6H20C14N12O20
_chemical_formula_sum              "Cu4 Mo6 H20 C14 N12 O20"
_cell_length_a       7.60321834749121
_cell_length_b       11.20678162357382
_cell_length_c       11.246479379419247
_cell_angle_alpha    68.32137993057316
_cell_angle_beta     72.71043920513564
_cell_angle_gamma    76.46529098448777

_space_group_name_H-M_alt    "P 1"
_space_group_IT_number       1

loop_
  _space_group_symop_operation_xyz
  'x, y, z'

loop_
  _atom_site_type_symbol
  _atom_site_label
  _atom_site_symmetry_multiplicity
  _atom_site_fract_x
  _atom_site_fract_y
  _atom_site_fract_z
  _atom_site_occupancy
  Cu  Cu1       1.0  0.2613348088650794  0.12598877538273706  0.21422412734989393  1.0000
  Cu  Cu2       1.0  0.7386652888754879  0.8740113952044766  0.785775557868632  1.0000
  Cu  Cu3       1.0  0.2676896862423561  0.9537121886842356  0.7749453471414186  1.0000
  Cu  Cu4       1.0  0.7323104114982185  0.046287981902978  0.22505433807711483  1.0000
  Mo  Mo1       1.0  0.9378195820539688  0.4162275089101257  0.17693959210355098  1.0000
  Mo  Mo2       1.0  0.062179344047784496  0.5837716908499714  0.823059790733616  1.0000
  Mo  Mo3       1.0  0.4486169653112098  0.4036723358877481  0.17487064831016846  1.0000
  Mo  Mo4       1.0  0.5513815582365922  0.5963288029028391  0.8251289917911677  1.0000
  Mo  Mo5       1.0  0.16878057625117993  0.6615707669306944  0.06027312924111063  1.0000
  Mo  Mo6       1.0  0.8312195299121753  0.3384294042014346  0.9397256649345493  1.0000
  H   H1        1.0  0.1470916074879297  0.7573672107172058  0.4105651052255936  1.0000
  H   H2        1.0  0.8529086873182264  0.2426319900822946  0.5894348968822811  1.0000
  H   H3        1.0  0.2752157079337038  0.8670012414701062  0.27077732757083345  1.0000
  H   H4        1.0  0.7247857585112738  0.1329989301565178  0.7292229769184148  1.0000
  H   H5        1.0  0.4254093046111932  0.6317119429467865  0.3207530540799155  1.0000
  H   H6        1.0  0.5745909817721822  0.36828725730779144  0.6792478390708255  1.0000
  H   H7        1.0  0.44268983774004045  0.6294666616934209  0.47317265924868224  1.0000
  H   H8        1.0  0.5573102515777464  0.3705335083488634  0.5268279170127173  1.0000
  H   H9        1.0  0.5824918113833063  0.7093741491201372  0.07982380264322575  1.0000
  H   H10       1.0  0.4175082779344804  0.29062602092214707  0.9201767736181736  1.0000
  H   H11       1.0  0.3334909427621325  0.746317968707757  0.6274925909005304  1.0000
  H   H12       1.0  0.6665077778512511  0.253682200295124  0.3725073660901542  1.0000
  H   H13       1.0  0.7441645844403338  0.6614576126805786  0.3209899502922083  1.0000
  H   H14       1.0  0.25583571036582237  0.338541588118929  0.6790100518156732  1.0000
  H   H15       1.0  0.6482869527849713  0.8058941943457543  0.3623258386508467  1.0000
  H   H16       1.0  0.35171491621395745  0.1941040382503729  0.6376742085742252  1.0000
  H   H17       1.0  0.2201974317571924  0.15475348193947264  0.4878461486938264  1.0000
  H   H18       1.0  0.7798052231721541  0.8452476616041126  0.5121526760910485  1.0000
  H   H19       1.0  0.801076221011023  0.06335183453256121  0.93238892124797  1.0000
  H   H20       1.0  0.19892387672954454  0.9366483360546526  0.06761076397056331  1.0000
  C   C1        1.0  0.27697645913833197  0.7999317670785758  0.37052548818689957  1.0000
  C   C2        1.0  0.7230261957910145  0.20006937646500933  0.6294733365979824  1.0000
  C   C3        1.0  0.44310569052736776  0.6933777965422437  0.3718228376710967  1.0000
  C   C4        1.0  0.5568959814059724  0.30662140584159664  0.6281768926646265  1.0000
  C   C5        1.0  0.6360849291571071  0.7946007121786351  0.07255023880747993  1.0000
  C   C6        1.0  0.36391536564904914  0.20539848862086532  0.9274497633003946  1.0000
  C   C7        1.0  0.2995649649883702  0.8459932246673392  0.5690835494936762  1.0000
  C   C8        1.0  0.7004339526906023  0.1540059745478288  0.4309167243863498  1.0000
  C   C9        1.0  0.6304003273466846  0.7428869576748766  0.31278939657521937  1.0000
  C   C10       1.0  0.3696011475210668  0.25711321449666263  0.6872100168711556  1.0000
  C   C11       1.0  0.24226149573114233  0.053053680144095915  0.4962529094820169  1.0000
  C   C12       1.0  0.7577399791366158  0.9469464920274507  0.5037465039643576  1.0000
  C   C13       1.0  0.7453324808594955  0.974846960249835  0.9976824073022073  1.0000
  C   C14       1.0  0.254667616881072  0.025153210337379103  0.0023172779163261087  1.0000
  N   N1        1.0  0.24313162795497328  0.014080413472932199  0.3976684118540419  1.0000
  N   N2        1.0  0.7568710269743731  0.9859207300706528  0.6023304129308328  1.0000
  N   N3        1.0  0.276796795701287  0.9520990958183827  0.604148554614575  1.0000
  N   N4        1.0  0.7232019249121038  0.0479010731844909  0.39585140237610966  1.0000
  N   N5        1.0  0.6536607982845978  0.8227692962221553  0.173978894844538  1.0000
  N   N6        1.0  0.3463394880987778  0.1772299040324228  0.82602199830621  1.0000
  N   N7        1.0  0.6920198508978073  0.8895080847023992  0.960008777142285  1.0000
  N   N8        1.0  0.3079818126127519  0.11049111713651173  0.039991844236311615  1.0000
  N   N9        1.0  0.27835328826956374  0.8816155962308299  0.4462533104154218  1.0000
  N   N10       1.0  0.7216495637253716  0.11838457752504891  0.5537458312587944  1.0000
  N   N11       1.0  0.7223832624527871  0.938432401853916  0.1276351415626067  1.0000
  N   N12       1.0  0.2776168352877805  0.061567768733297605  0.8723645436559194  1.0000
  O   O1        1.0  0.1663798594615855  0.814785909532148  0.9388053125943185  1.0000
  O   O2        1.0  0.8336188611518053  0.185214259470726  0.06119464439636602  1.0000
  O   O3        1.0  0.44782543587345447  0.236789301314694  0.20862810432683432  1.0000
  O   O4        1.0  0.5521758166603659  0.7632118390097915  0.7913736653588044  1.0000
  O   O5        1.0  0.8313966579052091  0.4472454545124619  0.3218718982699613  1.0000
  O   O6        1.0  0.1686026623277215  0.5527518056722158  0.6781281183458958  1.0000
  O   O7        1.0  0.4148599147802585  0.41767678194861463  0.32722475458344036  1.0000
  O   O8        1.0  0.5851364372871544  0.5823214437652596  0.6727772707731176  1.0000
  O   O9        1.0  0.02658848675893208  0.2506301332933774  0.228031006293655  1.0000
  O   O10       1.0  0.9734131683288465  0.7493690680006183  0.7719705061278075  1.0000
  O   O11       1.0  0.09537399806155378  0.6969780831649075  0.20531427055855286  1.0000
  O   O12       1.0  0.9046265022329719  0.3030201483918091  0.7946851573957971  1.0000
  O   O13       1.0  0.4319095414469346  0.6004652638677825  0.04940892339133278  1.0000
  O   O14       1.0  0.5680889821008674  0.39953587492279735  0.9505907167100103  1.0000
  O   O15       1.0  0.9575893281924905  0.6031595031369648  0.046336618282268184  1.0000
  O   O16       1.0  0.042410572482495516  0.39684163723795496  0.9536627500469164  1.0000
  O   O17       1.0  0.19704394736125144  0.4515619476845458  0.1514569136700885  1.0000
  O   O18       1.0  0.8029573220181303  0.5484391937297843  0.8485430739298111  1.0000
  O   O19       1.0  0.7193520759197296  0.408837982414319  0.128958748033149  1.0000
  O   O20       1.0  0.2806464307825108  0.5911631552864237  0.8710426741539267  1.0000
