data_image0
_chemical_formula_structural       Zn4H22C24N22O12
_chemical_formula_sum              "Zn4 H22 C24 N22 O12"
_cell_length_a       9.570197788061463
_cell_length_b       9.67923384527508
_cell_length_c       10.72075307408132
_cell_angle_alpha    99.02981167902635
_cell_angle_beta     116.50764355881903
_cell_angle_gamma    89.98856373748937

_space_group_name_H-M_alt    "P 1"
_space_group_IT_number       1

loop_
  _space_group_symop_operation_xyz
  'x, y, z'

loop_
  _atom_site_type_symbol
  _atom_site_label
  _atom_site_symmetry_multiplicity
  _atom_site_fract_x
  _atom_site_fract_y
  _atom_site_fract_z
  _atom_site_occupancy
  Zn  Zn1       1.0  0.49535059976097534  0.9062450690944103  0.6240986478041601  1.0000
  Zn  Zn2       1.0  0.8712346640018752  0.593770955883862  0.3759426909757123  1.0000
  Zn  Zn3       1.0  0.5046469166626012  0.09375745066955689  0.3759010658074401  1.0000
  Zn  Zn4       1.0  0.128766456686094  0.4062326370238266  0.6240595054891498  1.0000
  H   H1        1.0  0.24858784525209637  0.43877966336581403  0.407462258338846  1.0000
  H   H2        1.0  0.8410035938934188  0.06106709961728997  0.5924537018133902  1.0000
  H   H3        1.0  0.7514129393463735  0.5612197420590305  0.592540178336783  1.0000
  H   H4        1.0  0.15898814755013288  0.9389354460468691  0.4075484266626999  1.0000
  H   H5        1.0  0.4121805479869494  0.387875031295138  0.3924001734208033  1.0000
  H   H6        1.0  0.019684173763359097  0.11210730930036308  0.6076159174673206  1.0000
  H   H7        1.0  0.5878191168843615  0.6121253892865254  0.6075991639768146  1.0000
  H   H8        1.0  0.9803108228541365  0.8878921121862928  0.39238799481994846  1.0000
  H   H9        1.0  0.25336368214652083  0.19882237027294986  0.8090399499872089  1.0000
  H   H10       1.0  0.44436561184850387  0.30121513566177066  0.1909871599918702  1.0000
  H   H11       1.0  0.7466362965463844  0.8011812376531537  0.19096366870341078  1.0000
  H   H12       1.0  0.5556374567400938  0.6987842397262369  0.8090124322322435  1.0000
  H   H13       1.0  0.33944848959883706  0.04396530199679201  0.8052268009204935  1.0000
  H   H14       1.0  0.5341393592535938  0.4561317418590746  0.1948334197225634  1.0000
  H   H15       1.0  0.6605537378153559  0.9560372659156897  0.19477755556953003  1.0000
  H   H16       1.0  0.46586010507061093  0.5438665603852185  0.8051636896482887  1.0000
  H   H17       1.0  0.10861189499464532  0.8819601977173904  0.8396842548471282  1.0000
  H   H18       1.0  0.26888526881568714  0.6178610331214286  0.1603222064808349  1.0000
  H   H19       1.0  0.8913824386939594  0.11802014371451007  0.16029818297351273  1.0000
  H   H20       1.0  0.7311131407860572  0.38213833347158743  0.8396764998762972  1.0000
  H   H21       1.0  0.8011996994982696  0.7499255731419862  0.999923637021254  1.0000
  H   H22       1.0  0.19880119464071563  0.25007588175156303  7.445291112868815e-05  1.0000
  C   C1        1.0  0.364194136559  0.287871580291771  0.5247190337272725  1.0000
  C   C2        1.0  0.839385755292895  0.21226918684241267  0.4754977863175538  1.0000
  C   C3        1.0  0.6358107499376472  0.7121351745818527  0.47528505585903946  1.0000
  C   C4        1.0  0.16061084568460868  0.7877354859541086  0.5245074560522907  1.0000
  C   C5        1.0  0.33725113229500886  0.16535391396484295  0.6658355268389965  1.0000
  C   C6        1.0  0.6713608311192446  0.33479695074387184  0.33430582219614274  1.0000
  C   C7        1.0  0.6627548869297398  0.8346518355903426  0.3341726012781904  1.0000
  C   C8        1.0  0.3286391345727182  0.6652066473438508  0.6656968572416203  1.0000
  C   C9        1.0  0.9402046697082581  0.8224897161274141  0.9083232409956632  1.0000
  C   C10       1.0  0.0318708834250572  0.6773338427026445  0.09162002405164317  1.0000
  C   C11       1.0  0.05979232679678151  0.1774938318039858  0.09166532993076257  1.0000
  C   C12       1.0  0.9681248893621374  0.3226623370676335  0.9083744277054248  1.0000
  C   C13       1.0  0.08669881830340388  0.8250378968805234  0.9097939474421248  1.0000
  C   C14       1.0  0.17690681794100271  0.6748427383773999  0.09025059618334547  1.0000
  C   C15       1.0  0.913295689930422  0.1749445432119856  0.09018883989955372  1.0000
  C   C16       1.0  0.8230898610253023  0.32515029806030066  0.909743787572111  1.0000
  C   C17       1.0  0.2015637538591477  0.7499716673276422  5.888047776638248e-05  1.0000
  C   C18       1.0  0.7984327858307767  0.25002028042623436  0.9999315715057334  1.0000
  C   C19       1.0  0.9147402936513558  0.7499109402331993  0.9999561516153713  1.0000
  C   C20       1.0  0.08525754031096261  0.250082091024467  3.7749167191210604e-05  1.0000
  C   C21       1.0  0.8098753138125974  0.8942974822279481  0.8064374477771704  1.0000
  C   C22       1.0  0.003416838431881791  0.6052858693960345  0.19339504601584415  1.0000
  C   C23       1.0  0.19012332605527862  0.10569134652845948  0.1935552709904015  1.0000
  C   C24       1.0  0.9965863824340321  0.39471460451417767  0.8066094172330904  1.0000
  N   N1        1.0  0.4343430879055036  0.09982744327967197  0.6221466405682744  1.0000
  N   N2        1.0  0.8121411945784942  0.4003098503205535  0.3780653709545515  1.0000
  N   N3        1.0  0.5656652543122007  0.9001783057538191  0.3778614608559747  1.0000
  N   N4        1.0  0.1878599391104174  0.5996937524255088  0.6219377647631671  1.0000
  N   N5        1.0  0.45181464076968336  0.1788451746265166  0.5301266406739982  1.0000
  N   N6        1.0  0.921597622328136  0.32130649513118215  0.4701203951915856  1.0000
  N   N7        1.0  0.5481923459049085  0.8211584612496379  0.46987971569638615  1.0000
  N   N8        1.0  0.07840131464325847  0.6786981869820251  0.5298857597381782  1.0000
  N   N9        1.0  0.29234805107913797  0.28414767045429556  0.6097942533415475  1.0000
  N   N10       1.0  0.6824803035079229  0.2160109536624971  0.3903517823303202  1.0000
  N   N11       1.0  0.7076567611458416  0.7158580449274012  0.39021060073710584  1.0000
  N   N12       1.0  0.3175161711941429  0.7839926402885736  0.6096504675204171  1.0000
  N   N13       1.0  0.35044882481567197  0.39051994783373084  0.4491763640732953  1.0000
  N   N14       1.0  0.9011802426141885  0.10956400458733379  0.5508946442169387  1.0000
  N   N15       1.0  0.6495543700483637  0.609480506399727  0.5508262206699255  1.0000
  N   N16       1.0  0.0988152906399193  0.8904417227195366  0.44911125588632206  1.0000
  N   N17       1.0  0.2813698790473609  0.11979235248783482  0.7506544232872796  1.0000
  N   N18       1.0  0.530664338599344  0.38030264085391247  0.24939774310975327  1.0000
  N   N19       1.0  0.7186359879000719  0.8802122985451459  0.24934883380508657  1.0000
  N   N20       1.0  0.46933542654551264  0.6196988388964398  0.7506027083012438  1.0000
  N   N21       1.0  0.354414866182765  0.7499376029991891  0.00012741914259348602  1.0000
  N   N22       1.0  0.6455836046897119  0.25006279324736613  0.9998695834693403  1.0000
  O   O1        1.0  0.8362438148816694  0.9691703741741121  0.7335185615780017  1.0000
  O   O2        1.0  0.1024225789320141  0.5299063787255561  0.26579889096774406  1.0000
  O   O3        1.0  0.16375544889542942  0.03082580973281069  0.26647631976609176  1.0000
  O   O4        1.0  0.8975824951108038  0.47010248464705745  0.7342064873924766  1.0000
  O   O5        1.0  0.6729907563084226  0.8689040988230162  0.8004069123246534  1.0000
  O   O6        1.0  0.872786206974432  0.6310170109465715  0.1997558766670408  1.0000
  O   O7        1.0  0.3270094619175694  0.13108996156649505  0.1995852580197662  1.0000
  O   O8        1.0  0.12721385899108384  0.3689876463098329  0.8002479167841015  1.0000
  O   O9        1.0  0.4395743909301544  0.6546387908771577  0.04740575254282919  1.0000
  O   O10       1.0  0.3924024396968094  0.8452292481118419  0.9528901291786978  1.0000
  O   O11       1.0  0.5604325307397319  0.34536479580709306  0.9525959075632567  1.0000
  O   O12       1.0  0.6075919868310821  0.15477750419022127  0.047113610899401685  1.0000
