data_image0
_chemical_formula_structural       Cu4H24C32S8N16Cl8
_chemical_formula_sum              "Cu4 H24 C32 S8 N16 Cl8"
_cell_length_a       8.626184074577456
_cell_length_b       11.66803488224978
_cell_length_c       12.296839108410166
_cell_angle_alpha    89.97437599823131
_cell_angle_beta     90.00900375984378
_cell_angle_gamma    107.36512600990692

_space_group_name_H-M_alt    "P 1"
_space_group_IT_number       1

loop_
  _space_group_symop_operation_xyz
  'x, y, z'

loop_
  _atom_site_type_symbol
  _atom_site_label
  _atom_site_symmetry_multiplicity
  _atom_site_fract_x
  _atom_site_fract_y
  _atom_site_fract_z
  _atom_site_occupancy
  Cu  Cu1       1.0  0.2623492657895952  0.8777459540209095  0.7534886156288252  1.0000
  Cu  Cu2       1.0  0.7375167113267763  0.6220691542597978  0.2534877089229468  1.0000
  Cu  Cu3       1.0  0.7376107509570886  0.12223515202227019  0.2465187705917131  1.0000
  Cu  Cu4       1.0  0.2624941591016068  0.3779342883244183  0.7464960920677868  1.0000
  H   H1        1.0  0.0044331212389537075  0.7889687546518758  0.5906529940653015  1.0000
  H   H2        1.0  0.9955549271266335  0.7110338018294444  0.0906436601789551  1.0000
  H   H3        1.0  0.9954822342841183  0.2109711314527872  0.409321056533706  1.0000
  H   H4        1.0  0.0045365945135316344  0.28898829183928143  0.90933851487069  1.0000
  H   H5        1.0  0.752704920956198  0.8329610782213168  0.5281111435413237  1.0000
  H   H6        1.0  0.24729227186135463  0.667058734251377  0.028089129117873292  1.0000
  H   H7        1.0  0.2473437741591553  0.16702427308511864  0.47189055415173436  1.0000
  H   H8        1.0  0.752705725590303  0.33293305492450304  0.9719068718919599  1.0000
  H   H9        1.0  0.6881640156359977  0.012958012976412208  0.6134709294041228  1.0000
  H   H10       1.0  0.31196310338739164  0.4870527208589977  0.1134853450205924  1.0000
  H   H11       1.0  0.31190127805274415  0.9870452685567772  0.38654296365771756  1.0000
  H   H12       1.0  0.688081405031667  0.5129479253394464  0.8865163491964623  1.0000
  H   H13       1.0  0.5345187020804973  0.4740814993531402  0.5971230462381314  1.0000
  H   H14       1.0  0.465557510219746  0.026015159591160908  0.09715326342094237  1.0000
  H   H15       1.0  0.4654553666505238  0.5259283315890216  0.4028989725718546  1.0000
  H   H16       1.0  0.5344518193524409  0.9740242431150821  0.9028492338494869  1.0000
  H   H17       1.0  0.7985566180237029  0.4378947890270338  0.5488198647211319  1.0000
  H   H18       1.0  0.20141072487606243  0.06216072108619393  0.048847065418684096  1.0000
  H   H19       1.0  0.2014051951919598  0.5621105868745246  0.4511793842780633  1.0000
  H   H20       1.0  0.7985679176720241  0.9378517965498434  0.9511635680337988  1.0000
  H   H21       1.0  0.8520164071555741  0.2514560963131914  0.6290163032137669  1.0000
  H   H22       1.0  0.1479561158903948  0.24849394355545232  0.1289951114514452  1.0000
  H   H23       1.0  0.14794772193491923  0.7485492728433344  0.3709837591317821  1.0000
  H   H24       1.0  0.8519830782534471  0.7515043081334625  0.8709878734684792  1.0000
  C   C1        1.0  0.9721170300943598  0.8660217294356943  0.6220135392742634  1.0000
  C   C2        1.0  0.02793730363852384  0.633952627234713  0.12201550750545208  1.0000
  C   C3        1.0  0.02788320501390731  0.13395566842697806  0.377986530997994  1.0000
  C   C4        1.0  0.9720901821118916  0.36603188361088723  0.8779926949326862  1.0000
  C   C5        1.0  0.8323905518224637  0.8907828926914265  0.587446166792752  1.0000
  C   C6        1.0  0.16760924602544955  0.6092076360348885  0.08741387704002788  1.0000
  C   C7        1.0  0.16763438738374253  0.10921241226131433  0.4125669125175833  1.0000
  C   C8        1.0  0.8324031863965757  0.3907769204428249  0.9125813130836703  1.0000
  C   C9        1.0  0.7990712450900189  0.9904626967704361  0.6327494634347204  1.0000
  C   C10       1.0  0.20102661876571665  0.5095470244715941  0.1327298065741473  1.0000
  C   C11       1.0  0.200982778605308  0.0095442094780509  0.3672782529274982  1.0000
  C   C12       1.0  0.7989925881405427  0.49044560403495313  0.8672645689936472  1.0000
  C   C13       1.0  0.035540874423404006  0.0332434170015645  0.72964178289034  1.0000
  C   C14       1.0  0.9645153605774226  0.46665437444168134  0.22967748279037886  1.0000
  C   C15       1.0  0.9644546507767515  0.9667196090295392  0.27036316947398115  1.0000
  C   C16       1.0  0.03545849347071343  0.5333293915036421  0.7703209582408873  1.0000
  C   C17       1.0  0.4940241483535246  0.22511106402940584  0.7305575079916053  1.0000
  C   C18       1.0  0.5059861357247115  0.2748610641635238  0.23053455273323917  1.0000
  C   C19       1.0  0.5060012935547178  0.7748968257202122  0.26945475545932135  1.0000
  C   C20       1.0  0.4940262431534991  0.7251801284790247  0.7694655046742935  1.0000
  C   C21       1.0  0.5654205641557084  0.39614769457121923  0.6278125833175849  1.0000
  C   C22       1.0  0.4346197764385238  0.10387820920516332  0.1278681386896992  1.0000
  C   C23       1.0  0.4345577693403869  0.6038612279307217  0.37219805088059843  1.0000
  C   C24       1.0  0.5653739397385139  0.8961513473625261  0.8721400523281132  1.0000
  C   C25       1.0  0.7110445038680452  0.3756560529104149  0.6012335791163537  1.0000
  C   C26       1.0  0.2889459337200719  0.12434185385964013  0.1012594926780608  1.0000
  C   C27       1.0  0.2889343694689687  0.6243456758566241  0.3987778698549747  1.0000
  C   C28       1.0  0.7110366068774925  0.8756688569955174  0.8987413827672339  1.0000
  C   C29       1.0  0.7393876767448688  0.27323687165942084  0.6444500872874386  1.0000
  C   C30       1.0  0.26060106830262  0.2267500242417597  0.1444334824923672  1.0000
  C   C31       1.0  0.26059461274825696  0.7267675436893345  0.35556461417093727  1.0000
  C   C32       1.0  0.7393559193339881  0.7732463777474123  0.8555551963217454  1.0000
  S   S1        1.0  0.15170947729982492  0.14045484369839303  0.8233430288748095  1.0000
  S   S2        1.0  0.8483116486317286  0.3594697612475883  0.3234252181021091  1.0000
  S   S3        1.0  0.8482994031888682  0.859515337104334  0.17665948305707246  1.0000
  S   S4        1.0  0.15165427253895566  0.6405059417864224  0.6765488276880588  1.0000
  S   S5        1.0  0.37558789640831947  0.117609467314054  0.8228519683492975  1.0000
  S   S6        1.0  0.6244676048468494  0.38238542048260626  0.3228021581401919  1.0000
  S   S7        1.0  0.624435229774541  0.8823984272969772  0.1771676139270184  1.0000
  S   S8        1.0  0.3755364951423773  0.6176638903859698  0.67718163274548  1.0000
  N   N1        1.0  0.0731892383939936  0.9351098413522578  0.6965009606703417  1.0000
  N   N2        1.0  0.9268962421063381  0.5648371123484496  0.19653874831516302  1.0000
  N   N3        1.0  0.9267905206011945  0.0648685149912467  0.303492602531648  1.0000
  N   N4        1.0  0.07311103932455157  0.4351717321507494  0.8034548099370651  1.0000
  N   N5        1.0  0.9035522656777603  0.0631159981433598  0.7017452660149884  1.0000
  N   N6        1.0  0.09652535208078922  0.4368297206250418  0.2017523269826853  1.0000
  N   N7        1.0  0.09646852418025294  0.9368748205325589  0.2982808254923413  1.0000
  N   N8        1.0  0.9034744212852319  0.5631692570476049  0.7982371668629469  1.0000
  N   N9        1.0  0.4557283022005123  0.322018004436373  0.694535338895335  1.0000
  N   N10       1.0  0.5443260700328025  0.1779769568559431  0.1945926956234487  1.0000
  N   N11       1.0  0.5442663947360771  0.6779657006153387  0.30547123547025723  1.0000
  N   N12       1.0  0.4556897620806312  0.8220471445899877  0.805408992034991  1.0000
  N   N13       1.0  0.6296444360670678  0.19760934554745554  0.7083382829080449  1.0000
  N   N14       1.0  0.37038002602517395  0.3023757396146466  0.20827486473357473  1.0000
  N   N15       1.0  0.37037095138153836  0.8023994695991236  0.2916829251802255  1.0000
  N   N16       1.0  0.629591474904636  0.6976278129260011  0.7917154397985583  1.0000
  Cl  Cl1       1.0  0.37070996777070064  0.9035466482029763  0.5845733504444084  1.0000
  Cl  Cl2       1.0  0.6301760929622305  0.5976617850460217  0.08438496716075862  1.0000
  Cl  Cl3       1.0  0.6293046700061778  0.09649722582336302  0.4154665541584207  1.0000
  Cl  Cl4       1.0  0.3698037065294671  0.4023507417435256  0.9155719940228053  1.0000
  Cl  Cl5       1.0  0.16188634298252688  0.8577932586424384  0.9268286035209456  1.0000
  Cl  Cl6       1.0  0.8380639862091857  0.6421211248944091  0.42684819158053233  1.0000
  Cl  Cl7       1.0  0.8380051729932275  0.14208827355637507  0.07308609329233917  1.0000
  Cl  Cl8       1.0  0.16205411496333977  0.35795752087287275  0.573176260228493  1.0000
