data_image0
_chemical_formula_structural       Zn8H24C96Br24O26
_chemical_formula_sum              "Zn8 H24 C96 Br24 O26"
_cell_length_a       28.34351426373006
_cell_length_b       28.344248995175107
_cell_length_c       28.342436256774214
_cell_angle_alpha    119.99963103792983
_cell_angle_beta     90.00319963123574
_cell_angle_gamma    59.992537961715705

_space_group_name_H-M_alt    "P 1"
_space_group_IT_number       1

loop_
  _space_group_symop_operation_xyz
  'x, y, z'

loop_
  _atom_site_type_symbol
  _atom_site_label
  _atom_site_symmetry_multiplicity
  _atom_site_fract_x
  _atom_site_fract_y
  _atom_site_fract_z
  _atom_site_occupancy
  Zn  Zn1       1.0  0.5282956893145397  0.05662504787975544  0.02829609773434765  1.0000
  Zn  Zn2       1.0  0.5283535607950754  0.9434134979349408  0.9150478948366966  1.0000
  Zn  Zn3       1.0  0.41513027941307723  0.05657611431247734  0.0282350620418583  1.0000
  Zn  Zn4       1.0  0.5282957195076818  0.9434177773752025  0.028264482000601488  1.0000
  Zn  Zn5       1.0  0.9716072765158329  0.943435791059464  0.47177273959236754  1.0000
  Zn  Zn6       1.0  0.08484187892648291  0.9433736526327363  0.4716819153928782  1.0000
  Zn  Zn7       1.0  0.9716399397124674  0.05659618339431189  0.5849039184878748  1.0000
  Zn  Zn8       1.0  0.9716224329388937  0.056596837036494305  0.4717069583667029  1.0000
  H   H1        1.0  0.8048342104243387  0.07593146380806096  0.3048976757948905  1.0000
  H   H2        1.0  0.8048556408682263  0.9239433764650894  0.3048507928057088  1.0000
  H   H3        1.0  0.6950923849516927  0.07595728277161831  0.19515182477273657  1.0000
  H   H4        1.0  0.6950445286101969  0.9240245978007519  0.19514494331145463  1.0000
  H   H5        1.0  0.2710375659128985  0.9240342911875384  0.6191154969798731  1.0000
  H   H6        1.0  0.11909997336572083  0.07606657507999143  0.7711198165410879  1.0000
  H   H7        1.0  0.3808503542675795  0.9240359771363269  0.7288390689720642  1.0000
  H   H8        1.0  0.2289123832657366  0.07601322525852787  0.8808423608356577  1.0000
  H   H9        1.0  0.2709558124643294  0.6097398780948565  0.3049878289785822  1.0000
  H   H10       1.0  0.1189822240583922  0.6097696018166942  0.3050258768191086  1.0000
  H   H11       1.0  0.3807234563201334  0.3902977144955171  0.19530049460792745  1.0000
  H   H12       1.0  0.22881738973747903  0.39019512223381964  0.19521986420944873  1.0000
  H   H13       1.0  0.8049516086445083  0.3902170586117319  0.6191424793541882  1.0000
  H   H14       1.0  0.8049097696729957  0.39026859554932963  0.7711353810195053  1.0000
  H   H15       1.0  0.6950754509023936  0.6097259215911492  0.7288892854097004  1.0000
  H   H16       1.0  0.6950719874910903  0.609798267883249  0.8808949688791046  1.0000
  H   H17       1.0  0.8049130913147803  0.0760916312119164  0.7712369069591746  1.0000
  H   H18       1.0  0.8048319915341938  0.9241525855896165  0.6193404365277928  1.0000
  H   H19       1.0  0.6950975916306773  0.0761513620649552  0.8810288247491371  1.0000
  H   H20       1.0  0.6951999890079467  0.9241632401037091  0.7290028307629868  1.0000
  H   H21       1.0  0.27104065705778146  0.9242089499738952  0.30502956880518195  1.0000
  H   H22       1.0  0.11905650836255428  0.07615795822236746  0.30501365902910743  1.0000
  H   H23       1.0  0.38081918893212224  0.9240977102847763  0.1951257256327495  1.0000
  H   H24       1.0  0.22885680705109485  0.07609187413886079  0.19513532429358796  1.0000
  C   C1        1.0  0.5904313736232607  8.892355321423929e-05  0.9096421434095704  1.0000
  C   C2        1.0  0.4096436407622335  0.9999870509166797  0.909509933121889  1.0000
  C   C3        1.0  0.4095645631198935  0.1808269943866775  0.09040312538100179  1.0000
  C   C4        1.0  0.40956178391139986  3.1321917361983334e-05  0.09037394532148818  1.0000
  C   C5        1.0  0.5904211916249694  0.9999805561098538  0.09038238209043212  1.0000
  C   C6        1.0  0.5904582725978071  0.8191876514692636  0.9095582976996397  1.0000
  C   C7        1.0  0.09026193531035161  0.8191859562524755  0.4096718688247024  1.0000
  C   C8        1.0  0.09031559638062014  0.9999982664336069  0.5904506959353171  1.0000
  C   C9        1.0  0.9095505723127316  4.259101265103748e-05  0.5904929931046681  1.0000
  C   C10       1.0  0.9094771746063303  0.18081816235741838  0.5904533387854799  1.0000
  C   C11       1.0  0.9094677768488566  4.08124723339772e-06  0.4096785845516847  1.0000
  C   C12       1.0  0.09033311846813061  4.522028855548598e-05  0.4096022305213864  1.0000
  C   C13       1.0  0.8719512894867735  0.9999671606442885  0.3720925894260959  1.0000
  C   C14       1.0  0.8529364196391284  0.04246419216247682  0.3530459783245945  1.0000
  C   C15       1.0  0.8182434202571683  0.04257315345007834  0.3183212382413885  1.0000
  C   C16       1.0  0.8004110137427678  0.9999503375017011  0.3004681715773784  1.0000
  C   C17       1.0  0.8182573204566027  0.9573244039032285  0.31829886683485104  1.0000
  C   C18       1.0  0.8529482267909502  0.9574401723155427  0.35302320898842515  1.0000
  C   C19       1.0  0.7651690763945425  0.9999577510047355  0.2652211854629414  1.0000
  C   C20       1.0  0.7347350503081954  0.9999625669537833  0.23480139713119993  1.0000
  C   C21       1.0  0.6994945494311935  0.9999812700967321  0.19956214736890124  1.0000
  C   C22       1.0  0.681670019166326  0.04259742734306107  0.18172020264966454  1.0000
  C   C23       1.0  0.646975851655611  0.04248518760120852  0.14699912163429465  1.0000
  C   C24       1.0  0.6279461332503189  0.9999757381811204  0.1279458696271263  1.0000
  C   C25       1.0  0.646948093352755  0.9574936326630589  0.14699968730835178  1.0000
  C   C26       1.0  0.6816458508476162  0.9573793782891328  0.18171790511333108  1.0000
  C   C27       1.0  0.12786889791692593  1.894969315690742e-05  0.6279914067610405  1.0000
  C   C28       1.0  0.1894125902471091  0.9575091358810891  0.6045014641255764  1.0000
  C   C29       1.0  0.2242541230373335  0.9574054330968519  0.639080126781863  1.0000
  C   C30       1.0  0.19949538748555526  4.245734370292052e-05  0.6995440690708605  1.0000
  C   C31       1.0  0.13903675679595304  0.04267801711310428  0.7243359068318043  1.0000
  C   C32       1.0  0.10441990681186283  0.04255835108975261  0.6895350320616701  1.0000
  C   C33       1.0  0.2347515174883341  4.315441692158825e-05  0.7347694506933563  1.0000
  C   C34       1.0  0.26519104298647284  3.0223221699471327e-05  0.7651876211985709  1.0000
  C   C35       1.0  0.3004595226972881  2.174585262078175e-05  0.8004161781270156  1.0000
  C   C36       1.0  0.36092245592894995  0.9573938406706473  0.7756236225532903  1.0000
  C   C37       1.0  0.39553293301677434  0.957500454756406  0.8104305191833205  1.0000
  C   C38       1.0  0.37208088291793445  2.919412061474294e-06  0.871973268556232  1.0000
  C   C39       1.0  0.3105380429913893  0.04251791879345736  0.8954620627467875  1.0000
  C   C40       1.0  0.27569916572048203  0.04263926064677276  0.860880742663724  1.0000
  C   C41       1.0  0.12780419012628402  0.7440854061635559  0.3721502484913018  1.0000
  C   C42       1.0  0.1893513406761187  0.7060134129224308  0.3531156501493626  1.0000
  C   C43       1.0  0.22416952621108518  0.6365931045677939  0.3184099020077654  1.0000
  C   C44       1.0  0.19939027687856756  0.600920500346781  0.3005817946418289  1.0000
  C   C45       1.0  0.13893375289592302  0.6366024190252232  0.3184327419401071  1.0000
  C   C46       1.0  0.10433281737591937  0.7060223390541294  0.35313680990953594  1.0000
  C   C47       1.0  0.23463040531174773  0.5304328900364296  0.2653479593312653  1.0000
  C   C48       1.0  0.2650765325489529  0.46956492208327205  0.23491964701741355  1.0000
  C   C49       1.0  0.30035196057382046  0.3990808322204414  0.19965827121858828  1.0000
  C   C50       1.0  0.3608069700808017  0.3634303142458321  0.18183671047364686  1.0000
  C   C51       1.0  0.3954330508876112  0.29401215194958746  0.1470986736008514  1.0000
  C   C52       1.0  0.3719875787572491  0.2559187356557898  0.12800993635057983  1.0000
  C   C53       1.0  0.31045040751711633  0.29396462139551705  0.14705784484434054  1.0000
  C   C54       1.0  0.2756023185144301  0.36338105597741316  0.1817966751500605  1.0000
  C   C55       1.0  0.8720011026681718  0.25591870330331534  0.6280012161465295  1.0000
  C   C56       1.0  0.8530213102253724  0.2939729700290599  0.6045178833086168  1.0000
  C   C57       1.0  0.8183385667684462  0.36339007329081585  0.639098409971467  1.0000
  C   C58       1.0  0.8004795059308024  0.39908500918353684  0.6995602181312393  1.0000
  C   C59       1.0  0.8183129528396337  0.3634155419397158  0.724350320288771  1.0000
  C   C60       1.0  0.8529968446028204  0.29400054103776113  0.6895435286707611  1.0000
  C   C61       1.0  0.765225145842173  0.46957861981934457  0.7348022874209691  1.0000
  C   C62       1.0  0.7347699190838952  0.5304310669636793  0.765240407240569  1.0000
  C   C63       1.0  0.6995111002384674  0.600923266502242  0.800472116252834  1.0000
  C   C64       1.0  0.6816636104645822  0.6365860325363214  0.7756752408959712  1.0000
  C   C65       1.0  0.6469693327220725  0.7059999766284831  0.8104800698908506  1.0000
  C   C66       1.0  0.6279627152704562  0.7440885175932904  0.8720187429835563  1.0000
  C   C67       1.0  0.6469654574225812  0.7060427150739484  0.8955165250094411  1.0000
  C   C68       1.0  0.6816641540623819  0.6366245508257716  0.8609359219315564  1.0000
  C   C69       1.0  0.8720204920881828  7.259200308573311e-05  0.6280719862399664  1.0000
  C   C70       1.0  0.8530177338975445  0.04258304426107871  0.6896056761329419  1.0000
  C   C71       1.0  0.8183148531159857  0.0427228366787206  0.7244485907925763  1.0000
  C   C72       1.0  0.8004614581696144  0.00012721468882395876  0.6996950089890461  1.0000
  C   C73       1.0  0.8182692803635875  0.9574983808383661  0.6392477550025506  1.0000
  C   C74       1.0  0.8529753459883193  0.9575798029140541  0.6046207522536309  1.0000
  C   C75       1.0  0.7652228635325784  0.00017574822910371686  0.7349717218745581  1.0000
  C   C76       1.0  0.734793100855981  0.00018579731234768588  0.7654060033665289  1.0000
  C   C77       1.0  0.6995553145646698  0.00015635856791323873  0.8006060531103428  1.0000
  C   C78       1.0  0.6816928148591259  0.042771336718914005  0.8610604139054274  1.0000
  C   C79       1.0  0.6469857151868582  0.04264016744189524  0.8956316471399504  1.0000
  C   C80       1.0  0.6279806438240457  0.00011748720399387176  0.8721279305967898  1.0000
  C   C81       1.0  0.6470411562036488  0.9576019793356277  0.8105788807682045  1.0000
  C   C82       1.0  0.6817469102677408  0.9575218118297995  0.775788483900179  1.0000
  C   C83       1.0  0.12788559683923487  0.00011682626764298203  0.3721207955676746  1.0000
  C   C84       1.0  0.189431815130611  0.9576570380632105  0.35312253345957606  1.0000
  C   C85       1.0  0.22425237396775083  0.9575560426479509  0.3184216217677617  1.0000
  C   C86       1.0  0.1994815136824784  0.00015639708911401422  0.3005564991723233  1.0000
  C   C87       1.0  0.13901841810049118  0.04277529339195501  0.3184123045409423  1.0000
  C   C88       1.0  0.10442628019796978  0.04264552425854618  0.353106384299153  1.0000
  C   C89       1.0  0.2347234341714852  0.00015302172424466452  0.26529833237610484  1.0000
  C   C90       1.0  0.2651505272031969  0.00012991813802893008  0.23483884709641958  1.0000
  C   C91       1.0  0.3004035497841783  0.0001004334665993295  0.19956816828261745  1.0000
  C   C92       1.0  0.36086800005158176  0.9574637908948488  0.18170824438043817  1.0000
  C   C93       1.0  0.3954679430594723  0.9575505156554412  0.14697742942912143  1.0000
  C   C94       1.0  0.3719974983871949  5.5682793046628475e-05  0.12793704312173296  1.0000
  C   C95       1.0  0.31045834531906275  0.04257287217411227  0.14698509967194437  1.0000
  C   C96       1.0  0.27563997161736614  0.04270562036168708  0.18171346217239662  1.0000
  Br  Br1       1.0  0.8709957812466557  0.1048037925237536  0.3710753316545096  1.0000
  Br  Br2       1.0  0.8710258183578578  0.8950528432003748  0.371023183051321  1.0000
  Br  Br3       1.0  0.6289547376420188  0.10484745644877343  0.1289557226088504  1.0000
  Br  Br4       1.0  0.6288783174602698  0.8951709681158488  0.12897086789165968  1.0000
  Br  Br5       1.0  0.2337218995089998  0.8951265170973031  0.524085093782361  1.0000
  Br  Br6       1.0  0.024031800465330433  0.10494493915581404  0.7338646234854095  1.0000
  Br  Br7       1.0  0.47592236907103586  0.8951364451218846  0.766098890103784  1.0000
  Br  Br8       1.0  0.26622324476681314  0.10488572056432574  0.9758691043786385  1.0000
  Br  Br9       1.0  0.23367794155183944  0.7420702105764219  0.3711646134940807  1.0000
  Br  Br10      1.0  0.023940331452578786  0.7421086493854502  0.3712207489744302  1.0000
  Br  Br11      1.0  0.4758220299361114  0.2579752407534882  0.12913397085541328  1.0000
  Br  Br12      1.0  0.26617105598963786  0.257842548975148  0.12900432852106297  1.0000
  Br  Br13      1.0  0.8711223172013547  0.2578770266637134  0.5241072906834603  1.0000
  Br  Br14      1.0  0.8710577088682997  0.2579392518217032  0.7338656584165976  1.0000
  Br  Br15      1.0  0.6288978151027037  0.7420524469315452  0.7661449545522172  1.0000
  Br  Br16      1.0  0.6289120926951527  0.7421439422599146  0.9759221650519693  1.0000
  Br  Br17      1.0  0.8710951684159837  0.10490065312450983  0.7338797074108285  1.0000
  Br  Br18      1.0  0.8709898404172663  0.8952148798979275  0.5242321216572421  1.0000
  Br  Br19      1.0  0.6288944200488089  0.10500016519733879  0.9760413360493487  1.0000
  Br  Br20      1.0  0.629049920404057  0.8952183791485736  0.7662267646819675  1.0000
  Br  Br21      1.0  0.23376172713155108  0.8953790347349722  0.37123816824252037  1.0000
  Br  Br22      1.0  0.02402474848123859  0.10504210775339827  0.3711859452531812  1.0000
  Br  Br23      1.0  0.47587946858336494  0.8951489925246103  0.12891539629092097  1.0000
  Br  Br24      1.0  0.2661561238862333  0.10491473067814634  0.1289345645233411  1.0000
  O   O1        1.0  0.5000244632476906  3.2638942555979775e-07  0.9999588045509499  1.0000
  O   O2        1.0  0.5758088632619901  0.03990252264886606  0.9640972231605717  1.0000
  O   O3        1.0  0.46410052962309595  0.9601797296309011  0.8842982991203245  1.0000
  O   O4        1.0  0.38438197164417437  0.15155750117083486  0.0757296448193613  1.0000
  O   O5        1.0  0.5758091914242769  0.9602670055132804  0.8844083519223249  1.0000
  O   O6        1.0  0.46401704043056924  0.15159920076187197  0.07577184330779124  1.0000
  O   O7        1.0  0.38443220016087304  0.039807421803743574  0.963962378899261  1.0000
  O   O8        1.0  0.3843602170270445  0.03983913002824825  0.07572385194959706  1.0000
  O   O9        1.0  0.5758255289875294  0.9601244770580801  0.07571483241124324  1.0000
  O   O10       1.0  0.4640215701960385  0.960209037134099  0.07576463997919117  1.0000
  O   O11       1.0  0.5757854051772853  0.03982908553459902  0.0757791261739697  1.0000
  O   O12       1.0  0.5759238646190568  0.8484328925554154  0.8843494017021246  1.0000
  O   O13       1.0  0.5757984193346887  0.8484407395626542  0.9640129085983845  1.0000
  O   O14       1.0  0.9999468929069835  0.9999941890066777  0.5000021012283187  1.0000
  O   O15       1.0  0.0358067886786629  0.8484359769285701  0.42431322814575645  1.0000
  O   O16       1.0  0.11550786472808736  0.9601663621058661  0.5359901986508221  1.0000
  O   O17       1.0  0.9241579890213174  0.03988310079623116  0.6156855043721874  1.0000
  O   O18       1.0  0.11547379195124567  0.8484226300810959  0.424268450336129  1.0000
  O   O19       1.0  0.9241650883494686  0.9601960777111594  0.536044204650921  1.0000
  O   O20       1.0  0.0358613586719088  0.03980110774332958  0.6156726769318298  1.0000
  O   O21       1.0  0.9240753598496526  0.15158561203639215  0.6156718427068314  1.0000
  O   O22       1.0  0.9241069147647636  0.039811816167386396  0.4242769017578995  1.0000
  O   O23       1.0  0.9240324981095612  0.15156685521608165  0.5359977657095172  1.0000
  O   O24       1.0  0.9240139895736942  0.960245887161406  0.42437141376503723  1.0000
  O   O25       1.0  0.115539289955464  0.9601508656117019  0.42416768817052763  1.0000
  O   O26       1.0  0.03587130463562002  0.039865635778752906  0.4242189138487902  1.0000
