data_image0
_chemical_formula_structural       Zn4H44C62N8O16
_chemical_formula_sum              "Zn4 H44 C62 N8 O16"
_cell_length_a       8.681765074228386
_cell_length_b       12.86282278212315
_cell_length_c       13.959
_cell_angle_alpha    93.79235986680818
_cell_angle_beta     98.69917275605162
_cell_angle_gamma    107.56826148062304

_space_group_name_H-M_alt    "P 1"
_space_group_IT_number       1

loop_
  _space_group_symop_operation_xyz
  'x, y, z'

loop_
  _atom_site_type_symbol
  _atom_site_label
  _atom_site_symmetry_multiplicity
  _atom_site_fract_x
  _atom_site_fract_y
  _atom_site_fract_z
  _atom_site_occupancy
  Zn  Zn1       1.0  0.28989879607804175  0.4612268830650024  0.9313664876444108  1.0000
  Zn  Zn2       1.0  0.7101021658235708  0.5387743448957423  0.06863331948775907  1.0000
  Zn  Zn3       1.0  0.9281871859537316  0.997665540196543  0.5897007283536766  1.0000
  Zn  Zn4       1.0  0.07181183403996981  0.0023340452270944  0.4102987960006672  1.0000
  H   H1        1.0  0.05898399913201758  0.3101151118846559  0.7379585955172345  1.0000
  H   H2        1.0  0.9410196815901414  0.6898869373446388  0.262047964874391  1.0000
  H   H3        1.0  0.7477110733015522  0.1713116925053129  0.7485080939179554  1.0000
  H   H4        1.0  0.25229299600148636  0.8286887141868745  0.25149267184932705  1.0000
  H   H5        1.0  0.9743687678291763  0.3462254688832545  0.02724515006079998  1.0000
  H   H6        1.0  0.025625202606057912  0.6537757590774831  0.9727575813206997  1.0000
  H   H7        1.0  0.5768647623808575  0.1494470598237925  0.8869572965084841  1.0000
  H   H8        1.0  0.42313425761284407  0.850552525599845  0.11304222784585957  1.0000
  H   H9        1.0  0.6719758388934451  0.22682041272133796  0.0021170584605698954  1.0000
  H   H10       1.0  0.3280204622797029  0.7731783514337423  0.9978835928549685  1.0000
  H   H11       1.0  0.9044644852918962  0.1782538755822358  0.10195439990551587  1.0000
  H   H12       1.0  0.09553453470180531  0.8217457098414016  0.8980451244488279  1.0000
  H   H13       1.0  0.9613086317307162  0.024312012968898997  0.1825306617123559  1.0000
  H   H14       1.0  0.03869077659474131  0.9756883937232885  0.8174696656088328  1.0000
  H   H15       1.0  0.823854788502814  0.8315968261323831  0.1054918450660907  1.0000
  H   H16       1.0  0.1761442314908876  0.1684027592912543  0.8945091120556441  1.0000
  H   H17       1.0  0.6120509772248894  0.793740452190505  0.955735168791172  1.0000
  H   H18       1.0  0.3879492080132039  0.2062591332331323  0.0442651815583943  1.0000
  H   H19       1.0  0.4328106797590934  0.8482513311148594  0.8470452527408411  1.0000
  H   H20       1.0  0.5671871749902094  0.1517482543087709  0.1529548783856711  1.0000
  H   H21       1.0  0.41698908661281553  0.9817567470600181  0.8607300204447625  1.0000
  H   H22       1.0  0.583009933380886  0.0182428383636193  0.1392709366769722  1.0000
  H   H23       1.0  0.3816027548727163  0.0194542094790151  0.6870978179622824  1.0000
  H   H24       1.0  0.6183931579686757  0.9805437334075151  0.3129027467701064  1.0000
  H   H25       1.0  0.6028231653987675  0.0585876560205207  0.5563430889637289  1.0000
  H   H26       1.0  0.3971758545949342  0.9414119294031166  0.4436557190069195  1.0000
  H   H27       1.0  0.7910425818725952  0.9208350458124029  0.79482810463562  1.0000
  H   H28       1.0  0.20895604978935006  0.0791637183426772  0.2051713331355742  1.0000
  H   H29       1.0  0.3391176435443839  0.24906775654847016  0.792439097043804  1.0000
  H   H30       1.0  0.6608802109557954  0.7509342926808243  0.20755975145324607  1.0000
  H   H31       1.0  0.4681516138498196  0.2889124216567041  0.5095105918904679  1.0000
  H   H32       1.0  0.5318485716374042  0.711084699961269  0.4904903247048722  1.0000
  H   H33       1.0  0.770202632301789  0.5092357788567412  0.7612457537495416  1.0000
  H   H34       1.0  0.22979677577454538  0.49076709164110344  0.23875257455848237  1.0000
  H   H35       1.0  0.6867904648130221  0.5370102600442976  0.5345598829346443  1.0000
  H   H36       1.0  0.3132108856694699  0.4629893253793327  0.46543842787535544  1.0000
  H   H37       1.0  0.8603416335727658  0.5210825777310575  0.60681843873261  1.0000
  H   H38       1.0  0.13965932857797006  0.4789161864240228  0.3931819346453338  1.0000
  H   H39       1.0  0.8420699019709161  0.293677421800119  0.5655963505541308  1.0000
  H   H40       1.0  0.15793766281618818  0.7063254486977256  0.4344027450345678  1.0000
  H   H41       1.0  0.8514733161913667  0.23712569052202778  0.2603327688627317  1.0000
  H   H42       1.0  0.14852298523090474  0.7628706098274023  0.7396662995474941  1.0000
  H   H43       1.0  0.688348224717984  0.5002962706593834  0.3655277713291696  1.0000
  H   H44       1.0  0.3116523488518723  0.49970413603280406  0.6344698000687643  1.0000
  C   C1        1.0  0.9960357365736598  0.2960303562039286  0.7995867734804492  1.0000
  C   C2        1.0  0.003964060083553982  0.703970871756809  0.200417938726055  1.0000
  C   C3        1.0  0.8439159118461959  0.22577575912215758  0.8041761978807642  1.0000
  C   C4        1.0  0.15608505005541667  0.7742254688385799  0.1958264747861804  1.0000
  C   C5        1.0  0.9600816242645891  0.3163058342357559  0.9508510938235873  1.0000
  C   C6        1.0  0.039914288327679494  0.6836945724564316  0.04915177019780969  1.0000
  C   C7        1.0  0.6881778117245716  0.1727809419462929  0.9427775705188282  1.0000
  C   C8        1.0  0.3118196546929752  0.8272178222087874  0.0572231904082372  1.0000
  C   C9        1.0  0.7248455892564963  0.0742221454604035  0.9832409487991711  1.0000
  C   C10       1.0  0.27515343073719833  0.9257774399632268  0.016759291938868194  1.0000
  C   C11       1.0  0.8437734948375422  0.0938718168549926  0.06807294263053618  1.0000
  C   C12       1.0  0.15622552515615945  0.9061277685686447  0.9319272981075032  1.0000
  C   C13       1.0  0.8778873698361452  0.0075811300110118  0.1128047997565673  1.0000
  C   C14       1.0  0.12211048491315776  0.9924184554126255  0.887195331369945  1.0000
  C   C15       1.0  0.7971044091984041  0.8993933664355822  0.0712689690524471  1.0000
  C   C16       1.0  0.20289461079529758  0.10060621898804809  0.9287319880692877  1.0000
  C   C17       1.0  0.6786598095460477  0.8785774936960065  0.9867065122658687  1.0000
  C   C18       1.0  0.3213407640238017  0.12142291299618078  0.0132939246668471  1.0000
  C   C19       1.0  0.6392802175436997  0.9646464380307262  0.9430296738548591  1.0000
  C   C20       1.0  0.3607184141182458  0.0353523261243538  0.056970480300037714  1.0000
  C   C21       1.0  0.5036482793535981  0.9359866293432404  0.8546802866249976  1.0000
  C   C22       1.0  0.4963507406400964  0.064012956080397  0.1453199541130417  1.0000
  C   C23       1.0  0.4988021419281239  0.0052503698581319  0.6882883732572366  1.0000
  C   C24       1.0  0.5012003737987668  0.9947492155655054  0.3117114799316809  1.0000
  C   C25       1.0  0.6072349313919859  0.0225249325979817  0.6241840791578142  1.0000
  C   C26       1.0  0.3927640886017159  0.9774746528256557  0.3758168779639206  1.0000
  C   C27       1.0  0.7120858802094574  0.9528497365381341  0.7459857617554491  1.0000
  C   C28       1.0  0.2879131397842443  0.0471498488855033  0.2540137625988947  1.0000
  C   C29       1.0  0.5580038056663597  0.3830035172152932  0.7871459882133465  1.0000
  C   C30       1.0  0.4419967676543664  0.6169993532825515  0.2128524497062045  1.0000
  C   C31       1.0  0.42161679271563196  0.2928462980246778  0.7465771803360893  1.0000
  C   C32       1.0  0.5783841691859735  0.7071549299360669  0.25342262679608035  1.0000
  C   C33       1.0  0.39095682909718477  0.2587989676307387  0.6467387077836761  1.0000
  C   C34       1.0  0.6090437444726718  0.7412014390614488  0.3532610127653442  1.0000
  C   C35       1.0  0.495375483306205  0.3170260867565702  0.5874585275997504  1.0000
  C   C36       1.0  0.5046270324206857  0.6829734986670601  0.41254132558916723  1.0000
  C   C37       1.0  0.6318715143428548  0.40843409795312613  0.6269074322988999  1.0000
  C   C38       1.0  0.3681298361396372  0.5915654874705112  0.3730908785111069  1.0000
  C   C39       1.0  0.6637976263869518  0.4394690152953444  0.7277380768217085  1.0000
  C   C40       1.0  0.3362037238464168  0.5605330339339503  0.2722596677425244  1.0000
  C   C41       1.0  0.7400406741691511  0.4746176668186023  0.5620254005093486  1.0000
  C   C42       1.0  0.2599618415577325  0.525381918605035  0.43797230352848265  1.0000
  C   C43       1.0  0.7657993841554003  0.407279394367869  0.4765439801515896  1.0000
  C   C44       1.0  0.2342050734793943  0.5927218335928686  0.5234540066640605  1.0000
  C   C45       1.0  0.8214636609552315  0.3173102456758485  0.4923323650808414  1.0000
  C   C46       1.0  0.1785415735921987  0.682690161016339  0.5076670775305843  1.0000
  C   C47       1.0  0.850684154042149  0.2553759203026189  0.41498068708242647  1.0000
  C   C48       1.0  0.14931408928804052  0.7446220225839113  0.58501794772193  1.0000
  C   C49       1.0  0.8256168936081423  0.2835963503143475  0.3204834639858163  1.0000
  C   C50       1.0  0.1743821266346828  0.7164007713036256  0.6795151938469175  1.0000
  C   C51       1.0  0.7655964291357904  0.3708684530789412  0.3029338793430156  1.0000
  C   C52       1.0  0.23440375610230293  0.6291311323446962  0.6970643218554642  1.0000
  C   C53       1.0  0.7353905776958599  0.4323083747833749  0.380894162605408  1.0000
  C   C54       1.0  0.26461193803103106  0.5676912106402554  0.6191042578161188  1.0000
  C   C55       1.0  0.5836395305545138  0.4218150264840971  0.8925361407377892  1.0000
  C   C56       1.0  0.4163610427662121  0.5781878440137547  0.1074622971817618  1.0000
  C   C57       1.0  0.246357226816329  0.1604331692547589  0.6030172844829451  1.0000
  C   C58       1.0  0.7536414045964861  0.8395680587059785  0.3969830198098663  1.0000
  C   C59       1.0  0.904660389121041  0.1576351072953273  0.43327151837396377  1.0000
  C   C60       1.0  0.09533824254089754  0.842363656859753  0.566730068548317  1.0000
  C   C61       1.0  0.7385684915717762  0.3986856402312426  0.200638275148961  1.0000
  C   C62       1.0  0.2614301400901624  0.6013131239238376  0.7993604462385379  1.0000
  N   N1        1.0  0.0670032984092259  0.3515062256778378  0.8916210254060815  1.0000
  N   N2        1.0  0.932996498247988  0.6484950022828997  0.10838297041673428  1.0000
  N   N3        1.0  0.8235161558658319  0.2393841790422613  0.8999510254281162  1.0000
  N   N4        1.0  0.17648131030258443  0.7606170489184834  0.1000506020205663  1.0000
  N   N5        1.0  0.5681609623824002  0.9619633536686861  0.7651216270830474  1.0000
  N   N6        1.0  0.4318365040351466  0.038035410486394  0.2348784174603153  1.0000
  N   N7        1.0  0.7397120338538344  0.9897690430612514  0.6614750474198559  1.0000
  N   N8        1.0  0.2602869861398673  0.010230542362379  0.3385244769344951  1.0000
  O   O1        1.0  0.4675405755617136  0.3855576624145413  0.9408602133034663  1.0000
  O   O2        1.0  0.5324607746716552  0.6144443868147533  0.05913896402815771  1.0000
  O   O3        1.0  0.7211790417336417  0.4920581258061247  0.9322969561836416  1.0000
  O   O4        1.0  0.27881920109829383  0.50794474469172  0.06770197889655087  1.0000
  O   O5        1.0  0.1438370374666817  0.1186264935738564  0.6577636637607185  1.0000
  O   O6        1.0  0.8561658668410884  0.8813714493126737  0.3422368422571155  1.0000
  O   O7        1.0  0.2388313058199216  0.1258199848279347  0.5147301842193173  1.0000
  O   O8        1.0  0.7611657717676152  0.8741828856699101  0.48526792486565995  1.0000
  O   O9        1.0  0.8798189499087455  0.1190469830728915  0.5130431262056022  1.0000
  O   O10       1.0  0.12018201199286686  0.8809542448878459  0.48695668092656763  1.0000
  O   O11       1.0  0.9687002391458321  0.1196161221799912  0.3682335456546255  1.0000
  O   O12       1.0  0.03129994634138452  0.8803809994379816  0.6317666545570191  1.0000
  O   O13       1.0  0.7846147530886469  0.3518421245159402  0.1337130119964058  1.0000
  O   O14       1.0  0.2153838785732916  0.64815663963914  0.866284276623702  1.0000
  O   O15       1.0  0.6690357790708532  0.4741331183724427  0.18839922111563112  1.0000
  O   O16       1.0  0.3309612990149375  0.5258648245140876  0.8115993040771984  1.0000
