data_image0
_chemical_formula_structural       CdH16C20N6O10
_chemical_formula_sum              "Cd1 H16 C20 N6 O10"
_cell_length_a       6.367796022849626
_cell_length_b       7.474356004232732
_cell_length_c       11.102003818446013
_cell_angle_alpha    82.37007986166965
_cell_angle_beta     87.8448988228897
_cell_angle_gamma    84.49930668723216

_space_group_name_H-M_alt    "P 1"
_space_group_IT_number       1

loop_
  _space_group_symop_operation_xyz
  'x, y, z'

loop_
  _atom_site_type_symbol
  _atom_site_label
  _atom_site_symmetry_multiplicity
  _atom_site_fract_x
  _atom_site_fract_y
  _atom_site_fract_z
  _atom_site_occupancy
  Cd  Cd1       1.0  1.9335614780005343e-06  0.49999876748874067  0.4999966190488649  1.0000
  H   H1        1.0  0.3447598222082107  0.7200275673519201  0.8035508592898566  1.0000
  H   H2        1.0  0.655230938186925  0.2799738555785821  0.196451011174382  1.0000
  H   H3        1.0  0.3970558096901655  0.4624629552186832  0.6387113818682124  1.0000
  H   H4        1.0  0.6029367547806218  0.5375358620721257  0.361294326155253  1.0000
  H   H5        1.0  0.3134354203376902  0.26510036175637447  0.6524444871203201  1.0000
  H   H6        1.0  0.6865615516893512  0.734901231842784  0.34756355655634513  1.0000
  H   H7        1.0  0.24742501722937493  0.828294124534267  0.08060418259460533  1.0000
  H   H8        1.0  0.752582004799585  0.17170184740377437  0.919398845069118  1.0000
  H   H9        1.0  0.24820548556768773  0.331640053790359  0.8430516779517773  1.0000
  H   H10       1.0  0.7517974595529608  0.6683502929317626  0.15694479562473163  1.0000
  H   H11       1.0  0.27368896267353193  0.9078048575622973  0.5723988599788612  1.0000
  H   H12       1.0  0.7263311046633093  0.09218686415742637  0.4275998559847096  1.0000
  H   H13       1.0  0.27110503102913  0.49479557852436773  0.020426978775297807  1.0000
  H   H14       1.0  0.7288959282477024  0.5051988397948363  0.9795691139121203  1.0000
  H   H15       1.0  0.08635455563928933  0.733741473710033  0.2511049896536335  1.0000
  H   H16       1.0  0.9136386922450656  0.266266631111499  0.7488934457622065  1.0000
  C   C1        1.0  0.2477704083755015  0.069223462304862  0.1690564750953669  1.0000
  C   C2        1.0  0.7522464757158785  0.9307844178658089  0.8309370379268729  1.0000
  C   C3        1.0  0.24478279256734944  0.975114067387146  0.06871778343076333  1.0000
  C   C4        1.0  0.7552130759317424  0.024883327777004603  0.9312862070756438  1.0000
  C   C5        1.0  0.29728940473116694  0.36375254519106187  0.2559560871574789  1.0000
  C   C6        1.0  0.702725935556373  0.6362542621428346  0.7440465741493796  1.0000
  C   C7        1.0  0.2645645134715053  0.9660696432905241  0.8439899583821102  1.0000
  C   C8        1.0  0.7354333219732041  0.033941790717584304  0.1559846253882213  1.0000
  C   C9        1.0  0.24826378858212914  0.2569938037305377  0.9342330300783956  1.0000
  C   C10       1.0  0.7517368179290712  0.742988478150373  0.06576611678263333  1.0000
  C   C11       1.0  0.2429867215503593  0.9021395317176512  0.47739311365100434  1.0000
  C   C12       1.0  0.7570130247626634  0.09786600554120638  0.5226108697515954  1.0000
  C   C13       1.0  0.26557139375567834  0.25661413865390864  0.1528308690736466  1.0000
  C   C14       1.0  0.7344268352784552  0.7433912660133258  0.8471686515440667  1.0000
  C   C15       1.0  0.24644013566744857  0.0677609515973785  0.9509416959423332  1.0000
  C   C16       1.0  0.7535684363366997  0.9322200292410869  0.04906013873544173  1.0000
  C   C17       1.0  0.2609821290707899  0.34865374985548675  0.03438369567371069  1.0000
  C   C18       1.0  0.7390251295403089  0.6513406177798443  0.9656113838094454  1.0000
  C   C19       1.0  0.14880884631690353  0.8104931294693073  0.3152797397649252  1.0000
  C   C20       1.0  0.8511825536406191  0.18951769166817914  0.6847184513000357  1.0000
  N   N1        1.0  0.23257416677242304  0.9702152392284447  0.28666976037967373  1.0000
  N   N2        1.0  0.7674208851875759  0.0297902599533941  0.713332512595386  1.0000
  N   N3        1.0  0.1523592482849878  0.764049372359075  0.4348898536107413  1.0000
  N   N4        1.0  0.8476622205314539  0.23595882257927062  0.5651143528599007  1.0000
  N   N5        1.0  0.2933704244964943  0.030478844907229106  0.3899612576756227  1.0000
  N   N6        1.0  0.7066453183870962  0.9695088835683588  0.6100397506833773  1.0000
  O   O1        1.0  0.2676241576311398  0.7871349572373559  0.8711500998679896  1.0000
  O   O2        1.0  0.732364771971291  0.21285309040369066  0.1288585832419571  1.0000
  O   O3        1.0  0.13211331786634867  0.42399149026215344  0.30846804289507895  1.0000
  O   O4        1.0  0.8678705461034255  0.5760325746726097  0.6915181180649269  1.0000
  O   O5        1.0  0.4882262621983174  0.393186142536493  0.2724618067083142  1.0000
  O   O6        1.0  0.5117634996974658  0.6068098096850818  0.7275388420301426  1.0000
  O   O7        1.0  0.2813614597821399  0.042453033111762295  0.7383118393049627  1.0000
  O   O8        1.0  0.7186151689112917  0.9575323499966542  0.26169734668576444  1.0000
  O   O9        1.0  0.31329623335901874  0.3817512969109913  0.5994368749080934  1.0000
  O   O10       1.0  0.6867066790653382  0.6182541735023365  0.4005652544392433  1.0000
