data_image0
_chemical_formula_structural       Al2H18C28S2N2O16
_chemical_formula_sum              "Al2 H18 C28 S2 N2 O16"
_cell_length_a       6.679657055206331
_cell_length_b       10.933366577223781
_cell_length_c       17.609302347313957
_cell_angle_alpha    93.27065326522748
_cell_angle_beta     81.57883162290413
_cell_angle_gamma    75.8378984237784

_space_group_name_H-M_alt    "P 1"
_space_group_IT_number       1

loop_
  _space_group_symop_operation_xyz
  'x, y, z'

loop_
  _atom_site_type_symbol
  _atom_site_label
  _atom_site_symmetry_multiplicity
  _atom_site_fract_x
  _atom_site_fract_y
  _atom_site_fract_z
  _atom_site_occupancy
  Al  Al1       1.0  0.4981068535684513  0.4975510364064705  0.4985865883772576  1.0000
  Al  Al2       1.0  0.9972001823714005  0.49778512403254654  0.4976993715969228  1.0000
  H   H1        1.0  0.24884821520200254  0.4134318571498384  0.5784975389851252  1.0000
  H   H2        1.0  0.7386468370566062  0.601007468059372  0.4260389619640463  1.0000
  H   H3        1.0  0.6827107852080089  0.47852898322633314  0.2789418376327077  1.0000
  H   H4        1.0  0.779179362636981  0.4764727007406435  0.136287306387608  1.0000
  H   H5        1.0  0.03232387833759283  0.5558635434298368  0.257255090759962  1.0000
  H   H6        1.0  0.9421860525597623  0.5476311333726543  0.7356235221501778  1.0000
  H   H7        1.0  0.37651795393896476  0.430461424874082  0.7244449648016413  1.0000
  H   H8        1.0  0.3145741063508964  0.4304401007359075  0.8679253636578608  1.0000
  H   H9        1.0  0.1844056143397594  0.20992525400847487  0.37370719860617635  1.0000
  H   H10       1.0  0.457902661748875  0.7603990578799797  0.4166094086490233  1.0000
  H   H11       1.0  0.7724397906687841  0.8835888101897568  0.5668657623520017  1.0000
  H   H12       1.0  0.638484901050205  0.1132164035553913  0.5495952853043562  1.0000
  H   H13       1.0  0.13957521376903495  0.6092179125006612  0.0531948587582605  1.0000
  H   H14       1.0  0.9545762434168449  0.6489313749371776  0.1339840678707347  1.0000
  H   H15       1.0  0.8646370311546786  0.5722387217137668  0.947173677486404  1.0000
  H   H16       1.0  0.01687327246835923  0.5996220188280931  0.8651457593797217  1.0000
  H   H17       1.0  0.6568956406818031  0.23138613990378332  0.3717796496835106  1.0000
  H   H18       1.0  0.6269024134319493  0.7065362105197367  0.22837049917468022  1.0000
  C   C1        1.0  0.8482960793299765  0.2649222846251931  0.47783897402304376  1.0000
  C   C2        1.0  0.6992721354022888  0.49381608883373224  0.6371767115217465  1.0000
  C   C3        1.0  0.14489747047666396  0.7279241347192598  0.5124048065831843  1.0000
  C   C4        1.0  0.30133781137875076  0.5024168030561713  0.359522218342569  1.0000
  C   C5        1.0  0.35035244455795583  0.5173486576169425  0.2758334546527336  1.0000
  C   C6        1.0  0.5623418236584001  0.4999977946381764  0.2427347218175058  1.0000
  C   C7        1.0  0.6153157805378839  0.49913607166718776  0.16359101422125374  1.0000
  C   C8        1.0  0.4590322757855958  0.5233868763525822  0.11637624847352157  1.0000
  C   C9        1.0  0.24395282732044163  0.5534280488225534  0.1510851594714211  1.0000
  C   C10       1.0  0.1942603688503296  0.543241057345121  0.2304228661900254  1.0000
  C   C11       1.0  0.5113812128791436  0.5159521851715497  0.03542201684754078  1.0000
  C   C12       1.0  0.5442211964071361  0.5041872939260302  0.9647378907053721  1.0000
  C   C13       1.0  0.5875599285325706  0.49455369117036  0.8834982314618429  1.0000
  C   C14       1.0  0.7711096448055841  0.5254448880892968  0.846167215690343  1.0000
  C   C15       1.0  0.8047733584856118  0.5227714115062625  0.7655043065459282  1.0000
  C   C16       1.0  0.6618999225375217  0.49120276803862606  0.7223077328429639  1.0000
  C   C17       1.0  0.48422936596251975  0.45737196284328974  0.7589286350232312  1.0000
  C   C18       1.0  0.44986285612936433  0.45795915059164843  0.8385230016951651  1.0000
  C   C19       1.0  0.9202248915033522  0.12428866840032533  0.47809293642284695  1.0000
  C   C20       1.0  0.12275739928303857  0.05645112681397531  0.4389443309496882  1.0000
  C   C21       1.0  0.7956753077045846  0.061238321898436324  0.5219727547777211  1.0000
  C   C22       1.0  0.24382224222790674  0.11198965176537713  0.3848811185862644  1.0000
  C   C23       1.0  0.4348015278433977  0.0447723577101584  0.34386384258014857  1.0000
  C   C24       1.0  0.07463560068833881  0.8660376252633172  0.5006110871794007  1.0000
  C   C25       1.0  0.8722359770856793  0.9325942621227699  0.5326804904874223  1.0000
  C   C26       1.0  0.20135747795185194  0.9263643654238722  0.45091690872052936  1.0000
  C   C27       1.0  0.39779111466477673  0.8592219202993552  0.4082951500447578  1.0000
  C   C28       1.0  0.5130988737370145  0.9151896611108585  0.3560932516653565  1.0000
  S   S1        1.0  0.5602446164797  0.13356031602862123  0.2782100698980797  1.0000
  S   S2        1.0  0.7525783696450504  0.8105059980107614  0.308213474171218  1.0000
  N   N1        1.0  0.0885312771073572  0.5866685031798156  0.1065720247706423  1.0000
  N   N2        1.0  0.9118114222767203  0.5543235672039233  0.8892625232493074  1.0000
  O   O1        1.0  0.6583931845556987  0.31424321868235694  0.4702728376797509  1.0000
  O   O2        1.0  0.8766107192482762  0.5057144809950532  0.6054044259263733  1.0000
  O   O3        1.0  0.0008028832344137707  0.6704345538070556  0.5126880092286896  1.0000
  O   O4        1.0  0.45178402837333903  0.5034249322794511  0.39673598946918526  1.0000
  O   O5        1.0  0.3343074907736251  0.6786946450144599  0.5191613728456872  1.0000
  O   O6        1.0  0.12275421282593142  0.4902119025972384  0.3896973870052278  1.0000
  O   O7        1.0  0.9847856645712482  0.32418763231349607  0.488065906434798  1.0000
  O   O8        1.0  0.5498304324879014  0.48287874213518495  0.6012896174497939  1.0000
  O   O9        1.0  0.2599305221979689  0.44095134820426557  0.527020869223989  1.0000
  O   O10       1.0  0.7362384153008603  0.5508920219123754  0.4702732599288452  1.0000
  O   O11       1.0  0.7268694845911696  0.17023529688110278  0.3258684029273553  1.0000
  O   O12       1.0  0.6785576426048721  0.0534778000967151  0.21150982398520304  1.0000
  O   O13       1.0  0.40335957185170895  0.24676370923316435  0.2708425769978646  1.0000
  O   O14       1.0  0.7012888004610572  0.7747850921347851  0.224167729818447  1.0000
  O   O15       1.0  0.9180961899914873  0.8723926725975136  0.29690529596102516  1.0000
  O   O16       1.0  0.780019575970989  0.6956385303183199  0.3466358183028148  1.0000
