data_image0
_chemical_formula_structural       Cu2H22C18N12Cl2
_chemical_formula_sum              "Cu2 H22 C18 N12 Cl2"
_cell_length_a       6.0779480831442125
_cell_length_b       7.120439234101434
_cell_length_c       13.649560421248868
_cell_angle_alpha    90.00033936763691
_cell_angle_beta     90.00060303235028
_cell_angle_gamma    89.99949085642848

_space_group_name_H-M_alt    "P 1"
_space_group_IT_number       1

loop_
  _space_group_symop_operation_xyz
  'x, y, z'

loop_
  _atom_site_type_symbol
  _atom_site_label
  _atom_site_symmetry_multiplicity
  _atom_site_fract_x
  _atom_site_fract_y
  _atom_site_fract_z
  _atom_site_occupancy
  Cu  Cu1       1.0  0.3264846749091531  0.9169071168805089  0.49999557161911673  1.0000
  Cu  Cu2       1.0  0.6735244786325794  0.4168888618749876  5.152668521200002e-06  1.0000
  H   H1        1.0  0.5045642244349651  0.7791305722926938  0.1365379178227357  1.0000
  H   H2        1.0  0.49542497422528686  0.27913184244201267  0.36346091582481693  1.0000
  H   H3        1.0  0.49543478207205977  0.2791319895588273  0.6365495637626639  1.0000
  H   H4        1.0  0.5045629415213283  0.7791304890522426  0.8634507043101324  1.0000
  H   H5        1.0  0.9931348190314394  0.9813167209813259  0.31901191799514095  1.0000
  H   H6        1.0  0.006865437610571199  0.4813140066217018  0.1809926682771135  1.0000
  H   H7        1.0  0.0068713310201502995  0.4813063963336858  0.8190242041959978  1.0000
  H   H8        1.0  0.993127578856786  0.9813089466854878  0.680979618581546  1.0000
  H   H9        1.0  0.10208232740228597  0.8888443841833009  0.12812515133946792  1.0000
  H   H10       1.0  0.8979040840948969  0.3888511229628834  0.3718828125351125  1.0000
  H   H11       1.0  0.8979054665799069  0.38884555682391675  0.6281350208147034  1.0000
  H   H12       1.0  0.10209440561418859  0.8888500141257937  0.8718648533804584  1.0000
  H   H13       1.0  0.6430621138770646  0.7719629589024423  0.31414834665866215  1.0000
  H   H14       1.0  0.35693538588067497  0.27194781304104515  0.18584606910757637  1.0000
  H   H15       1.0  0.3569312926952434  0.2719499784471537  0.8141622738345831  1.0000
  H   H16       1.0  0.6430665056528182  0.7719482177591815  0.6858379720640644  1.0000
  H   H17       1.0  0.058270979161740385  0.5665505344307037  0.4999951347511243  1.0000
  H   H18       1.0  0.9417286587226809  0.06651760493254949  1.1204578239999952e-07  1.0000
  H   H19       1.0  0.5971913581180031  0.5638941595165577  0.4999971264026828  1.0000
  H   H20       1.0  0.4028184775917082  0.0638639780204358  0.9999966161288757  1.0000
  H   H21       1.0  0.8252196169595294  0.1238488117106158  0.4999918531841133  1.0000
  H   H22       1.0  0.17478929629462667  0.6238189995267404  5.0357921566e-06  1.0000
  C   C1        1.0  0.14422657072748987  0.9235592943200288  0.28994589952695554  1.0000
  C   C2        1.0  0.8557759323795011  0.4235546831167625  0.2100585084258952  1.0000
  C   C3        1.0  0.8557679765454651  0.42355236022357456  0.7899563040734849  1.0000
  C   C4        1.0  0.1442265985582054  0.9235546590882961  0.7100451425092517  1.0000
  C   C5        1.0  0.196967164878636  0.8788253590925877  0.19495241876131794  1.0000
  C   C6        1.0  0.8030177055427784  0.3788264406929401  0.30504745530034694  1.0000
  C   C7        1.0  0.803040410879909  0.37881742067656193  0.6949655066060886  1.0000
  C   C8        1.0  0.1969546298046438  0.8788288253522725  0.8050365345003315  1.0000
  C   C9        1.0  0.4813277406953276  0.8185546687985694  0.2911766037745664  1.0000
  C   C10       1.0  0.5186807911486538  0.31854698336874077  0.20882015375045884  1.0000
  C   C11       1.0  0.5186843815424496  0.31854748328711946  0.7911890912801668  1.0000
  C   C12       1.0  0.4813178676449537  0.8185500195978292  0.708810565877542  1.0000
  C   C13       1.0  0.9403740001841282  0.681444594674062  0.49999298385201035  1.0000
  C   C14       1.0  0.05963760407526309  0.18142537935536754  4.1984797860000014e-07  1.0000
  C   C15       1.0  0.7132694016739122  0.6801604230832793  0.4999961127008207  1.0000
  C   C16       1.0  0.28673069903957327  0.1801240363541083  9.501025460000001e-07  1.0000
  C   C17       1.0  0.8252250765400291  0.9716644873501608  0.4999960924780496  1.0000
  C   C18       1.0  0.1747818617367543  0.47165142050090486  4.0682473781e-06  1.0000
  N   N1        1.0  0.3226725675433001  0.8847902800993668  0.3495159418479831  1.0000
  N   N2        1.0  0.6773336296495314  0.38478494136332136  0.15048614854298142  1.0000
  N   N3        1.0  0.677328726827298  0.38478048654546637  0.8495247772939438  1.0000
  N   N4        1.0  0.3226547347578901  0.8847863724490567  0.6504758169386877  1.0000
  N   N5        1.0  0.40998350558046326  0.8127387536495476  0.19730893584434744  1.0000
  N   N6        1.0  0.5900135697052774  0.31273861566093325  0.3026870710849466  1.0000
  N   N7        1.0  0.5900017795416587  0.3127380489946035  0.6973173619860092  1.0000
  N   N8        1.0  0.40998901312021013  0.8127421931055211  0.8026874055814163  1.0000
  N   N9        1.0  0.008583247063810999  0.8654985729008191  0.49999474715799164  1.0000
  N   N10       1.0  0.9914132792919685  0.3654652664834543  5.0857324396e-06  1.0000
  N   N11       1.0  0.6427561605646445  0.8641156344897001  0.49999696402938554  1.0000
  N   N12       1.0  0.35726176899747497  0.3640744995067209  6.667564350000003e-07  1.0000
  Cl  Cl1       1.0  0.314209180981983  0.2787864169270549  0.5000070123861705  1.0000
  Cl  Cl2       1.0  0.6857951275140692  0.7787668357691829  0.9999969177288508  1.0000
