data_image0
_chemical_formula_structural       La4H16C24O32
_chemical_formula_sum              "La4 H16 C24 O32"
_cell_length_a       7.036668394861754
_cell_length_b       7.144568924093481
_cell_length_c       17.021701547000152
_cell_angle_alpha    90.0000061574587
_cell_angle_beta     90.00001292289407
_cell_angle_gamma    100.64402402961764

_space_group_name_H-M_alt    "P 1"
_space_group_IT_number       1

loop_
  _space_group_symop_operation_xyz
  'x, y, z'

loop_
  _atom_site_type_symbol
  _atom_site_label
  _atom_site_symmetry_multiplicity
  _atom_site_fract_x
  _atom_site_fract_y
  _atom_site_fract_z
  _atom_site_occupancy
  La  La1       1.0  0.5084017150858032  0.2565225718291657  0.41905566779252024  1.0000
  La  La2       1.0  0.991601510460171  0.7434740371633238  0.9190562434702942  1.0000
  La  La3       1.0  0.4916005574570691  0.7434774927017428  0.5809425483083785  1.0000
  La  La4       1.0  0.0083959489019492  0.25652321212672297  0.08094608502764092  1.0000
  H   H1        1.0  0.9489252959355597  0.42069901495036527  0.41183843512603613  1.0000
  H   H2        1.0  0.5510756433502665  0.5793004615802532  0.911838374021848  1.0000
  H   H3        1.0  0.05107611370586801  0.5793039088382484  0.5881615434308787  1.0000
  H   H4        1.0  0.4489218160109658  0.42069678770923946  0.08816101704942272  1.0000
  H   H5        1.0  0.8483806137880451  0.5941673273201359  0.3799608923870324  1.0000
  H   H6        1.0  0.6516160492787364  0.40583217019481305  0.879960245977472  1.0000
  H   H7        1.0  0.1516174016927323  0.4058327702231209  0.6200402611403251  1.0000
  H   H8        1.0  0.3483802691211864  0.5941665142254422  0.12003973257910876  1.0000
  H   H9        1.0  0.7745218079519347  0.0101537444827287  0.3199774488283183  1.0000
  H   H10       1.0  0.7254762380907066  0.9898457193967328  0.8199774221004434  1.0000
  H   H11       1.0  0.22547676364768415  0.9898492013138591  0.6800231172138  1.0000
  H   H12       1.0  0.274520080309216  0.010152965023522099  0.18002255645613735  1.0000
  H   H13       1.0  0.8111160288114547  0.2210582554408731  0.28456736416176653  1.0000
  H   H14       1.0  0.6888862530154968  0.7789411620666086  0.7845673248558003  1.0000
  H   H15       1.0  0.18888482471095366  0.7789418200943032  0.7154326143950629  1.0000
  H   H16       1.0  0.3111160195279083  0.22105890246462676  0.21543265370109316  1.0000
  C   C1        1.0  0.59686294159404  0.3349753672005064  0.6295111320131002  1.0000
  C   C2        1.0  0.9031375499760514  0.665022578681814  0.12951178671952596  1.0000
  C   C3        1.0  0.40313933094900983  0.6650246973305156  0.3704876715731303  1.0000
  C   C4        1.0  0.09685707134320151  0.3349746926155461  0.8704876043516097  1.0000
  C   C5        1.0  0.6499344895180174  0.1718991081190566  0.6706433291490514  1.0000
  C   C6        1.0  0.850068001909463  0.8281016905319941  0.17064457326551266  1.0000
  C   C7        1.0  0.3500663640042134  0.8281009674160057  0.3293560619224466  1.0000
  C   C8        1.0  0.14993001357113664  0.17189840701115597  0.8293559927765133  1.0000
  C   C9        1.0  0.6475818787234147  0.2745555402268067  0.7463613783754328  1.0000
  C   C10       1.0  0.8524175421029769  0.7254438848736058  0.24636203081731628  1.0000
  C   C11       1.0  0.35241443967615993  0.7254431441932282  0.25363742521048493  1.0000
  C   C12       1.0  0.1475799172584331  0.2745533644160005  0.7536379477392858  1.0000
  C   C13       1.0  0.6009419013548368  0.439695675991814  0.7029444511325027  1.0000
  C   C14       1.0  0.8990552401818874  0.5602994713512216  0.20294510094424115  1.0000
  C   C15       1.0  0.39905839604821136  0.5603015512896972  0.29705435245357154  1.0000
  C   C16       1.0  0.10094221917952242  0.4396977779383775  0.7970548776123609  1.0000
  C   C17       1.0  0.8607366634887937  0.017539435686820995  0.49062843016727703  1.0000
  C   C18       1.0  0.6392597880216542  0.9824586794565703  0.9906301573116071  1.0000
  C   C19       1.0  0.13926530227164588  0.9824663363552232  0.5093715483897229  1.0000
  C   C20       1.0  0.360733721060619  0.017532895334582597  0.009372758671347004  1.0000
  C   C21       1.0  0.9485479988322326  0.8769855706846171  0.532798150052763  1.0000
  C   C22       1.0  0.5514529907406853  0.12301518696188649  0.03280109767331401  1.0000
  C   C23       1.0  0.051455107889339005  0.12301876622655777  0.46720065353359547  1.0000
  C   C24       1.0  0.44854419056209593  0.8769806382015518  0.96720181830991  1.0000
  O   O1        1.0  0.5505770847222776  0.3828779982064672  0.5608640571592505  1.0000
  O   O2        1.0  0.9494247558935244  0.6171270424087678  0.06086353927300081  1.0000
  O   O3        1.0  0.4494296942199796  0.6171305890771066  0.43913533391271653  1.0000
  O   O4        1.0  0.05057440054838478  0.3828716200036195  0.9391364392837149  1.0000
  O   O5        1.0  0.6782800661748212  0.008682253822598797  0.6533083972803057  1.0000
  O   O6        1.0  0.8217255309374066  0.991319940406974  0.15331023318353945  1.0000
  O   O7        1.0  0.32172334733042607  0.991316375578215  0.34669275624727913  1.0000
  O   O8        1.0  0.17827843868720095  0.008681537247497298  0.8466920953148007  1.0000
  O   O9        1.0  0.6662245892266724  0.22779578114566584  0.8167391837194276  1.0000
  O   O10       1.0  0.83377401098943  0.7722065297656755  0.31674042387010104  1.0000
  O   O11       1.0  0.3337714511133925  0.7722014791476467  0.18325961986644054  1.0000
  O   O12       1.0  0.16622826155415285  0.22779353476568076  0.6832601421721238  1.0000
  O   O13       1.0  0.5631365103630371  0.6037033068442382  0.7161170489811115  1.0000
  O   O14       1.0  0.936868290313356  0.3962946387025779  0.21611769536499292  1.0000
  O   O15       1.0  0.43686690314132187  0.39629532255602107  0.2838811671198159  1.0000
  O   O16       1.0  0.06313540125015747  0.6037054148241763  0.783879345765307  1.0000
  O   O17       1.0  0.8312509455007344  0.4785573056202068  0.4143975168390812  1.0000
  O   O18       1.0  0.6687502733820594  0.5214435960024488  0.9143962895584752  1.0000
  O   O19       1.0  0.1687501860817164  0.5214441940420186  0.5856042241737927  1.0000
  O   O20       1.0  0.33124860500016956  0.4785536422831099  0.08560310151285933  1.0000
  O   O21       1.0  0.7355334542087564  0.1362071734837471  0.3237314809469397  1.0000
  O   O22       1.0  0.7644674321317525  0.8637922698042357  0.8237314525365208  1.0000
  O   O23       1.0  0.2644690963945139  0.863794315174431  0.6762696725806665  1.0000
  O   O24       1.0  0.23552577016738502  0.13620501249760508  0.17627087596121532  1.0000
  O   O25       1.0  0.6829354129725689  0.024249656568677797  0.4832907299799631  1.0000
  O   O26       1.0  0.8170618970299516  0.9757455965485207  0.9832907114268683  1.0000
  O   O27       1.0  0.3170651337665262  0.9757561264770798  0.5167080736063099  1.0000
  O   O28       1.0  0.1829347281525813  0.024247380360712605  0.016708092158943103  1.0000
  O   O29       1.0  0.8719406568709615  0.7306867551159613  0.5706856598391569  1.0000
  O   O30       1.0  0.6280617744903622  0.26931400582152065  0.0706886210961315  1.0000
  O   O31       1.0  0.12805902696597826  0.2693218871870542  0.4293125562617989  1.0000
  O   O32       1.0  0.3719408048365338  0.730680351199247  0.9293131199166569  1.0000
