data_image0
_chemical_formula_structural       Cu2H28C44N2O18
_chemical_formula_sum              "Cu2 H28 C44 N2 O18"
_cell_length_a       7.864681019749583
_cell_length_b       10.186651498993758
_cell_length_c       13.185797502067233
_cell_angle_alpha    73.11302756556847
_cell_angle_beta     80.07805635462408
_cell_angle_gamma    86.37280349123252

_space_group_name_H-M_alt    "P 1"
_space_group_IT_number       1

loop_
  _space_group_symop_operation_xyz
  'x, y, z'

loop_
  _atom_site_type_symbol
  _atom_site_label
  _atom_site_symmetry_multiplicity
  _atom_site_fract_x
  _atom_site_fract_y
  _atom_site_fract_z
  _atom_site_occupancy
  Cu  Cu1       1.0  0.26598372244563956  0.8469356366793265  0.06159889073600774  1.0000
  Cu  Cu2       1.0  0.7340160529398504  0.15306415957228836  0.938402885956279  1.0000
  H   H1        1.0  0.6225843602958036  0.96596486184157  0.2785631248719014  1.0000
  H   H2        1.0  0.3774166991222714  0.03403493802760241  0.7214377567324065  1.0000
  H   H3        1.0  0.010371186001343298  0.2985424883315276  0.6498866269693053  1.0000
  H   H4        1.0  0.989617203784981  0.7014479559884633  0.3501139415253931  1.0000
  H   H5        1.0  0.5169340587238054  0.49348026804251804  0.7982801864380492  1.0000
  H   H6        1.0  0.48306427670803503  0.5065246486594219  0.20172057213726186  1.0000
  H   H7        1.0  0.5771579148571887  0.8515881170194319  0.1464072929784379  1.0000
  H   H8        1.0  0.4228482013045891  0.14841373208204087  0.853587276315146  1.0000
  H   H9        1.0  0.8319652263840283  0.5610584571648687  0.4867918471660317  1.0000
  H   H10       1.0  0.16803084057489312  0.4389340893612967  0.5132066701554407  1.0000
  H   H11       1.0  0.4081978565001024  0.837388189196048  0.5355481755500477  1.0000
  H   H12       1.0  0.5918082858435343  0.16261368277481134  0.46444941940025325  1.0000
  H   H13       1.0  0.8559636478923737  0.7227224263785459  0.15033442065102073  1.0000
  H   H14       1.0  0.14404240851916228  0.2772814746370217  0.8496596859262623  1.0000
  H   H15       1.0  0.06395926767947908  0.5828939529350238  0.06685403640557298  1.0000
  H   H16       1.0  0.9360456139612338  0.4171068837438768  0.9331439285766764  1.0000
  H   H17       1.0  0.9328211673038141  0.4379704881110484  0.119595601890353  1.0000
  H   H18       1.0  0.0671786052294721  0.5620282535967931  0.8804026240891858  1.0000
  H   H19       1.0  0.4437337127704382  0.6828993761546372  0.9209630726638024  1.0000
  H   H20       1.0  0.5562596899524906  0.3170962352901938  0.07903578434496686  1.0000
  H   H21       1.0  0.7162619585799704  0.5462374607223666  0.9152397500976477  1.0000
  H   H22       1.0  0.2837340113670805  0.45376026132778685  0.08476366174649291  1.0000
  H   H23       1.0  0.13795776604192156  0.6894531596968037  0.5831254457123053  1.0000
  H   H24       1.0  0.8620404732190894  0.3105548291589315  0.41687386237436636  1.0000
  H   H25       1.0  0.7389232777418969  0.9723698032906328  0.6611353376838737  1.0000
  H   H26       1.0  0.2610764939503342  0.0276310417874086  0.3388692333069727  1.0000
  H   H27       1.0  0.8709239575446831  0.8237631966220107  0.545700289011215  1.0000
  H   H28       1.0  0.12907061541476142  0.17623863135611373  0.4543038489024624  1.0000
  C   C1        1.0  0.8613197210660103  0.017170608176442705  0.8248013154178438  1.0000
  C   C2        1.0  0.13868385606466657  0.982832311103067  0.17520162042114154  1.0000
  C   C3        1.0  0.099389135794766  0.8605340253881976  0.7748808981864883  1.0000
  C   C4        1.0  0.9006143750402059  0.1394709400880529  0.22512081852201504  1.0000
  C   C5        1.0  0.2024057283620451  0.8750380807938356  0.8574340860212075  1.0000
  C   C6        1.0  0.7975926733655002  0.1249647897113633  0.14256789168458542  1.0000
  C   C7        1.0  0.6856235615540883  0.5144633625446459  0.6465957874827737  1.0000
  C   C8        1.0  0.3143711084172338  0.48553328990949046  0.35340345590823563  1.0000
  C   C9        1.0  0.5450826358526443  0.5512880735292214  0.7138665362222197  1.0000
  C   C10       1.0  0.45491580598874043  0.44871272790984323  0.28613363495733773  1.0000
  C   C11       1.0  0.44181805429576576  0.664050171274731  0.6723751036595828  1.0000
  C   C12       1.0  0.5581841761998804  0.3359537417575353  0.3276247138383255  1.0000
  C   C13       1.0  0.6126384193005381  0.7809039311902667  0.09808247047332225  1.0000
  C   C14       1.0  0.38736256442415856  0.2190968546145342  0.9019128848735818  1.0000
  C   C15       1.0  0.9421445001277818  0.9300094930260131  0.756748785633782  1.0000
  C   C16       1.0  0.057857796663569216  0.0699923738095123  0.24325225099461534  1.0000
  C   C17       1.0  0.807533811844209  0.616494266252886  0.03707445473182247  1.0000
  C   C18       1.0  0.19246850173133373  0.3835065631908918  0.9629253004263632  1.0000
  C   C19       1.0  0.1664027097000655  0.7731021110676013  0.712658861396001  1.0000
  C   C20       1.0  0.8336019591215378  0.22690695613705003  0.28734027837774073  1.0000
  C   C21       1.0  0.7216446325169555  0.5895958641381894  0.5383551676945261  1.0000
  C   C22       1.0  0.27834878044469497  0.4103987041975614  0.4616416514298649  1.0000
  C   C23       1.0  0.6230796342767135  0.7068251442663611  0.4992049645641146  1.0000
  C   C24       1.0  0.37692265311696355  0.2931756623080446  0.500791764937361  1.0000
  C   C25       1.0  0.4821063973671613  0.7446278574438169  0.5661750306770797  1.0000
  C   C26       1.0  0.5178997813970698  0.2553729942873347  0.4338235520455526  1.0000
  C   C27       1.0  0.6774904641999909  0.7980554452934995  0.3881656381899816  1.0000
  C   C28       1.0  0.32251194923963317  0.20194126317006322  0.6118327731582838  1.0000
  C   C29       1.0  0.7675871050399438  0.7080323216247778  0.09956089332830226  1.0000
  C   C30       1.0  0.23241635997676724  0.29197260383006096  0.9004355284809478  1.0000
  C   C31       1.0  0.8064576645170335  0.40381624340363226  0.6942816579515991  1.0000
  C   C32       1.0  0.19353701854522146  0.5961804204851903  0.3057190982677724  1.0000
  C   C33       1.0  0.9655291546123055  0.5262383408101102  0.04818975064048199  1.0000
  C   C34       1.0  0.0344732187134724  0.47376043671958007  0.9518104672340114  1.0000
  C   C35       1.0  0.5383381876874934  0.6874602127667516  0.9710852511116314  1.0000
  C   C36       1.0  0.46166033068832496  0.31253749936648484  0.028914101314029498  1.0000
  C   C37       1.0  0.6911527254447732  0.6112928847384537  0.9689286266874504  1.0000
  C   C38       1.0  0.30884710314549585  0.38870485388172676  0.031072856306956016  1.0000
  C   C39       1.0  0.08472563795212551  0.7582776422793742  0.630713725635715  1.0000
  C   C40       1.0  0.9152752917267434  0.24172730452706753  0.3692882684203695  1.0000
  C   C41       1.0  0.8598381160562172  0.916508515864173  0.6741793908644667  1.0000
  C   C42       1.0  0.14015918088946924  0.08348819528118409  0.3258248700782147  1.0000
  C   C43       1.0  0.9330673164524584  0.8330339104414292  0.6107470767671828  1.0000
  C   C44       1.0  0.06692991419752299  0.1669648469006759  0.3892559650450167  1.0000
  N   N1        1.0  0.49717873973619214  0.768232499679776  0.03668480431033322  1.0000
  N   N2        1.0  0.5028197720941635  0.2317652067361209  0.9633137917011538  1.0000
  O   O1        1.0  0.15991051353879734  0.7987649372637549  0.9531805414239612  1.0000
  O   O2        1.0  0.8400892319715751  0.2012358849449072  0.046821003910167726  1.0000
  O   O3        1.0  0.33044972567961395  0.9537775596337282  0.827899201763799  1.0000
  O   O4        1.0  0.6695552353477369  0.046221242283117206  0.1721014951772943  1.0000
  O   O5        1.0  0.9429325660562357  0.0479146592839896  0.8906231895247317  1.0000
  O   O6        1.0  0.05706724205658281  0.9520851655543506  0.1093823692384462  1.0000
  O   O7        1.0  0.3091199076764752  0.6951402947997211  0.7449853464543282  1.0000
  O   O8        1.0  0.6908810453320485  0.3048636203323342  0.25501612254573297  1.0000
  O   O9        1.0  0.574237270967956  0.9036230704595664  0.35860467435386323  1.0000
  O   O10       1.0  0.4257652153128433  0.09637159752459472  0.6413957125390582  1.0000
  O   O11       1.0  0.7060646087816167  0.0634256335864336  0.8207162030131698  1.0000
  O   O12       1.0  0.29393774775997633  0.9365741813349902  0.1792852963315283  1.0000
  O   O13       1.0  0.8138372509637789  0.36670055909167587  0.7913352419739541  1.0000
  O   O14       1.0  0.18616247491019072  0.6333002459649463  0.20866403411763204  1.0000
  O   O15       1.0  0.8123789320503152  0.7771689435905528  0.3291788445519828  1.0000
  O   O16       1.0  0.18762085072169302  0.22282875500821575  0.6708173435431704  1.0000
  O   O17       1.0  0.9083348374934275  0.35550950595101233  0.6210097425972663  1.0000
  O   O18       1.0  0.09165611666481514  0.6444819944305209  0.3789918300200553  1.0000
