data_image0
_chemical_formula_structural       Zn4H28C42N12O10F12
_chemical_formula_sum              "Zn4 H28 C42 N12 O10 F12"
_cell_length_a       7.098643125092511
_cell_length_b       10.09212535256503
_cell_length_c       17.641497393136145
_cell_angle_alpha    73.3708098131912
_cell_angle_beta     88.37366698318408
_cell_angle_gamma    84.31095074818924

_space_group_name_H-M_alt    "P 1"
_space_group_IT_number       1

loop_
  _space_group_symop_operation_xyz
  'x, y, z'

loop_
  _atom_site_type_symbol
  _atom_site_label
  _atom_site_symmetry_multiplicity
  _atom_site_fract_x
  _atom_site_fract_y
  _atom_site_fract_z
  _atom_site_occupancy
  Zn  Zn1       1.0  0.1709909951052211  0.3354024658765555  0.9596101908260053  1.0000
  Zn  Zn2       1.0  0.6710825026976934  0.2952658995482551  0.040293316894889096  1.0000
  Zn  Zn3       1.0  0.28466787088584783  0.7430292806049648  0.16977266317703507  1.0000
  Zn  Zn4       1.0  0.7845365829023406  0.9127189728470171  0.8302694989566035  1.0000
  H   H1        1.0  0.0890572415264401  0.010226019173721608  0.0395433921762844  1.0000
  H   H2        1.0  0.5886256497657882  0.049965267758310276  0.9603488387487998  1.0000
  H   H3        1.0  0.426001845848596  0.6759062892533905  0.41400466782766193  1.0000
  H   H4        1.0  0.9259840832978413  0.089780654316968  0.5859978824545848  1.0000
  H   H5        1.0  0.5622298260841133  0.22532296503565882  0.7102615629397917  1.0000
  H   H6        1.0  0.062346722754760706  0.9360621383841377  0.2894340933525328  1.0000
  H   H7        1.0  0.12057340020731293  0.5538734438237114  0.4371962138894077  1.0000
  H   H8        1.0  0.6205451145222867  0.9910662530218558  0.5629055586856424  1.0000
  H   H9        1.0  0.6107296213481418  0.9666348665965145  0.15536219887840727  1.0000
  H   H10       1.0  0.1104001161499113  0.12197643726403146  0.8445783519767218  1.0000
  H   H11       1.0  0.7785069242455266  0.33397545952448154  0.6041612585955676  1.0000
  H   H12       1.0  0.27827640104910506  0.9382142962792204  0.3957178547265414  1.0000
  H   H13       1.0  0.814786041743254  0.6672168132585553  0.7103028965427214  1.0000
  H   H14       1.0  0.3149216167307642  0.37771491911545496  0.2898634978191836  1.0000
  H   H15       1.0  0.5877124588311275  0.561710975541992  0.8120948605870949  1.0000
  H   H16       1.0  0.0879643945177477  0.374386223920922  0.1879697761254704  1.0000
  H   H17       1.0  0.5816356702561122  0.6304354947463437  0.5437763289639079  1.0000
  H   H18       1.0  0.08154701681831257  0.17379314186529635  0.4562026206618555  1.0000
  H   H19       1.0  0.8912582953342112  0.7352203898951969  0.19218051036961722  1.0000
  H   H20       1.0  0.3911370461532045  0.9270693982998353  0.8078347447498898  1.0000
  H   H21       1.0  0.9621234012047779  0.8889426710206152  0.17360725570986799  1.0000
  H   H22       1.0  0.4619111555016673  0.062286776854712636  0.8263214665299756  1.0000
  H   H23       1.0  0.10897085564492667  0.6608250890011436  0.855191299431084  1.0000
  H   H24       1.0  0.6090594208498245  0.5161358832179416  0.1447432179708699  1.0000
  H   H25       1.0  0.9643789660619434  0.5978925614138504  0.3093823403240208  1.0000
  H   H26       1.0  0.4643260889250201  0.9072870688817077  0.6907237275905089  1.0000
  H   H27       1.0  0.5552595866491147  0.6559725167614444  0.9465797014395888  1.0000
  H   H28       1.0  0.05503491947791871  0.6024054076262003  0.053655255387596384  1.0000
  C   C1        1.0  0.22353912054688152  0.031307354163509216  0.0586888227349434  1.0000
  C   C2        1.0  0.7231627493718731  0.09008587830506132  0.9412274392997871  1.0000
  C   C3        1.0  0.8619010091930264  0.5871974876604186  0.5005633926987869  1.0000
  C   C4        1.0  0.3618456510893396  0.08751468998482903  0.4994798733070027  1.0000
  C   C5        1.0  0.4230351829141909  0.3259781296673766  0.8312841846663233  1.0000
  C   C6        1.0  0.9234525336163915  0.15772147154986277  0.16852208656143117  1.0000
  C   C7        1.0  0.8151530305683253  0.507953934302783  0.6493174273952746  1.0000
  C   C8        1.0  0.31512883257291685  0.1573653614240342  0.3507288278673784  1.0000
  C   C9        1.0  0.13548735272290455  0.4644320031645962  0.597052856450361  1.0000
  C   C10       1.0  0.6354011494608687  0.06104229328303043  0.4029817125151851  1.0000
  C   C11       1.0  0.5780666177907321  0.648271505809106  0.4197718417397809  1.0000
  C   C12       1.0  0.07806946949558116  0.06790360828783562  0.5802794986372817  1.0000
  C   C13       1.0  0.5625239137032877  0.38629664853312556  0.7689734232562131  1.0000
  C   C14       1.0  0.0628250675888893  0.15578071940868207  0.2308667647036913  1.0000
  C   C15       1.0  0.009615923108874784  0.7121470728721772  0.5821515978571341  1.0000
  C   C16       1.0  0.5099212017292489  0.29397965752979627  0.41792924842643225  1.0000
  C   C17       1.0  0.6190180104173566  0.3216680208686426  0.710448868210797  1.0000
  C   C18       1.0  0.11915277409507036  0.03253071518917497  0.2893630455436877  1.0000
  C   C19       1.0  0.9681989359958083  0.5797195921403925  0.4334884838337061  1.0000
  C   C20       1.0  0.4681508757927729  0.0131683033873173  0.5666052095407039  1.0000
  C   C21       1.0  0.48713764999108367  0.008617992023083337  0.1186069914272565  1.0000
  C   C22       1.0  0.9868108079871264  0.1272256795412406  0.881321806578967  1.0000
  C   C23       1.0  0.9524528066996398  0.5676073150611741  0.581795272544646  1.0000
  C   C24       1.0  0.45248515063227046  0.14916003043583018  0.4182583916520811  1.0000
  C   C25       1.0  0.7417821997684938  0.38286969822627287  0.6508253774895962  1.0000
  C   C26       1.0  0.2416994775639338  0.033894313868444235  0.3491031829855586  1.0000
  C   C27       1.0  0.7613501350634522  0.570773713047494  0.7088035560220973  1.0000
  C   C28       1.0  0.26146671248511666  0.27981640649105094  0.2912794707398376  1.0000
  C   C29       1.0  0.6341241785795191  0.5111600054580663  0.7671217140734825  1.0000
  C   C30       1.0  0.13428886118252586  0.2787491938064265  0.23289053493586923  1.0000
  C   C31       1.0  0.6661497740594909  0.6222665335683145  0.492636415050967  1.0000
  C   C32       1.0  0.1660646970881317  0.11457775349727248  0.5073785243658193  1.0000
  C   C33       1.0  0.6837635800064846  0.6410233618517932  0.3527049631894101  1.0000
  C   C34       1.0  0.18371002099272005  0.9936862202704899  0.6473822673991235  1.0000
  C   C35       1.0  0.9812708868206813  0.6262705365292549  0.8868942421508734  1.0000
  C   C36       1.0  0.48127398313179265  0.5132965394416047  0.11309728141822012  1.0000
  C   C37       1.0  0.8796567825439965  0.6058129414280843  0.3605439506813539  1.0000
  C   C38       1.0  0.3796135776893906  0.9663114018464326  0.6395504526019734  1.0000
  C   C39       1.0  0.7002220596408791  0.6237978280258859  0.9339688513737769  1.0000
  C   C40       1.0  0.20008298733479535  0.5577330946640444  0.0661658412762449  1.0000
  C   C41       1.0  0.5877919780874379  0.669807208276566  0.2744463863604523  1.0000
  C   C42       1.0  0.08767179793184708  0.9441846293228546  0.7256135791508029  1.0000
  N   N1        1.0  0.29262945073883634  0.15442431310243873  0.03564632261139881  1.0000
  N   N2        1.0  0.7923759674225223  0.19011768520891084  0.9642769025736868  1.0000
  N   N3        1.0  0.3405570661438163  0.9366394085858897  0.11082508747526981  1.0000
  N   N4        1.0  0.840148830230774  0.047539191203981174  0.8890955928352184  1.0000
  N   N5        1.0  0.9630222676725638  0.4979994393053177  0.9320795926307  1.0000
  N   N6        1.0  0.46298557763758913  0.4302293623307278  0.06790781993228019  1.0000
  N   N7        1.0  0.7831618219715395  0.49528212061785165  0.9623379749352167  1.0000
  N   N8        1.0  0.2830420883916389  0.45768260241647596  0.0377298391915488  1.0000
  N   N9        1.0  0.8188790963994353  0.7096942922920279  0.886364688178645  1.0000
  N   N10       1.0  0.3188327996387201  0.59608489482261  0.1137074127088269  1.0000
  N   N11       1.0  0.4633152026468538  0.13967925542355178  0.07386146112349222  1.0000
  N   N12       1.0  0.9631012281221061  0.2134908401605246  0.9260796683353192  1.0000
  O   O1        1.0  0.375019221374245  0.2054462874655061  0.8396146204439603  1.0000
  O   O2        1.0  0.875429588920497  0.04546024862624172  0.1602642022952949  1.0000
  O   O3        1.0  0.3575054700175002  0.4038223189891712  0.874364113325491  1.0000
  O   O4        1.0  0.8579021984268637  0.27861363609342504  0.12539742461012793  1.0000
  O   O5        1.0  0.0037813988027792776  0.7900800211518799  0.17388173894154588  1.0000
  O   O6        1.0  0.5036569042146013  0.9636785752416799  0.8260901121535084  1.0000
  O   O7        1.0  0.404591776062709  0.6834027433307668  0.2751520178290008  1.0000
  O   O8        1.0  0.9044768765194463  0.9585545574182888  0.7249046153024138  1.0000
  O   O9        1.0  0.6831268320201147  0.680212108507078  0.21154115991734557  1.0000
  O   O10       1.0  0.18302105631607193  0.8915785937192809  0.7885010054431092  1.0000
  F   F1        1.0  0.11552782146492294  0.7704553196723866  0.5178979138718773  1.0000
  F   F2        1.0  0.6162118345638774  0.2878440483895376  0.4820998532269201  1.0000
  F   F3        1.0  0.28986062505752125  0.5190337321668821  0.5567787685232588  1.0000
  F   F4        1.0  0.7900036102541181  0.07543162568677537  0.44310315328898753  1.0000
  F   F5        1.0  0.8537753077694891  0.8029511161765724  0.5805389867239015  1.0000
  F   F6        1.0  0.3542357136665543  0.38320851585528004  0.4197259064646985  1.0000
  F   F7        1.0  0.11124749731916239  0.3485960632040274  0.5754487767685248  1.0000
  F   F8        1.0  0.6109520062492634  0.9236316595715696  0.42477781306732965  1.0000
  F   F9        1.0  0.1825935773679603  0.42256846880439286  0.6750261472735275  1.0000
  F   F10       1.0  0.6822630862056442  0.09687243944515705  0.3249712928058912  1.0000
  F   F11       1.0  0.1128937180654219  0.7052333886228864  0.6474325221542117  1.0000
  F   F12       1.0  0.6129503128525684  0.3524548310594043  0.35257474840040703  1.0000
