data_image0
_chemical_formula_structural       Zr6H52C48N24O32
_chemical_formula_sum              "Zr6 H52 C48 N24 O32"
_cell_length_a       14.87508408076136
_cell_length_b       14.875104301692343
_cell_length_c       14.875079691618561
_cell_angle_alpha    60.00002996987891
_cell_angle_beta     90.00002856621535
_cell_angle_gamma    120.00001360170812

_space_group_name_H-M_alt    "P 1"
_space_group_IT_number       1

loop_
  _space_group_symop_operation_xyz
  'x, y, z'

loop_
  _atom_site_type_symbol
  _atom_site_label
  _atom_site_symmetry_multiplicity
  _atom_site_fract_x
  _atom_site_fract_y
  _atom_site_fract_z
  _atom_site_occupancy
  Zr  Zr1       1.0  0.11818549596383585  2.9627382716207397e-06  0.1181863709958577  1.0000
  Zr  Zr2       1.0  0.8818140557520168  4.421012064734129e-06  0.8818089441554876  1.0000
  Zr  Zr3       1.0  0.8818123877687326  0.7636282102491233  0.11818403451479037  1.0000
  Zr  Zr4       1.0  0.11818579949309811  0.23637195675248523  0.8818116286086594  1.0000
  Zr  Zr5       1.0  0.11818996642318778  4.74583562462664e-06  0.8818116132871694  1.0000
  Zr  Zr6       1.0  0.8818103529747318  0.9999994547408945  0.11818595130186076  1.0000
  H   H1        1.0  0.09339966461375587  0.8132040258887373  0.09339722689169598  1.0000
  H   H2        1.0  0.0933989885409972  0.18679960579000007  0.7198013016204214  1.0000
  H   H3        1.0  0.7198013106211079  0.8132025357068429  0.09339824670559689  1.0000
  H   H4        1.0  0.09339882805363689  0.18679888361089783  0.09339861141489078  1.0000
  H   H5        1.0  0.6718489908048467  0.03947746423119721  0.8144149081374792  1.0000
  H   H6        1.0  0.5838533079678784  0.06867545635605399  0.7542353078503795  1.0000
  H   H7        1.0  0.3676262749759545  0.03947789815934746  0.14610621095172863  1.0000
  H   H8        1.0  0.48482114156562517  0.0686761062143048  0.17708877259617145  1.0000
  H   H9        1.0  0.3298370944988846  0.9699141895185334  0.8523909763170181  1.0000
  H   H10       1.0  0.4118882956017484  0.9325356114812989  0.8244496390528582  1.0000
  H   H11       1.0  0.6400735815562013  0.9699104730054626  0.17769575518240527  1.0000
  H   H12       1.0  0.5206432658690969  0.932532637567682  0.24301537050336453  1.0000
  H   H13       1.0  0.8144170672777589  0.9605271132202375  0.6718462602616312  1.0000
  H   H14       1.0  0.7542363216060364  0.931326931758214  0.5838515776647596  1.0000
  H   H15       1.0  0.14610886266284237  0.9605265978132351  0.367623831575713  1.0000
  H   H16       1.0  0.17709101528517826  0.9313312513525461  0.48481832344068454  1.0000
  H   H17       1.0  0.8523923243323779  0.030089396495014766  0.3298354053016582  1.0000
  H   H18       1.0  0.824451467085737  0.06746779204787852  0.4118863341431408  1.0000
  H   H19       1.0  0.17769609697850788  0.03009366987620136  0.6400711724783577  1.0000
  H   H20       1.0  0.24301721643826818  0.06747303232642564  0.5206408179540247  1.0000
  H   H21       1.0  0.6718485389273499  0.8179582965625799  0.36762551812226696  1.0000
  H   H22       1.0  0.5838517854012865  0.7609428207304134  0.4848206702381788  1.0000
  H   H23       1.0  0.3676269339627894  0.18204442635654774  0.6718477385362576  1.0000
  H   H24       1.0  0.484822135951525  0.23906047598237012  0.5838504697029024  1.0000
  H   H25       1.0  0.32983601393176093  0.5075323937420321  0.6400727294748805  1.0000
  H   H26       1.0  0.41188643590017177  0.6549034716551035  0.520643323995145  1.0000
  H   H27       1.0  0.6400745163125591  0.4924705637877621  0.32983342795169796  1.0000
  H   H28       1.0  0.5206450604432434  0.3450989396679701  0.41188528543681713  1.0000
  H   H29       1.0  0.14610705923848125  0.8179573873831953  0.8144142789565335  1.0000
  H   H30       1.0  0.1770896401080577  0.7609427950455298  0.7542350657350383  1.0000
  H   H31       1.0  0.8144161714320006  0.18204425727317627  0.14610683972744454  1.0000
  H   H32       1.0  0.7542364866294804  0.2390596203426298  0.17708816967034832  1.0000
  H   H33       1.0  0.17769469949431743  0.5075328258536871  0.8523919326799784  1.0000
  H   H34       1.0  0.24301565170230094  0.6549030642639695  0.8244512838835831  1.0000
  H   H35       1.0  0.8523926046584335  0.4924699287269048  0.17769312081006916  1.0000
  H   H36       1.0  0.8244520308789021  0.34509956425380733  0.24301333439891698  1.0000
  H   H37       1.0  0.14610755884353208  0.5137335274560186  0.6718477438062465  1.0000
  H   H38       1.0  0.17709008424748157  0.661909978879855  0.583853410960927  1.0000
  H   H39       1.0  0.8144161017344018  0.48626929855699785  0.36762380218818436  1.0000
  H   H40       1.0  0.7542362068281747  0.3380928249083155  0.484818202214491  1.0000
  H   H41       1.0  0.1776966849567923  0.8177721306157505  0.32983536075722936  1.0000
  H   H42       1.0  0.2430155946095311  0.7636607059954841  0.4118869807306068  1.0000
  H   H43       1.0  0.8523920316285468  0.18223209286090747  0.6400724532336711  1.0000
  H   H44       1.0  0.8244505427764179  0.23634220140107937  0.5206420568946513  1.0000
  H   H45       1.0  0.6400743186312708  0.81777179141514  0.8523897023475584  1.0000
  H   H46       1.0  0.520644554517652  0.763661507619311  0.8244480267740568  1.0000
  H   H47       1.0  0.32983653751409037  0.18223305853376098  0.1776939730483207  1.0000
  H   H48       1.0  0.4118875362980887  0.23634398614922952  0.24301375271887343  1.0000
  H   H49       1.0  0.3676260338637715  0.5137342880920881  0.8144133940536592  1.0000
  H   H50       1.0  0.4848204537179156  0.6619105694621011  0.7542327773474469  1.0000
  H   H51       1.0  0.6718488122202261  0.4862692702680035  0.1461062708705185  1.0000
  H   H52       1.0  0.5838526310333735  0.33809301111794093  0.17708864029238214  1.0000
  C   C1        1.0  0.30729457731380433  0.005559172135860888  0.9983907762989973  1.0000
  C   C2        1.0  0.9960510978681894  0.9944472261340135  0.6982589239735972  1.0000
  C   C3        1.0  0.6982607410150624  0.005556649684144904  0.9960497389619576  1.0000
  C   C4        1.0  0.998392789802345  0.9944453420475695  0.30729266185556975  1.0000
  C   C5        1.0  0.9960514724018453  0.694313931347807  0.30729446459779547  1.0000
  C   C6        1.0  0.3072943987076754  0.30568924620229865  0.9960488134934167  1.0000
  C   C7        1.0  0.9983933027925003  0.3056882869983821  0.6982592930197102  1.0000
  C   C8        1.0  0.6982616550866253  0.694315580921568  0.9983905960482177  1.0000
  C   C9        1.0  0.9983924834547154  0.6966566880029601  0.9960484155596988  1.0000
  C   C10       1.0  0.6982601283015555  0.6966564865857163  0.3072924652522957  1.0000
  C   C11       1.0  0.9960505338167491  0.3033461756252859  0.9983934772228127  1.0000
  C   C12       1.0  0.3072940436310532  0.30334635073445776  0.6982584153139797  1.0000
  C   C13       1.0  0.5987464670181667  0.004712414672056405  0.9969521070932501  1.0000
  C   C14       1.0  0.4059665025193767  0.004715352590274241  0.9983341145767427  1.0000
  C   C15       1.0  0.5509490763601264  0.008226572404680488  0.9130211173493947  1.0000
  C   C16       1.0  0.45727295582192795  0.008227074414548936  0.07875040894236215  1.0000
  C   C17       1.0  0.4516988889130002  0.9993993761526951  0.918155819686788  1.0000
  C   C18       1.0  0.5476968806761917  0.9993962721542997  0.08244594785558224  1.0000
  C   C19       1.0  0.9969522894640691  0.9952931382472414  0.5987417672473683  1.0000
  C   C20       1.0  0.9983366360579851  0.9952908458079148  0.4059634399160783  1.0000
  C   C21       1.0  0.9130237520627633  0.9917800970213906  0.5509466242904747  1.0000
  C   C22       1.0  0.07875418229486555  0.9917820522296169  0.45726891141837456  1.0000
  C   C23       1.0  0.9181581073138433  0.0006076106795944748  0.45169479385902633  1.0000
  C   C24       1.0  0.08244858179018176  0.0006105202822296385  0.5476940588294782  1.0000
  C   C25       1.0  0.5987458680633321  0.5970847611541356  0.4059621559428734  1.0000
  C   C26       1.0  0.40596441547288736  0.40292009580898747  0.5987418656075718  1.0000
  C   C27       1.0  0.5509504690865226  0.6297056366422281  0.45727090488156813  1.0000
  C   C28       1.0  0.45727259149040106  0.37029920847214004  0.5509468573211151  1.0000
  C   C29       1.0  0.4516944196007272  0.5341433080447897  0.5476972248500118  1.0000
  C   C30       1.0  0.5476956808524064  0.46585618873275797  0.4516957751421344  1.0000
  C   C31       1.0  0.9983357484163308  0.5970843625036864  0.9969499548317344  1.0000
  C   C32       1.0  0.9969527802458413  0.40291984280503373  0.9983351571832699  1.0000
  C   C33       1.0  0.07875193967674933  0.6297046390285245  0.9130212543047093  1.0000
  C   C34       1.0  0.9130230310464286  0.3702982447598442  0.07875132524538485  1.0000
  C   C35       1.0  0.08244677968490792  0.5341436968047474  0.9181570683896182  1.0000
  C   C36       1.0  0.9181571175677731  0.4658557958891194  0.08244497921147348  1.0000
  C   C37       1.0  0.9983362074855647  0.4043035130858852  0.5987426744348313  1.0000
  C   C38       1.0  0.9969526159937843  0.5957013949653811  0.40596300106204103  1.0000
  C   C39       1.0  0.07875299718507019  0.5360274709086569  0.5509478770570125  1.0000
  C   C40       1.0  0.9130236190529786  0.46397672341515755  0.4572707040569953  1.0000
  C   C41       1.0  0.08244819644159643  0.6301459202999309  0.45169708299244593  1.0000
  C   C42       1.0  0.9181588834008071  0.36985828073555654  0.547695065503987  1.0000
  C   C43       1.0  0.5987456747976198  0.5957013629077819  0.9983331015878107  1.0000
  C   C44       1.0  0.4059659369128568  0.4043034635762409  0.9969494057559062  1.0000
  C   C45       1.0  0.5476981860709458  0.630147710078809  0.918153793446777  1.0000
  C   C46       1.0  0.45169909423080407  0.36985985136098504  0.0824447936278574  1.0000
  C   C47       1.0  0.4572735948436703  0.53602690061539  0.9130196871861002  1.0000
  C   C48       1.0  0.5509505908379565  0.4639779784900639  0.07875064736639098  1.0000
  N   N1        1.0  0.5934086536201806  0.014518414472661396  0.8247473225541242  1.0000
  N   N2        1.0  0.4211081613233675  0.01451732274421852  0.16073213768355293  1.0000
  N   N3        1.0  0.40694873640891416  0.9910332801195525  0.8377939998229207  1.0000
  N   N4        1.0  0.5840804909778184  0.9910297207191616  0.17117292862438652  1.0000
  N   N5        1.0  0.8247489797475679  0.9854850481434384  0.5934065158733617  1.0000
  N   N6        1.0  0.16073587639428388  0.9854889603290501  0.4211040871874658  1.0000
  N   N7        1.0  0.8377956725775279  0.008970767330076523  0.4069459782307092  1.0000
  N   N8        1.0  0.17117495122885634  0.008975305259753055  0.5840769597153184  1.0000
  N   N9        1.0  0.5934074832804584  0.7541436658411556  0.42110724704555486  1.0000
  N   N10       1.0  0.4211095110894973  0.24585981351506794  0.5934067672922936  1.0000
  N   N11       1.0  0.40694806734347827  0.5781221039896565  0.5840800386806109  1.0000
  N   N12       1.0  0.5840816409090834  0.4218807823160232  0.406945374208739  1.0000
  N   N13       1.0  0.1607335003965319  0.7541433965802682  0.8247475563493154  1.0000
  N   N14       1.0  0.8247490779613075  0.245859508429092  0.1607326077581064  1.0000
  N   N15       1.0  0.17117207475187957  0.5781212152209532  0.8377968495463933  1.0000
  N   N16       1.0  0.8377951006638897  0.42187959378804873  0.17117191600158307  1.0000
  N   N17       1.0  0.16073455617628699  0.5818420407250287  0.5934067740492566  1.0000
  N   N18       1.0  0.8247498732418136  0.4181614765426429  0.42110601253651225  1.0000
  N   N19       1.0  0.1711745160461149  0.7552568426948625  0.4069479487890674  1.0000
  N   N20       1.0  0.8377965806863729  0.2447487092356511  0.5840788358210675  1.0000
  N   N21       1.0  0.5840811655415619  0.7552560853663762  0.837792833850969  1.0000
  N   N22       1.0  0.40694865498638694  0.24474878065412042  0.17117187092964764  1.0000
  N   N23       1.0  0.421109428155262  0.5818439116809486  0.8247456160290341  1.0000
  N   N24       1.0  0.5934084857761803  0.4181623167384885  0.16073233295030318  1.0000
  O   O1        1.0  0.2647567752386806  0.00503946060622697  0.0744797449149743  1.0000
  O   O2        1.0  0.9204819589729712  0.9949642086750642  0.740278677925204  1.0000
  O   O3        1.0  0.740281210187334  0.005039108020490235  0.920481864513093  1.0000
  O   O4        1.0  0.07447962832736006  0.9949622625338107  0.2647552356212442  1.0000
  O   O5        1.0  0.9204817215035914  0.6607661473039028  0.26475719941065995  1.0000
  O   O6        1.0  0.2647574238888736  0.3392367562943902  0.9204795920727237  1.0000
  O   O7        1.0  0.07447859951128788  0.3392367049099578  0.7402803650456704  1.0000
  O   O8        1.0  0.7402821062857328  0.6607661035953285  0.07447607118738371  1.0000
  O   O9        1.0  0.07447980611242859  0.8147613205250436  0.9204803614069019  1.0000
  O   O10       1.0  0.7402798414255329  0.814762478641569  0.2647553722548749  1.0000
  O   O11       1.0  0.9204816966397332  0.18523953572180557  0.07448077865482368  1.0000
  O   O12       1.0  0.2647573593814629  0.1852396881570899  0.7402792075551402  1.0000
  O   O13       1.0  0.7408843678380848  0.6638184590643162  0.26451956546601  1.0000
  O   O14       1.0  0.0716604086357934  0.33618559886908633  0.9229282192456696  1.0000
  O   O15       1.0  0.26452123371923636  0.3361843787569115  0.7408827441800908  1.0000
  O   O16       1.0  0.9229291351459352  0.6638159308991548  0.07165933748766642  1.0000
  O   O17       1.0  0.07166275528576461  0.812548243587898  0.26452161330491447  1.0000
  O   O18       1.0  0.7408851384513679  0.8125513871161087  0.9229265367018442  1.0000
  O   O19       1.0  0.9229292407474999  0.1874525915562441  0.7408836039715325  1.0000
  O   O20       1.0  0.2645208152539097  0.18745550663686567  0.07166135839796078  1.0000
  O   O21       1.0  0.9229283073932706  0.994590737919097  0.2645218044486056  1.0000
  O   O22       1.0  0.26452258702359893  0.00541081369011908  0.9229280887014683  1.0000
  O   O23       1.0  0.07166123857549404  0.9945955707827988  0.740882132007215  1.0000
  O   O24       1.0  0.7408842753155936  0.005409261982272297  0.07165993958497577  1.0000
  O   O25       1.0  0.06678633951924702  0.13357317477533573  0.06678638092338927  1.0000
  O   O26       1.0  0.7996406192741572  0.8664296295726004  0.0667849859040926  1.0000
  O   O27       1.0  0.06678619330100603  0.13357434921359607  0.7996392542470403  1.0000
  O   O28       1.0  0.06678698426482294  0.8664292419603896  0.06678476556205472  1.0000
  O   O29       1.0  0.9507942199228906  0.9015903530018222  0.9507918496751343  1.0000
  O   O30       1.0  0.1476178706404099  0.09841320025578434  0.9507928402213679  1.0000
  O   O31       1.0  0.9507932635164239  0.0984121515192697  0.950792939536278  1.0000
  O   O32       1.0  0.9507943272800504  0.9015899961651072  0.1476166853524177  1.0000
