data_image0
_chemical_formula_structural       Cd4H16C24N24O16
_chemical_formula_sum              "Cd4 H16 C24 N24 O16"
_cell_length_a       9.631475425611697
_cell_length_b       10.229070660002517
_cell_length_c       11.204886663159588
_cell_angle_alpha    89.99994318248186
_cell_angle_beta     109.46670102789444
_cell_angle_gamma    90.00007300806794

_space_group_name_H-M_alt    "P 1"
_space_group_IT_number       1

loop_
  _space_group_symop_operation_xyz
  'x, y, z'

loop_
  _atom_site_type_symbol
  _atom_site_label
  _atom_site_symmetry_multiplicity
  _atom_site_fract_x
  _atom_site_fract_y
  _atom_site_fract_z
  _atom_site_occupancy
  Cd  Cd1       1.0  0.03993485697743889  0.6576432041930714  0.2580091304774186  1.0000
  Cd  Cd2       1.0  0.4600652181397749  0.15764398700878962  0.2419915284030339  1.0000
  Cd  Cd3       1.0  0.9600660500098709  0.3423567874000426  0.7419909070191864  1.0000
  Cd  Cd4       1.0  0.5399345827065573  0.8423569821892584  0.7580090806811627  1.0000
  H   H1        1.0  0.8474106344140678  0.8361306651350234  0.9963105153767277  1.0000
  H   H2        1.0  0.652589986365939  0.33613133789222616  0.5036903669685417  1.0000
  H   H3        1.0  0.1525902725737893  0.16387030406400532  0.0036895221195933944  1.0000
  H   H4        1.0  0.34740981448039315  0.6638696313058289  0.49631024211566216  1.0000
  H   H5        1.0  0.45889495629432264  0.6471728940539165  0.9961114827824747  1.0000
  H   H6        1.0  0.0411061440044804  0.14717245471585733  0.5038882390367689  1.0000
  H   H7        1.0  0.5411070518949045  0.352827097539688  0.0038888741700091895  1.0000
  H   H8        1.0  0.9588936568407503  0.8528265592703618  0.496112370047996  1.0000
  H   H9        1.0  0.25114718858976204  0.9407960832139894  0.3464410155208243  1.0000
  H   H10       1.0  0.24885100233780116  0.44079573062040817  0.15355884066787706  1.0000
  H   H11       1.0  0.7488526122565703  0.0592048859840588  0.6535595935633796  1.0000
  H   H12       1.0  0.7511476923653573  0.5592023057589158  0.846442340005055  1.0000
  H   H13       1.0  0.36492814967891  0.9268488293991196  0.014481833447177966  1.0000
  H   H14       1.0  0.13507222797792198  0.426847977207899  0.48551866972075436  1.0000
  H   H15       1.0  0.6350705499649507  0.0731511621925307  0.9855184561814244  1.0000
  H   H16       1.0  0.8649275679288095  0.5731529919896658  0.5144828304072108  1.0000
  C   C1        1.0  0.7738297986969654  0.7728947125003174  0.025042151065363834  1.0000
  C   C2        1.0  0.7261719312906435  0.2728959367756971  0.4749576767547056  1.0000
  C   C3        1.0  0.22617221443241675  0.22710625669969187  0.9749573148430742  1.0000
  C   C4        1.0  0.2738278744952892  0.7271050324228412  0.5250420412857296  1.0000
  C   C5        1.0  0.5736791597907284  0.6758163685015646  0.026365296749226306  1.0000
  C   C6        1.0  0.9263191574908946  0.175815880072193  0.47363362885541715  1.0000
  C   C7        1.0  0.4263206459952044  0.32418460069698085  0.9736344212912159  1.0000
  C   C8        1.0  0.07367954215296629  0.8241841115194505  0.5263666607731852  1.0000
  C   C9        1.0  0.22440659190599624  0.7959961528922436  0.08759786858644251  1.0000
  C   C10       1.0  0.27559363869576  0.29599652740841265  0.41240271026849484  1.0000
  C   C11       1.0  0.7755954064034752  0.20400286109446603  0.9124042704538554  1.0000
  C   C12       1.0  0.7244072534727479  0.7040034641832307  0.5876000003594016  1.0000
  C   C13       1.0  0.25613901063800887  0.9073893861399185  0.2561505700213332  1.0000
  C   C14       1.0  0.2438602488876782  0.40738892892153433  0.24384873390250317  1.0000
  C   C15       1.0  0.7438607951479312  0.09261158305862692  0.7438491480191018  1.0000
  C   C16       1.0  0.7561406531600241  0.5926110626710894  0.7561521946378635  1.0000
  C   C17       1.0  0.6920620948207487  0.6371491357946085  0.13106005882217897  1.0000
  C   C18       1.0  0.8079372950279479  0.137151551948925  0.36893653547198124  1.0000
  C   C19       1.0  0.3079399281861868  0.3628489005886308  0.8689376249995749  1.0000
  C   C20       1.0  0.19206140461591303  0.8628484396427182  0.6310637541566211  1.0000
  C   C21       1.0  0.31698923210056756  0.8999939270610753  0.08578142561862023  1.0000
  C   C22       1.0  0.18301111537552117  0.39999223287412616  0.41421909308287763  1.0000
  C   C23       1.0  0.6830105736848109  0.10000606453154862  0.9142182924220991  1.0000
  C   C24       1.0  0.816988680530109  0.6000067811116025  0.5857824070456489  1.0000
  N   N1        1.0  0.627236802995874  0.7617503839131389  0.959801123464452  1.0000
  N   N2        1.0  0.8727637440723512  0.26175030437012475  0.5401980198162948  1.0000
  N   N3        1.0  0.3727652101329538  0.23824960768095588  0.0401983424442705  1.0000
  N   N4        1.0  0.1272349555715095  0.7382496872215185  0.4598022698123075  1.0000
  N   N5        1.0  0.18682767532938976  0.801386590335227  0.19555012135086264  1.0000
  N   N6        1.0  0.3131714601284584  0.30138712801478823  0.30445013493022094  1.0000
  N   N7        1.0  0.8131721205767944  0.19861340125642363  0.8044513787773797  1.0000
  N   N8        1.0  0.6868283357777257  0.6986128635768554  0.6955513651980283  1.0000
  N   N9        1.0  0.17314508387335784  0.6957656010775396  0.9971991009029325  1.0000
  N   N10       1.0  0.3268549648939114  0.19576550708656987  0.502801164397262  1.0000
  N   N11       1.0  0.8268558231139451  0.30423439051557477  0.0028009365936654588  1.0000
  N   N12       1.0  0.6731448310117258  0.8042335068991592  0.49720033573127165  1.0000
  N   N13       1.0  0.8174543974087809  0.6987227437491298  0.1285284966334929  1.0000
  N   N14       1.0  0.6825450566994106  0.19872696132612327  0.37146895308871564  1.0000
  N   N15       1.0  0.18254651945662909  0.30127529263312874  0.8714697587761439  1.0000
  N   N16       1.0  0.31745364788515207  0.8012749854778533  0.6285304454955567  1.0000
  N   N17       1.0  0.6958743392821418  0.5497472048598909  0.22966999597269938  1.0000
  N   N18       1.0  0.8041238313799965  0.04974679130234701  0.27032989359617704  1.0000
  N   N19       1.0  0.3041254714428447  0.45025278673322333  0.7703288310242586  1.0000
  N   N20       1.0  0.1958759694663428  0.950254177895701  0.7296707154880196  1.0000
  N   N21       1.0  0.3358730616598535  0.9699054117732974  0.1930599031843343  1.0000
  N   N22       1.0  0.16412516692101056  0.46990478961551224  0.30693904512336456  1.0000
  N   N23       1.0  0.6641256478637628  0.03009555742524839  0.8069386043564607  1.0000
  N   N24       1.0  0.8358746339247743  0.5300952019766215  0.6930615639611163  1.0000
  O   O1        1.0  0.2143294815056436  0.6957871849760551  0.902403695813682  1.0000
  O   O2        1.0  0.2856694611448205  0.19578791545333019  0.5975971410616695  1.0000
  O   O3        1.0  0.7856692181387642  0.3042137842215098  0.097596593814636  1.0000
  O   O4        1.0  0.7143303298223102  0.8042130537437443  0.4024052501100572  1.0000
  O   O5        1.0  0.0895008363386438  0.61024609834395  0.01635796242635481  1.0000
  O   O6        1.0  0.410498084309225  0.1102446023226236  0.4836424044141483  1.0000
  O   O7        1.0  0.910498964507141  0.38975389324818377  0.983642646658126  1.0000
  O   O8        1.0  0.5895006153340887  0.8897544116631056  0.5163578852147384  1.0000
  O   O9        1.0  0.8189778250371587  0.5240938778711521  0.31072072664284894  1.0000
  O   O10       1.0  0.681018104512546  0.0240943821725068  0.18928032093982952  1.0000
  O   O11       1.0  0.18102197580861903  0.47590611372098124  0.6892798824416319  1.0000
  O   O12       1.0  0.31898060007146967  0.975906587025541  0.81071907764472  1.0000
  O   O13       1.0  0.5775280421508454  0.5020028146844666  0.2317662798500352  1.0000
  O   O14       1.0  0.9224700748549426  0.0020025459539212004  0.26823363733494454  1.0000
  O   O15       1.0  0.42247397097798967  0.497997176909628  0.7682331860586802  1.0000
  O   O16       1.0  0.0775297309309906  0.9979984232446241  0.7317660807054908  1.0000
