data_image0
_chemical_formula_structural       Cd4H28C28N4O24
_chemical_formula_sum              "Cd4 H28 C28 N4 O24"
_cell_length_a       7.862039200171287
_cell_length_b       8.110375238797683
_cell_length_c       15.918227315003085
_cell_angle_alpha    89.99998737620376
_cell_angle_beta     89.99994199901552
_cell_angle_gamma    114.90529662153823

_space_group_name_H-M_alt    "P 1"
_space_group_IT_number       1

loop_
  _space_group_symop_operation_xyz
  'x, y, z'

loop_
  _atom_site_type_symbol
  _atom_site_label
  _atom_site_symmetry_multiplicity
  _atom_site_fract_x
  _atom_site_fract_y
  _atom_site_fract_z
  _atom_site_occupancy
  Cd  Cd1       1.0  0.8436651531811421  0.0798973860947143  0.4435058280586475  1.0000
  Cd  Cd2       1.0  0.1563351039237233  0.4201013846535206  0.9435057506863558  1.0000
  Cd  Cd3       1.0  0.1563358468797205  0.9201030992110122  0.5564940366244997  1.0000
  Cd  Cd4       1.0  0.8436647264944808  0.5798963818663767  0.056494742207888686  1.0000
  H   H1        1.0  0.3439561440670643  0.8483174137192935  0.3082565537402431  1.0000
  H   H2        1.0  0.656045600254366  0.6516830408291981  0.8082568853061359  1.0000
  H   H3        1.0  0.6560415121290359  0.15168712527392367  0.6917445673648217  1.0000
  H   H4        1.0  0.3439580539072793  0.34831474405736185  0.1917442357978132  1.0000
  H   H5        1.0  0.47672957979987973  0.617661759367934  0.3148169372431795  1.0000
  H   H6        1.0  0.5232727314018888  0.8823400443568943  0.8148179377434844  1.0000
  H   H7        1.0  0.5232717952043302  0.38234551065735906  0.6851816710181992  1.0000
  H   H8        1.0  0.47672906335828463  0.11765637501510182  0.1851825551503481  1.0000
  H   H9        1.0  0.2806417156945074  0.3110028665519308  0.3764055190826596  1.0000
  H   H10       1.0  0.7193611691209439  0.18899873359175967  0.8764064432264219  1.0000
  H   H11       1.0  0.719364277756753  0.6890003559087319  0.6235912045458248  1.0000
  H   H12       1.0  0.28063924611986835  0.8110003923217877  0.12359279324629568  1.0000
  H   H13       1.0  0.7859206348329764  0.9319140714009111  0.2927119946734961  1.0000
  H   H14       1.0  0.21408046223574204  0.5680877606241452  0.7927119272925294  1.0000
  H   H15       1.0  0.2140784008841976  0.06808776105173563  0.7072891264313765  1.0000
  H   H16       1.0  0.7859211226451562  0.4319140840737603  0.2072885656010541  1.0000
  H   H17       1.0  0.789830252428821  0.12244591929174935  0.2705958821546162  1.0000
  H   H18       1.0  0.21016909798395028  0.3775558272517048  0.7705964108705743  1.0000
  H   H19       1.0  0.21017005787064125  0.877555919283772  0.7294046107392872  1.0000
  H   H20       1.0  0.7898293529131805  0.622444645808763  0.2294040820238621  1.0000
  H   H21       1.0  0.6531522927945375  0.70081571479745  0.465964372217087  1.0000
  H   H22       1.0  0.3468439219420388  0.7991844696790056  0.965964841504835  1.0000
  H   H23       1.0  0.3468436089414411  0.2991847460192291  0.5340348642566752  1.0000
  H   H24       1.0  0.6531539441333366  0.20081464398830218  0.0340362796004783  1.0000
  H   H25       1.0  0.5114484674250974  0.7739087391415682  0.509389464965416  1.0000
  H   H26       1.0  0.4885502704172777  0.7260921624352508  0.009389703065600902  1.0000
  H   H27       1.0  0.4885499834720335  0.2260917339188921  0.4906110279290274  1.0000
  H   H28       1.0  0.5114494550612818  0.27390831674760113  0.9906107898285227  1.0000
  C   C1        1.0  0.9753493980277879  0.48902032139125157  0.3930730214169316  1.0000
  C   C2        1.0  0.024654715790589397  0.010981258919919398  0.8930743110621151  1.0000
  C   C3        1.0  0.024650327455070464  0.5109801577940446  0.6069243304239222  1.0000
  C   C4        1.0  0.9753469740299466  0.9890178731150316  0.1069261818315894  1.0000
  C   C5        1.0  0.07574538633503637  0.6642809587568338  0.36063871964570626  1.0000
  C   C6        1.0  0.9242567995661802  0.8357207736150161  0.8606388974084638  1.0000
  C   C7        1.0  0.9242512051606155  0.33571814878907  0.6393611450386131  1.0000
  C   C8        1.0  0.0757473344784501  0.16428108332814165  0.1393609672738307  1.0000
  C   C9        1.0  0.2589093877393863  0.7119819229059134  0.33191562387522566  1.0000
  C   C10       1.0  0.7410903275433893  0.7880198419486606  0.8319158980896617  1.0000
  C   C11       1.0  0.7410882684584337  0.28802261608828417  0.6680842408085325  1.0000
  C   C12       1.0  0.2589107774562436  0.21197793069362092  0.1680845948042631  1.0000
  C   C13       1.0  0.33429518841727207  0.5847953364275472  0.3357872743700979  1.0000
  C   C14       1.0  0.6657064806202442  0.9152050752501781  0.835787572121724  1.0000
  C   C15       1.0  0.6657050169451324  0.41520921481239986  0.6642113338917213  1.0000
  C   C16       1.0  0.3342958989616847  0.08479270351497803  0.16421229256123132  1.0000
  C   C17       1.0  0.22609357503789337  0.41355360416753945  0.3694989790839145  1.0000
  C   C18       1.0  0.7739075742019776  0.0864439285534928  0.8694992591440709  1.0000
  C   C19       1.0  0.773908009845584  0.5864482405318299  0.6304996291777056  1.0000
  C   C20       1.0  0.22608922717122226  0.9135497536655212  0.130501861961811  1.0000
  C   C21       1.0  0.776754655813967  0.42934935306968214  0.4251520230040953  1.0000
  C   C22       1.0  0.2232423076145551  0.0706534999460757  0.9251538354098584  1.0000
  C   C23       1.0  0.2232450696688916  0.5706511261156141  0.5748453288367585  1.0000
  C   C24       1.0  0.776754073999257  0.9293510329242738  0.0748479139061757  1.0000
  C   C25       1.0  0.9932914889104508  0.801514151103291  0.35639052321570824  1.0000
  C   C26       1.0  0.006706300042658604  0.698486210124145  0.8563905447375504  1.0000
  C   C27       1.0  0.006705687405243992  0.19848631583479207  0.6436099696790478  1.0000
  C   C28       1.0  0.9932928406150053  0.30151290966603755  0.1436099481567936  1.0000
  N   N1        1.0  0.05166997406289652  0.3685155438120591  0.3977113372697331  1.0000
  N   N2        1.0  0.948330993088682  0.13148465763926254  0.8977121537344814  1.0000
  N   N3        1.0  0.9483297514191021  0.6314849353727469  0.6022866427817705  1.0000
  N   N4        1.0  0.051669422151277865  0.8685144682737872  0.102287710948886  1.0000
  O   O1        1.0  0.6970240269126293  0.2707168085533169  0.4587990142384655  1.0000
  O   O2        1.0  0.3029756035515163  0.22928057898775486  0.9587988848529605  1.0000
  O   O3        1.0  0.302975698567657  0.7292836706305084  0.5412002222343446  1.0000
  O   O4        1.0  0.6970249166280738  0.7707158342623404  0.0412009798305348  1.0000
  O   O5        1.0  0.7020467872025691  0.5375782314132068  0.41709146473952063  1.0000
  O   O6        1.0  0.2979586931267021  0.9624166466978609  0.9170931968257747  1.0000
  O   O7        1.0  0.297952563336942  0.4624154630525227  0.5829071435231015  1.0000
  O   O8        1.0  0.702048889717169  0.037578443891909806  0.08290918069864969  1.0000
  O   O9        1.0  0.9109436607926894  0.810323068467021  0.2894999291626377  1.0000
  O   O10       1.0  0.08905802987867871  0.6896801279515119  0.7895011670715845  1.0000
  O   O11       1.0  0.08905410034390826  0.18967875786373165  0.7105005637318982  1.0000
  O   O12       1.0  0.9109429701796046  0.3103203573527438  0.2105005822435331  1.0000
  O   O13       1.0  0.02546214320827284  0.9110515337613666  0.4185704205099441  1.0000
  O   O14       1.0  0.9745374400537937  0.5889473834920834  0.918569972186013  1.0000
  O   O15       1.0  0.9745351380461997  0.08894622051327161  0.5814307005955897  1.0000
  O   O16       1.0  0.025462390365262853  0.4110503830283037  0.08142989249757449  1.0000
  O   O17       1.0  0.721722618804989  0.012523071637971799  0.3059516007950052  1.0000
  O   O18       1.0  0.2782760501051839  0.4874772604569771  0.8059520835006921  1.0000
  O   O19       1.0  0.2782745575106985  0.9874773953001115  0.694048892099751  1.0000
  O   O20       1.0  0.7217236753733829  0.5125232187258748  0.19404840939342444  1.0000
  O   O21       1.0  0.6457035680345057  0.8072378054711821  0.4932400184119672  1.0000
  O   O22       1.0  0.35429512127934254  0.6927623487769311  0.9932398674926615  1.0000
  O   O23       1.0  0.3542961574440611  0.19276267371166966  0.5067604744821566  1.0000
  O   O24       1.0  0.645704604199224  0.3072381304059206  0.006760625401462099  1.0000
