data_image0
_chemical_formula_structural       Cu12H24C36N28
_chemical_formula_sum              "Cu12 H24 C36 N28"
_cell_length_a       13.702416755001744
_cell_length_b       16.77082272700205
_cell_length_c       19.296932189000188
_cell_angle_alpha    89.99999235321135
_cell_angle_beta     89.99998589293587
_cell_angle_gamma    89.99994390119018

_space_group_name_H-M_alt    "P 1"
_space_group_IT_number       1

loop_
  _space_group_symop_operation_xyz
  'x, y, z'

loop_
  _atom_site_type_symbol
  _atom_site_label
  _atom_site_symmetry_multiplicity
  _atom_site_fract_x
  _atom_site_fract_y
  _atom_site_fract_z
  _atom_site_occupancy
  Cu  Cu1       1.0  0.7959311696878543  0.9168264369703323  0.7893134246561074  1.0000
  Cu  Cu2       1.0  0.8097082916058792  0.8870866737054398  0.948570864123354  1.0000
  Cu  Cu3       1.0  0.9230964055662908  0.7730814962414881  0.8406894639322929  1.0000
  Cu  Cu4       1.0  0.2040679810713469  0.5831722401461192  0.289314329804668  1.0000
  Cu  Cu5       1.0  0.19029226356585127  0.6129119789294962  0.44857176823605716  1.0000
  Cu  Cu6       1.0  0.07690418698740586  0.7269171729769751  0.3406893382379152  1.0000
  Cu  Cu7       1.0  0.2959322944380388  0.0831722523340162  0.710686510848461  1.0000
  Cu  Cu8       1.0  0.30970870608643947  0.11291200458295947  0.5514290689709611  1.0000
  Cu  Cu9       1.0  0.4230966459827811  0.22691709138147326  0.6593109675418773  1.0000
  Cu  Cu10      1.0  0.7040674830226049  0.4168265994726638  0.21068521699213247  1.0000
  Cu  Cu11      1.0  0.6902925861539299  0.3870880642513582  0.05142829918775499  1.0000
  Cu  Cu12      1.0  0.5769046088762478  0.2730817683219441  0.1593107490232057  1.0000
  H   H1        1.0  0.6256456737966473  0.04566411599077468  0.784157748218824  1.0000
  H   H2        1.0  0.6873115770266762  0.03897634578232359  0.004588231713483999  1.0000
  H   H3        1.0  0.06291022922182779  0.7473246166066687  0.7087302232473289  1.0000
  H   H4        1.0  0.8853913083547481  0.9469811645469618  0.6416028892816498  1.0000
  H   H5        1.0  0.8483834256863144  0.7943375477293201  0.08783612147559688  1.0000
  H   H6        1.0  0.9796259178637282  0.629876207607424  0.9417138156576356  1.0000
  H   H7        1.0  0.3743548080024367  0.45433651334251823  0.284158580567876  1.0000
  H   H8        1.0  0.3126882718490549  0.46102134515812304  0.5045889606385642  1.0000
  H   H9        1.0  0.9370911388544839  0.7526752654435639  0.2087294258615486  1.0000
  H   H10       1.0  0.11460862338579147  0.5530175352752238  0.1416027771411592  1.0000
  H   H11       1.0  0.15161652468442802  0.7056617566314853  0.5878363899525779  1.0000
  H   H12       1.0  0.020375369482117395  0.8701230423550328  0.44171368325933696  1.0000
  H   H13       1.0  0.12564502251309045  0.9543370945697517  0.7158422170772099  1.0000
  H   H14       1.0  0.18731155065159297  0.9610225072346948  0.49541183623190216  1.0000
  H   H15       1.0  0.5629091702552173  0.2526754515700915  0.7912702712414655  1.0000
  H   H16       1.0  0.3853924180747652  0.0530174532247187  0.8583980670060354  1.0000
  H   H17       1.0  0.3483836039710865  0.20566117649404697  0.412164436507325  1.0000
  H   H18       1.0  0.4796252917971272  0.3701223348147167  0.558286605926767  1.0000
  H   H19       1.0  0.8743541537040539  0.5456627863881067  0.21584145465430277  1.0000
  H   H20       1.0  0.8126897180872202  0.5389773307470661  0.9954109719343195  1.0000
  H   H21       1.0  0.4370905792818575  0.24732398412285764  0.291270598384898  1.0000
  H   H22       1.0  0.6146087677987065  0.4469819721489044  0.35839730352356  1.0000
  H   H23       1.0  0.6516168334735607  0.2943382406149055  0.9121640890169259  1.0000
  H   H24       1.0  0.5203752682689425  0.12987713669200218  0.05828693210857238  1.0000
  C   C1        1.0  0.6516403568188448  0.0330725905392057  0.8360711798662307  1.0000
  C   C2        1.0  0.627205218358469  0.069736270829452  0.8990428475051573  1.0000
  C   C3        1.0  0.6828924904935716  0.029612989529745393  0.9490969152397284  1.0000
  C   C4        1.0  0.009657552252818398  0.7946383577620324  0.702206908464788  1.0000
  C   C5        1.0  0.9990319020449403  0.8505839395934486  0.6486703295675511  1.0000
  C   C6        1.0  0.9179790161191972  0.8963986578743641  0.667974438736195  1.0000
  C   C7        1.0  0.8772674079004968  0.7632502156208857  0.042978731424035695  1.0000
  C   C8        1.0  0.9228024865314735  0.6885382995804575  0.038475943494624694  1.0000
  C   C9        1.0  0.9441482005803505  0.6792345615489238  0.9679578838724012  1.0000
  C   C10       1.0  0.34836083679168434  0.46692564571910106  0.3360709788699409  1.0000
  C   C11       1.0  0.3727959534310655  0.4302631482961984  0.399043164699293  1.0000
  C   C12       1.0  0.31710793415426497  0.4703852293545835  0.4490972375272759  1.0000
  C   C13       1.0  0.9903423584876945  0.7053609290178784  0.20220610724501134  1.0000
  C   C14       1.0  0.0009687570445748999  0.6494153554157122  0.14867022613852038  1.0000
  C   C15       1.0  0.08202090648303076  0.6036006341676764  0.1679743264357256  1.0000
  C   C16       1.0  0.12273255801395776  0.7367484993616529  0.5429795195692009  1.0000
  C   C17       1.0  0.07719821074159228  0.8114604160940004  0.5384762127318794  1.0000
  C   C18       1.0  0.05585234787335478  0.8207646843795685  0.4679582692037342  1.0000
  C   C19       1.0  0.15163970842822033  0.9669274066885121  0.6639292990991875  1.0000
  C   C20       1.0  0.12720463574466828  0.9302637459366918  0.6009571175180993  1.0000
  C   C21       1.0  0.18289187711999227  0.9703863864350238  0.5509030400410707  1.0000
  C   C22       1.0  0.5096572775493725  0.20536115672170036  0.7977941135576215  1.0000
  C   C23       1.0  0.49903216884320745  0.149415779858586  0.8513300886216225  1.0000
  C   C24       1.0  0.4179786147366541  0.10359993384069098  0.8320265118504009  1.0000
  C   C25       1.0  0.3772675333709329  0.23674848550682978  0.45702130328854895  1.0000
  C   C26       1.0  0.4228025208685294  0.31146036513727177  0.4615246014686959  1.0000
  C   C27       1.0  0.44414837258177897  0.320764605514654  0.5320425439187275  1.0000
  C   C28       1.0  0.8483602155746294  0.5330736747963625  0.16392906089988904  1.0000
  C   C29       1.0  0.8727953100796311  0.5697355564072096  0.10095687079564188  1.0000
  C   C30       1.0  0.8171088158468007  0.5296129236028974  0.05090228949309509  1.0000
  C   C31       1.0  0.49034246972731654  0.29463827796848807  0.29779338946799067  1.0000
  C   C32       1.0  0.5009682896806565  0.3505842428754348  0.35132987440754687  1.0000
  C   C33       1.0  0.5820211206785968  0.3963988993136524  0.33202575993020383  1.0000
  C   C34       1.0  0.6227336183287162  0.2632509247064689  0.9570209644535266  1.0000
  C   C35       1.0  0.5771993590689489  0.1885390443834893  0.9615242792570693  1.0000
  C   C36       1.0  0.5558529263760759  0.17923546629970832  0.032042339957406796  1.0000
  N   N1        1.0  0.43952071514539864  0.3675893918324745  0.4082741634763636  1.0000
  N   N2        1.0  0.5604804534454358  0.13241002587415093  0.9082743689105967  1.0000
  N   N3        1.0  0.9395199998522582  0.6324092595176438  0.091725860345079  1.0000
  N   N4        1.0  0.06047994917065579  0.8675900442452401  0.5917261260032376  1.0000
  N   N5        1.0  0.7371517020808084  0.972518411304385  0.9175084150684255  1.0000
  N   N6        1.0  0.7173581243842121  0.974390127597317  0.8481305494279919  1.0000
  N   N7        1.0  0.8829238914079409  0.8700153461647202  0.7290126430027255  1.0000
  N   N8        1.0  0.9391023367764855  0.8065521266639023  0.7501579718107576  1.0000
  N   N9        1.0  0.9131419586963642  0.7440054002275146  0.9326895824963229  1.0000
  N   N10       1.0  0.8725184284899894  0.7963767255068032  0.9793488131555179  1.0000
  N   N11       1.0  0.26284740425814584  0.5274796498323651  0.4175093163867771  1.0000
  N   N12       1.0  0.28264173579264446  0.5256085404775204  0.3481314475002293  1.0000
  N   N13       1.0  0.11707601004441406  0.62998334022091  0.22901252151227414  1.0000
  N   N14       1.0  0.060898287147104185  0.6934465564709881  0.2501578527949704  1.0000
  N   N15       1.0  0.08685860197854108  0.7559932548487679  0.43268945169128153  1.0000
  N   N16       1.0  0.1274828458152939  0.7036219223967207  0.47934919952884764  1.0000
  N   N17       1.0  0.2371514784244936  0.027480921274410295  0.5824915307196861  1.0000
  N   N18       1.0  0.21735787893182126  0.025609220808448196  0.6518699180400985  1.0000
  N   N19       1.0  0.3829249391413113  0.129982677306316  0.770987795499586  1.0000
  N   N20       1.0  0.4391018561531793  0.1934464481609552  0.7498424568632343  1.0000
  N   N21       1.0  0.4131421961318578  0.2559931953550105  0.5673113689364582  1.0000
  N   N22       1.0  0.37251801508373455  0.20362190255872292  0.5206516271673179  1.0000
  N   N23       1.0  0.7628483434559425  0.4725191427856004  0.0824907383435303  1.0000
  N   N24       1.0  0.7826411891102648  0.4743908325870976  0.15186860376714859  1.0000
  N   N25       1.0  0.6170762770212402  0.3700155689566031  0.2709870405037051  1.0000
  N   N26       1.0  0.5608979077394236  0.30655239762662484  0.24984223726644927  1.0000
  N   N27       1.0  0.5868583608068857  0.2440068710381809  0.06731063382830627  1.0000
  N   N28       1.0  0.6274825580229048  0.2963781710069354  0.020651397100614595  1.0000
