data_image0
_chemical_formula_structural       Li4H40C32O20
_chemical_formula_sum              "Li4 H40 C32 O20"
_cell_length_a       6.354839230188631
_cell_length_b       7.948221147018355
_cell_length_c       17.174167235701493
_cell_angle_alpha    89.9997536482848
_cell_angle_beta     95.84576420450952
_cell_angle_gamma    90.00002823903597

_space_group_name_H-M_alt    "P 1"
_space_group_IT_number       1

loop_
  _space_group_symop_operation_xyz
  'x, y, z'

loop_
  _atom_site_type_symbol
  _atom_site_label
  _atom_site_symmetry_multiplicity
  _atom_site_fract_x
  _atom_site_fract_y
  _atom_site_fract_z
  _atom_site_occupancy
  Li  Li1       1.0  0.5471543181929021  0.2708581815061279  0.5440250362219743  1.0000
  Li  Li2       1.0  0.9528449950890588  0.7708585952296613  0.4559739584771734  1.0000
  Li  Li3       1.0  0.45284677303064297  0.7291397319926387  0.4559742828725674  1.0000
  Li  Li4       1.0  0.04715449503618879  0.22913806013132637  0.5440241393113894  1.0000
  H   H1        1.0  0.006887060874738899  0.3301205651381592  0.7784036832311614  1.0000
  H   H2        1.0  0.4931111110949685  0.8301269470260803  0.22159792207487777  1.0000
  H   H3        1.0  0.9931220261911304  0.669877348336449  0.2216011597768528  1.0000
  H   H4        1.0  0.5068868165280448  0.1698822897609701  0.7784012848846373  1.0000
  H   H5        1.0  0.31261644690897566  0.6648242609286186  0.005950306892614803  1.0000
  H   H6        1.0  0.187373732784323  0.1648234917089297  0.9940472679231506  1.0000
  H   H7        1.0  0.6873735813597931  0.3351761688534721  0.9940492023888509  1.0000
  H   H8        1.0  0.8126210119393775  0.835174421795095  0.005950661678483007  1.0000
  H   H9        1.0  0.48548909632323495  0.6646792869604851  0.8869924041941317  1.0000
  H   H10       1.0  0.014509021305400398  0.1646765764580706  0.11300719908884818  1.0000
  H   H11       1.0  0.5145136249455148  0.3353274335268494  0.1130098840668978  1.0000
  H   H12       1.0  0.9854873148677469  0.8353225951864401  0.8869913691961032  1.0000
  H   H13       1.0  0.8288199720330808  0.33207280066238803  0.898462852010482  1.0000
  H   H14       1.0  0.6711841503697825  0.8320801768129441  0.1015396850710957  1.0000
  H   H15       1.0  0.1711843310357821  0.6679251128229279  0.1015394923211872  1.0000
  H   H16       1.0  0.328820133401976  0.16793031810929182  0.8984614940027527  1.0000
  H   H17       1.0  0.6591791574109818  0.551144904702447  0.7960006980010164  1.0000
  H   H18       1.0  0.8408201446097008  0.05115027876829709  0.20399931552329056  1.0000
  H   H19       1.0  0.34081878950937744  0.448856783220286  0.2039996742113317  1.0000
  H   H20       1.0  0.1591825380635895  0.9488551835867082  0.7960006422483231  1.0000
  H   H21       1.0  0.5029072721005504  0.7145628033456999  0.7463914785057496  1.0000
  H   H22       1.0  0.9970967908742664  0.2145652590760107  0.25360837876565506  1.0000
  H   H23       1.0  0.4970938384207528  0.28543636829081004  0.2536090058328782  1.0000
  H   H24       1.0  0.0029058917987824996  0.7854351707063925  0.7463915790109468  1.0000
  H   H25       1.0  0.7298059921435679  0.0642342165028893  0.6318037677983526  1.0000
  H   H26       1.0  0.7701948832742572  0.5642341189442986  0.3681956931837647  1.0000
  H   H27       1.0  0.27019196442545723  0.9357636969876849  0.3681971870404084  1.0000
  H   H28       1.0  0.22980615970503487  0.43576379456799685  0.6318007127974354  1.0000
  H   H29       1.0  0.4859991227812869  0.001281756548174  0.6238790760876469  1.0000
  H   H30       1.0  0.014002152546659397  0.5012814884977457  0.3761215463403929  1.0000
  H   H31       1.0  0.5139988144900369  0.9987161569478145  0.3761207135057774  1.0000
  H   H32       1.0  0.9860005397749416  0.4987126505661975  0.623878994065123  1.0000
  H   H33       1.0  0.8194000211125709  0.38958081198643396  0.4543285632100762  1.0000
  H   H34       1.0  0.6806009045666103  0.8895815472339801  0.5456714170901904  1.0000
  H   H35       1.0  0.18059791615875298  0.6104171015095471  0.5456712263833481  1.0000
  H   H36       1.0  0.31940019630584265  0.11041762440523675  0.4543284846257691  1.0000
  H   H37       1.0  0.749296552140457  0.20562402322337897  0.43086516031083016  1.0000
  H   H38       1.0  0.750701173132441  0.7056220505933695  0.5691339078413263  1.0000
  H   H39       1.0  0.2507013851309238  0.7943751484157601  0.5691346292813434  1.0000
  H   H40       1.0  0.24929834593935846  0.29437460475950417  0.43086593781524124  1.0000
  C   C1        1.0  0.05342685015993709  0.49951610702116495  0.9636198703686175  1.0000
  C   C2        1.0  0.4465697271837995  0.9995128696086225  0.0363795947078955  1.0000
  C   C3        1.0  0.9465679042127988  0.5004855809096111  0.0363786418519396  1.0000
  C   C4        1.0  0.5534282390341969  0.0004875601655526999  0.9636219427510327  1.0000
  C   C5        1.0  0.07130021803936869  0.40453573677558546  0.8286454960659029  1.0000
  C   C6        1.0  0.4287027160630003  0.9045425613100235  0.1713567123079969  1.0000
  C   C7        1.0  0.9287040657315585  0.5954571441425355  0.1713556830254248  1.0000
  C   C8        1.0  0.5712968319555926  0.09545912660733787  0.8286448812115736  1.0000
  C   C9        1.0  0.6231739052267216  0.5316052562518079  0.6712799536927322  1.0000
  C   C10       1.0  0.8768285392374862  0.03160571023347099  0.3287190455079099  1.0000
  C   C11       1.0  0.37683194104734236  0.4683939153875157  0.3287201162088991  1.0000
  C   C12       1.0  0.12316779693560419  0.9683922032678889  0.6712795227782848  1.0000
  C   C13       1.0  0.240522031315507  0.5905038273837563  0.9570661921339008  1.0000
  C   C14       1.0  0.2594712856080078  0.09050311895114758  0.042930477112207696  1.0000
  C   C15       1.0  0.759472732706321  0.4095028931169152  0.0429329027043295  1.0000
  C   C16       1.0  0.7405234784136991  0.9095010852632226  0.9570686177285166  1.0000
  C   C17       1.0  0.34172328801171387  0.5909558379423245  0.8886323961797089  1.0000
  C   C18       1.0  0.15827638510335618  0.09095193888084908  0.1113662442877441  1.0000
  C   C19       1.0  0.6582762021138391  0.4090471081344233  0.11136570160260818  1.0000
  C   C20       1.0  0.8417247350667408  0.9090459746097962  0.8886348226748025  1.0000
  C   C21       1.0  0.9722514053886894  0.40663039697963643  0.8971557185096869  1.0000
  C   C22       1.0  0.5277479304638105  0.9066326742126377  0.1028435892551229  1.0000
  C   C23       1.0  0.027748181225298697  0.5933712909269033  0.1028482055005568  1.0000
  C   C24       1.0  0.4722515500130697  0.09337404629626887  0.8971539259007812  1.0000
  C   C25       1.0  0.2578735330833836  0.4967916565133378  0.8239901887342072  1.0000
  C   C26       1.0  0.24212620760254566  0.9967971091308808  0.17600939386645104  1.0000
  C   C27       1.0  0.7421371068364094  0.5032049988262769  0.17601296246894546  1.0000
  C   C28       1.0  0.7578685371213963  0.003205836945745899  0.8239885357301873  1.0000
  C   C29       1.0  0.5366600245572639  0.5785600457259362  0.7476059234734862  1.0000
  C   C30       1.0  0.9633392607748232  0.07856501627801997  0.2523928703772782  1.0000
  C   C31       1.0  0.4633410666663379  0.42143912591598814  0.25239339561980495  1.0000
  C   C32       1.0  0.036660258297274595  0.9214379297906132  0.7476069752730439  1.0000
  O   O1        1.0  0.7939441926605042  0.6070939371130492  0.6584727992404211  1.0000
  O   O2        1.0  0.706056686836412  0.10709546565249178  0.3415265766485973  1.0000
  O   O3        1.0  0.20605690821182776  0.3929027182398597  0.3415271024780325  1.0000
  O   O4        1.0  0.293942822586601  0.8929024478462395  0.6584726863840515  1.0000
  O   O5        1.0  0.7811686636391856  0.2790125590886844  0.4778388167457662  1.0000
  O   O6        1.0  0.7188306697165671  0.7790135273102549  0.5221613270088882  1.0000
  O   O7        1.0  0.21882928328105317  0.7209866125477473  0.5221615554690757  1.0000
  O   O8        1.0  0.28117043115588547  0.22098564432896234  0.47783857470707136  1.0000
  O   O9        1.0  0.3477965796967409  0.4845401958366792  0.755062937910388  1.0000
  O   O10       1.0  0.15220317912075393  0.9845424575037355  0.24493783426219554  1.0000
  O   O11       1.0  0.6522029393751154  0.5154577176593449  0.244936907744929  1.0000
  O   O12       1.0  0.8477979314006132  0.015457972275925196  0.7550626500751818  1.0000
  O   O13       1.0  0.5995992300820845  0.053540144971236686  0.595254993417761  1.0000
  O   O14       1.0  0.9004016539668739  0.5535410150465835  0.4047450714175156  1.0000
  O   O15       1.0  0.4004002986385657  0.9464565103789293  0.4047454348614679  1.0000
  O   O16       1.0  0.09959940831006256  0.4464556403171542  0.5952524998102646  1.0000
  O   O17       1.0  0.5245786563077814  0.42679205765641354  0.6261642385776085  1.0000
  O   O18       1.0  0.975417488915795  0.9267919852524497  0.3738331691698278  1.0000
  O   O19       1.0  0.47541928096342895  0.5732033395532735  0.3738355510183169  1.0000
  O   O20       1.0  0.024578827959473398  0.07320341196801648  0.6261642338735314  1.0000
