data_image0
_chemical_formula_structural       Zn8H48C48N24O26
_chemical_formula_sum              "Zn8 H48 C48 N24 O26"
_cell_length_a       18.57235073000801
_cell_length_b       18.572673036459058
_cell_length_c       18.572296590939978
_cell_angle_alpha    89.99919091244077
_cell_angle_beta     119.99978721610339
_cell_angle_gamma    119.99976453353138

_space_group_name_H-M_alt    "P 1"
_space_group_IT_number       1

loop_
  _space_group_symop_operation_xyz
  'x, y, z'

loop_
  _atom_site_type_symbol
  _atom_site_label
  _atom_site_symmetry_multiplicity
  _atom_site_fract_x
  _atom_site_fract_y
  _atom_site_fract_z
  _atom_site_occupancy
  Zn  Zn1       1.0  0.5853490837235142  0.6280281032668923  0.042676554083677  1.0000
  Zn  Zn2       1.0  0.41464697936491035  0.4573220030781613  0.8719568071274464  1.0000
  Zn  Zn3       1.0  0.4146794648714547  0.4573270709095709  0.042676579907599356  1.0000
  Zn  Zn4       1.0  0.585340271580577  0.45733248272667015  0.042678053870240255  1.0000
  Zn  Zn5       1.0  0.41468164348983544  0.8719849736755805  0.4573421746554871  1.0000
  Zn  Zn6       1.0  0.5853534385362024  0.04265865262398446  0.4573424468326336  1.0000
  Zn  Zn7       1.0  0.5853435542114623  0.04265608131567687  0.6280229115706533  1.0000
  Zn  Zn8       1.0  0.41465322871805194  0.042658020342102435  0.45735303908377023  1.0000
  H   H1        1.0  0.8244413658475908  0.5300393989587562  0.1516437901597954  1.0000
  H   H2        1.0  0.9389939836214864  0.5498179004298153  0.18486087260652803  1.0000
  H   H3        1.0  0.17556288063605024  0.9699835410384876  0.32720868686858745  1.0000
  H   H4        1.0  0.061035492133292825  0.9502212057469421  0.24588469877342328  1.0000
  H   H5        1.0  0.17558926748802134  0.7056238766390804  0.3483566109510931  1.0000
  H   H6        1.0  0.06104891784146105  0.6108667874442587  0.31511705256050954  1.0000
  H   H7        1.0  0.8244347157780254  0.7944239268996326  0.17276168234470646  1.0000
  H   H8        1.0  0.9389623594444599  0.889164184456483  0.2540751021616571  1.0000
  H   H9        1.0  0.17556978679467514  0.3483407052074625  0.9699781883845305  1.0000
  H   H10       1.0  0.06106245624604162  0.3151225550698342  0.9502269738485367  1.0000
  H   H11       1.0  0.824438673320671  0.17278640038912843  0.5300528987098545  1.0000
  H   H12       1.0  0.9389556212895512  0.25408734288266993  0.5498199305413395  1.0000
  H   H13       1.0  0.8244343610497681  0.15165599831046703  0.7944263631732511  1.0000
  H   H14       1.0  0.938988744069668  0.1848708194045443  0.8891885990283014  1.0000
  H   H15       1.0  0.1755887288582584  0.3272420113980132  0.7056176853796501  1.0000
  H   H16       1.0  0.06103634920565066  0.24590128512173234  0.6108492119298532  1.0000
  H   H17       1.0  0.37835479367083014  0.530006903884221  0.1727701423056729  1.0000
  H   H18       1.0  0.36491281705352213  0.5497840014432355  0.25407693456003944  1.0000
  H   H19       1.0  0.6427362140070371  0.9699450650422604  0.34834497461486075  1.0000
  H   H20       1.0  0.7042932230904952  0.9501968729586565  0.31512443488710307  1.0000
  H   H21       1.0  0.3572407418498713  0.7055657800300921  0.3272282644563589  1.0000
  H   H22       1.0  0.29569508387326915  0.6108232045487011  0.24588400717653489  1.0000
  H   H23       1.0  0.6216236930747028  0.7943944805085507  0.15165830100055175  1.0000
  H   H24       1.0  0.6350597240558288  0.8891511441874513  0.18487324112336284  1.0000
  H   H25       1.0  0.6216179429952078  0.3272088908593673  0.9699566954746569  1.0000
  H   H26       1.0  0.6350667365763556  0.2458922003572894  0.9501926636732916  1.0000
  H   H27       1.0  0.3572353213279697  0.15164984051187244  0.5300218998777595  1.0000
  H   H28       1.0  0.2956919767337993  0.1848669578103141  0.549792586383134  1.0000
  H   H29       1.0  0.6427303009639472  0.1727663012661082  0.7943860435614382  1.0000
  H   H30       1.0  0.7042666385920101  0.2540825433306678  0.8891344050266881  1.0000
  H   H31       1.0  0.3783584319767712  0.348332951786773  0.7055833401237948  1.0000
  H   H32       1.0  0.36492845797599227  0.315128095457105  0.6108342301727276  1.0000
  H   H33       1.0  0.3572700826519225  0.5300383359826953  0.7056081094376694  1.0000
  H   H34       1.0  0.29570708876486423  0.5497935227787424  0.6108500997751704  1.0000
  H   H35       1.0  0.6216030220784886  0.9699751420544728  0.7943724500147908  1.0000
  H   H36       1.0  0.6350707132908652  0.950209291405123  0.8891466702387945  1.0000
  H   H37       1.0  0.37840148072113755  0.7056183390360429  0.5300309289583679  1.0000
  H   H38       1.0  0.3649481533076653  0.6108507870506443  0.5498029406470977  1.0000
  H   H39       1.0  0.6427351115119179  0.79441665660633  0.9699563056966907  1.0000
  H   H40       1.0  0.7043076899371458  0.8891614492573299  0.9502021336821898  1.0000
  H   H41       1.0  0.3572324435245662  0.3272162766862721  0.1516682085916585  1.0000
  H   H42       1.0  0.29569566038864536  0.24588133416097685  0.1848844127146663  1.0000
  H   H43       1.0  0.6216400313876136  0.15166855372897448  0.3272233327604751  1.0000
  H   H44       1.0  0.6350621385550068  0.18487935137178366  0.2458928158745194  1.0000
  H   H45       1.0  0.37836948909132667  0.17278123871026443  0.3483525019792211  1.0000
  H   H46       1.0  0.36491327427965803  0.2540801434181289  0.3151091468027047  1.0000
  H   H47       1.0  0.6427491412345888  0.34837443476850893  0.17276742775774068  1.0000
  H   H48       1.0  0.7042576735685913  0.31510962051434876  0.25407722558806967  1.0000
  C   C1        1.0  0.5000173107319624  0.6391607399655539  0.8608692442632202  1.0000
  C   C2        1.0  0.2217049985866026  0.3608578072101166  0.8608649106392008  1.0000
  C   C3        1.0  0.49999325207191697  0.6391484520358758  0.1391441013697303  1.0000
  C   C4        1.0  0.49998001309632656  0.3608634085673755  0.1391521323582125  1.0000
  C   C5        1.0  0.7782868809287816  0.6391569404915743  0.1391300526909659  1.0000
  C   C6        1.0  0.4999998970837042  0.3608451442996881  0.8608622656376567  1.0000
  C   C7        1.0  0.5000059233046129  0.8608561536607126  0.3608674665272317  1.0000
  C   C8        1.0  0.7782932083983168  0.13913322588590643  0.6391676423825102  1.0000
  C   C9        1.0  0.5000156986286797  0.8608596746477203  0.6391481169259592  1.0000
  C   C10       1.0  0.4999903213774529  0.13915174869720193  0.6391296794230142  1.0000
  C   C11       1.0  0.22173070660019095  0.8608832227472903  0.3608681067094821  1.0000
  C   C12       1.0  0.4999874423746745  0.1391373190958163  0.36085463098905984  1.0000
  C   C13       1.0  0.8905629042148391  0.6953045998701911  0.19525949094284556  1.0000
  C   C14       1.0  0.10946171753530355  0.8047320465422914  0.30473033998055843  1.0000
  C   C15       1.0  0.9461710841669556  0.6570331986130852  0.22166327215602166  1.0000
  C   C16       1.0  0.05382874286681983  0.8429991058145772  0.27549437018748074  1.0000
  C   C17       1.0  0.05387141845245206  0.7108708740063746  0.2783497805530074  1.0000
  C   C18       1.0  0.9461511621863746  0.7891676779309406  0.2244873582147232  1.0000
  C   C19       1.0  0.10945484296016157  0.3047261236944081  0.8047527135747643  1.0000
  C   C20       1.0  0.8905588266528139  0.19525531321479403  0.6952838017455533  1.0000
  C   C21       1.0  0.05386769074485901  0.2783444078152685  0.8430287481472618  1.0000
  C   C22       1.0  0.946162226820462  0.22448161506041922  0.6570088737917317  1.0000
  C   C23       1.0  0.9461811477398854  0.22165920359429223  0.7891662521533434  1.0000
  C   C24       1.0  0.053838504963550735  0.27550383494499187  0.7108603497319521  1.0000
  C   C25       1.0  0.4999968331630311  0.6952860051289063  0.19527430451679345  1.0000
  C   C26       1.0  0.5000036875021578  0.8046955466033623  0.30472770587479653  1.0000
  C   C27       1.0  0.4353229615148422  0.6569860142714957  0.22448312297304793  1.0000
  C   C28       1.0  0.5674793445963148  0.8429795111530681  0.2783423254381959  1.0000
  C   C29       1.0  0.4324955704468678  0.7108228179058783  0.2754848008407506  1.0000
  C   C30       1.0  0.5646603910327741  0.789150451044989  0.2216637698868453  1.0000
  C   C31       1.0  0.4999849432614666  0.3046955592158298  0.8046978390870193  1.0000
  C   C32       1.0  0.4999845141850797  0.19527068132389047  0.6952804950658519  1.0000
  C   C33       1.0  0.5646392655076369  0.27549131291687706  0.842975356558611  1.0000
  C   C34       1.0  0.4325095318942829  0.22167934114554547  0.6570060641312168  1.0000
  C   C35       1.0  0.5674852784903307  0.22449422530855398  0.7891459507454144  1.0000
  C   C36       1.0  0.4353348863439733  0.2783411718815003  0.7108437816092061  1.0000
  C   C37       1.0  0.5000282286178431  0.6952862414634281  0.8047369785162459  1.0000
  C   C38       1.0  0.4999968051522501  0.8047288354169453  0.6952645493211376  1.0000
  C   C39       1.0  0.43252301820875527  0.6570041404242771  0.7108585873114777  1.0000
  C   C40       1.0  0.5646716815702533  0.8429964260755155  0.7891551721792353  1.0000
  C   C41       1.0  0.435348281142211  0.7108412175011765  0.6570079252516975  1.0000
  C   C42       1.0  0.5675051098050047  0.7891567180845411  0.8430019201794109  1.0000
  C   C43       1.0  0.49996572433381187  0.3047088181006145  0.19527032881538284  1.0000
  C   C44       1.0  0.4999879780987371  0.19528013501646055  0.30470802064903774  1.0000
  C   C45       1.0  0.4324909519965061  0.2754917192107698  0.221664710311309  1.0000
  C   C46       1.0  0.5646389214564776  0.2216463926902747  0.2754910427975047  1.0000
  C   C47       1.0  0.4353254245891518  0.2244827026343826  0.2783322926298979  1.0000
  C   C48       1.0  0.5674633501539077  0.27832349296339487  0.22449365875878854  1.0000
  N   N1        1.0  0.9010428056904517  0.5665832507212585  0.19770251174089276  1.0000
  N   N2        1.0  0.09896396022146818  0.9334540240331963  0.29666734584800036  1.0000
  N   N3        1.0  0.09900237516723831  0.6655784382409777  0.3023181073275509  1.0000
  N   N4        1.0  0.9010178317978799  0.834464984040956  0.20331502152997427  1.0000
  N   N5        1.0  0.09898414459591721  0.3022962390511097  0.9334453643498435  1.0000
  N   N6        1.0  0.901021364878474  0.20332382240526667  0.5665811130993177  1.0000
  N   N7        1.0  0.9010360124830896  0.19769799695589532  0.8344681051116823  1.0000
  N   N8        1.0  0.09898591578664197  0.29668579928043926  0.6655564211929813  1.0000
  N   N9        1.0  0.36884631801544304  0.5665431085467747  0.20330965592434322  1.0000
  N   N10       1.0  0.6367429018285902  0.9334119617298668  0.3022951809617281  1.0000
  N   N11       1.0  0.3632175684667868  0.6655216848834085  0.2966572563170543  1.0000
  N   N12       1.0  0.6311138924897578  0.8344481925496227  0.19768720987610766  1.0000
  N   N13       1.0  0.631124711154584  0.2966606931818987  0.9334261862871217  1.0000
  N   N14       1.0  0.3632238758086359  0.19769855471731992  0.566554008031801  1.0000
  N   N15       1.0  0.636750945541955  0.20332640615039563  0.8344360953974783  1.0000
  N   N16       1.0  0.3688688967523177  0.3023066754773751  0.6655405975789108  1.0000
  N   N17       1.0  0.36325017192285003  0.566566432581844  0.6655537004560157  1.0000
  N   N18       1.0  0.6311310117088593  0.933441057479264  0.8344419320358297  1.0000
  N   N19       1.0  0.36888518975356266  0.6655567094940905  0.5665694992362801  1.0000
  N   N20       1.0  0.6367674276929519  0.834474087110891  0.933437328795847  1.0000
  N   N21       1.0  0.3632189557915098  0.29665115592544583  0.1976994042835827  1.0000
  N   N22       1.0  0.6311090044864398  0.19768111078691672  0.2966511713000273  1.0000
  N   N23       1.0  0.3688610484288404  0.20331486552712616  0.3023075729618511  1.0000
  N   N24       1.0  0.636753478038912  0.3023262891936012  0.20332632159630032  1.0000
  O   O1        1.0  0.49998893878686346  0.5000071871213833  0.999974958502257  1.0000
  O   O2        1.0  0.5580526409451778  0.6760228275350855  0.945387548250018  1.0000
  O   O3        1.0  0.26941646738570313  0.3873648614391101  0.8240337923892724  1.0000
  O   O4        1.0  0.43666514172705473  0.5546059247167392  0.11263349083041879  1.0000
  O   O5        1.0  0.44198956266469486  0.5546457012038531  0.8240276451974468  1.0000
  O   O6        1.0  0.5633494991084333  0.6759929740206232  0.11796576755961756  1.0000
  O   O7        1.0  0.269403271361  0.3820407683963793  0.9454015544831262  1.0000
  O   O8        1.0  0.4419126513656906  0.38733729299482883  0.11796607387859835  1.0000
  O   O9        1.0  0.7306142458947491  0.5546120442814979  0.1179315844258326  1.0000
  O   O10       1.0  0.5580371105844648  0.3820503442960685  0.11265960638683473  1.0000
  O   O11       1.0  0.7306353353317335  0.6760492425729582  0.11264746865134613  1.0000
  O   O12       1.0  0.4366586857658418  0.38202745708145597  0.8240274688118844  1.0000
  O   O13       1.0  0.563317118729131  0.3873214607824522  0.945394003361585  1.0000
  O   O14       1.0  0.5000100008752144  0.9999976223864311  0.5000156761248107  1.0000
  O   O15       1.0  0.4419640662453404  0.8239805544329287  0.3873601720010456  1.0000
  O   O16       1.0  0.7306215482839207  0.11265585602463801  0.5546141852717668  1.0000
  O   O17       1.0  0.5633756338816838  0.9454122287068146  0.6760309249986421  1.0000
  O   O18       1.0  0.5580968370460226  0.9453902302448043  0.3820829185238778  1.0000
  O   O19       1.0  0.4366486256694061  0.823986893797887  0.5545942103486753  1.0000
  O   O20       1.0  0.7306141540513733  0.11794795393080186  0.6760391644073562  1.0000
  O   O21       1.0  0.5580099618765999  0.1126333854436012  0.6759662988582136  1.0000
  O   O22       1.0  0.26937320008974536  0.9454263149528471  0.38733733411959986  1.0000
  O   O23       1.0  0.44191942940512513  0.11794745243171426  0.5545918820688484  1.0000
  O   O24       1.0  0.26940007106106373  0.8240100769458322  0.382053848026544  1.0000
  O   O25       1.0  0.5633191432323342  0.11793102459401437  0.38734884814476794  1.0000
  O   O26       1.0  0.43666007224997827  0.11265312005644997  0.38205810761292014  1.0000
