data_image0
_chemical_formula_structural       Zn6P4H24C8S4O24
_chemical_formula_sum              "Zn6 P4 H24 C8 S4 O24"
_cell_length_a       5.43741777371251
_cell_length_b       6.059896048393808
_cell_length_c       23.84385828735131
_cell_angle_alpha    94.56248628184696
_cell_angle_beta     89.992595836964
_cell_angle_gamma    116.66653345135926

_space_group_name_H-M_alt    "P 1"
_space_group_IT_number       1

loop_
  _space_group_symop_operation_xyz
  'x, y, z'

loop_
  _atom_site_type_symbol
  _atom_site_label
  _atom_site_symmetry_multiplicity
  _atom_site_fract_x
  _atom_site_fract_y
  _atom_site_fract_z
  _atom_site_occupancy
  Zn  Zn1       1.0  0.7324198040896308  0.000120936288333  0.250015821657783  1.0000
  Zn  Zn2       1.0  0.26757978252447867  0.9998771152194196  0.7499849716804688  1.0000
  Zn  Zn3       1.0  0.7553198941898814  0.5440939208006839  0.2975642924307563  1.0000
  Zn  Zn4       1.0  0.21129972496194685  0.456046243656708  0.2024603326678474  1.0000
  Zn  Zn5       1.0  0.24469074235937432  0.45590784034858  0.7024390920164691  1.0000
  Zn  Zn6       1.0  0.7886897084506614  0.5439425373020158  0.7975394348709841  1.0000
  P   P1        1.0  0.2818224427352832  0.048897339240866707  0.334760644355157  1.0000
  P   P2        1.0  0.2332329524201454  0.9514769808522274  0.165296210328485  1.0000
  P   P3        1.0  0.7181781166164215  0.9511136887022148  0.665238313951768  1.0000
  P   P4        1.0  0.7667795239532182  0.04852477761825473  0.8347004637163167  1.0000
  H   H1        1.0  0.4747575490226127  0.16343949749797562  0.4305694484293028  1.0000
  H   H2        1.0  0.31134247514420116  0.8366968038561213  0.06942231344241628  1.0000
  H   H3        1.0  0.5252319445766318  0.8365641160068267  0.5694339736980396  1.0000
  H   H4        1.0  0.6886524758748964  0.16329197715198523  0.9305766152322761  1.0000
  H   H5        1.0  0.12421787522363563  0.11504846620887582  0.4266724524334932  1.0000
  H   H6        1.0  0.009128260639890648  0.8849718555368828  0.0734403003072188  1.0000
  H   H7        1.0  0.8757817111471127  0.8849495863535425  0.5733308572973428  1.0000
  H   H8        1.0  0.9908676172467354  0.11501878066096789  0.9265616015725299  1.0000
  H   H9        1.0  0.3793055272895104  0.5248766448511618  0.4600850263783869  1.0000
  H   H10       1.0  0.8542441531803533  0.4756203106773143  0.039909216500682  1.0000
  H   H11       1.0  0.6207060667884505  0.4751343853000165  0.5399172869854425  1.0000
  H   H12       1.0  0.14573245203870755  0.5243795898883479  0.9600840653621318  1.0000
  H   H13       1.0  0.6110837440032316  0.8515244617822622  0.4606211852692966  1.0000
  H   H14       1.0  0.7595491401495383  0.1490529095535678  0.0393883427081008  1.0000
  H   H15       1.0  0.3889232598630486  0.14848842122417244  0.5393794879797795  1.0000
  H   H16       1.0  0.24044307520415495  0.8509414311737589  0.9606065042866591  1.0000
  H   H17       1.0  0.48750124363534314  0.6617991090421642  0.3944019245858925  1.0000
  H   H18       1.0  0.8256353017242692  0.3387629640259961  0.10561562208774689  1.0000
  H   H19       1.0  0.5125066420801758  0.3382045042171172  0.6055977227305576  1.0000
  H   H20       1.0  0.1743588135995964  0.6612462067444015  0.8943765884918662  1.0000
  H   H21       1.0  0.10922327603974948  0.38175128236365224  0.3021233882038743  1.0000
  H   H22       1.0  0.7276763836999295  0.6185611412002457  0.19791611662191136  1.0000
  H   H23       1.0  0.890781843268073  0.6182504771542342  0.6978770605186071  1.0000
  H   H24       1.0  0.2723250420081841  0.381436910792708  0.8020855154916616  1.0000
  C   C1        1.0  0.26865310564800643  0.044899929764078216  0.4111597793292177  1.0000
  C   C2        1.0  0.22382953830412344  0.9551112391766952  0.0888854366015011  1.0000
  C   C3        1.0  0.7313511770316765  0.9551222235589663  0.5888435974697472  1.0000
  C   C4        1.0  0.7761654276805106  0.04488125031949151  0.9111152445178518  1.0000
  C   C5        1.0  0.4397248663943857  0.6921025413001873  0.438002741836037  1.0000
  C   C6        1.0  0.7475697390470091  0.30843555609015993  0.0620160245411867  1.0000
  C   C7        1.0  0.5602701601013679  0.3079047793358641  0.56199823868171  1.0000
  C   C8        1.0  0.25242157953248073  0.6915643457204582  0.9379776765427863  1.0000
  S   S1        1.0  0.14860370484421287  0.7486376589724487  0.4381728751437776  1.0000
  S   S2        1.0  0.39972561613211616  0.2514072156780714  0.0618370359351488  1.0000
  S   S3        1.0  0.8513958217049552  0.2513455594618891  0.5618230054096713  1.0000
  S   S4        1.0  0.6002629050945816  0.748583419809414  0.9381644466346373  1.0000
  O   O1        1.0  0.3928370004405084  0.32692921622192744  0.32553781835728296  1.0000
  O   O2        1.0  0.06633234894889026  0.6734540367486661  0.17455981581229452  1.0000
  O   O3        1.0  0.6071819501351285  0.6730818153427196  0.6744665919115604  1.0000
  O   O4        1.0  0.9336626018674041  0.326534745138332  0.8254412098562228  1.0000
  O   O5        1.0  0.9781482051723462  0.909495016090361  0.3125623064783341  1.0000
  O   O6        1.0  0.06866882774365733  0.09069546507554804  0.18745176374438438  1.0000
  O   O7        1.0  0.021854193111117606  0.09051601304102523  0.6874391681989707  1.0000
  O   O8        1.0  0.9313409119097077  0.9093118576843371  0.8125517329883394  1.0000
  O   O9        1.0  0.46054146804659984  0.9292275811948159  0.31362233528581374  1.0000
  O   O10       1.0  0.5316693295084679  0.07158556566059811  0.1864486612014886  1.0000
  O   O11       1.0  0.5394636962795119  0.07078530325996013  0.6863821125743428  1.0000
  O   O12       1.0  0.4683477065776387  0.9284069254393472  0.8135520196514463  1.0000
  O   O13       1.0  0.07833276152875608  0.7775848536387858  0.49642880597468053  1.0000
  O   O14       1.0  0.3007286571121953  0.22236429201137758  0.0035726569299257007  1.0000
  O   O15       1.0  0.9216668097547684  0.2224094909628819  0.503574009507787  1.0000
  O   O16       1.0  0.6992469146553547  0.7776078018579752  0.9964242575596387  1.0000
  O   O17       1.0  0.9329346203627227  0.5598873642131396  0.40011249080984607  1.0000
  O   O18       1.0  0.3722400611564823  0.43997890798398503  0.0998605015315732  1.0000
  O   O19       1.0  0.06707233828246473  0.44011439473528224  0.5998862802953724  1.0000
  O   O20       1.0  0.6277493877895142  0.5600135790019396  0.9001351468692177  1.0000
  O   O21       1.0  0.9746431892628495  0.3733890883015363  0.2730259817841159  1.0000
  O   O22       1.0  0.6012942964620437  0.6268120384173275  0.22699162474947335  1.0000
  O   O23       1.0  0.025366565721107303  0.6266219413644338  0.7269754928043852  1.0000
  O   O24       1.0  0.39871174979442275  0.3731915759387477  0.7730109583805245  1.0000
