data_image0
_chemical_formula_structural       Zn4H32C48N8O20
_chemical_formula_sum              "Zn4 H32 C48 N8 O20"
_cell_length_a       8.249749094
_cell_length_b       12.033369742965947
_cell_length_c       12.62
_cell_angle_alpha    98.79552816421477
_cell_angle_beta     90.0
_cell_angle_gamma    90.0

_space_group_name_H-M_alt    "P 1"
_space_group_IT_number       1

loop_
  _space_group_symop_operation_xyz
  'x, y, z'

loop_
  _atom_site_type_symbol
  _atom_site_label
  _atom_site_symmetry_multiplicity
  _atom_site_fract_x
  _atom_site_fract_y
  _atom_site_fract_z
  _atom_site_occupancy
  Zn  Zn1       1.0  0.9269409181864248  0.5198790939465354  0.6939636427904362  1.0000
  Zn  Zn2       1.0  0.426941469354702  0.9801207609962717  0.8060355832867218  1.0000
  Zn  Zn3       1.0  0.0730567673189384  0.4801216502599318  0.30603622799760904  1.0000
  Zn  Zn4       1.0  0.5730586404668188  0.0198783013876707  0.1939640422901263  1.0000
  H   H1        1.0  0.182478276956914  0.5529790431500317  0.5794338597661906  1.0000
  H   H2        1.0  0.6824777257886367  0.9470208117927754  0.9205661587039913  1.0000
  H   H3        1.0  0.817523045022682  0.44702170105644273  0.42056601102184743  1.0000
  H   H4        1.0  0.3175235961909593  0.0529790915024293  0.07943438187147932  1.0000
  H   H5        1.0  0.0449565187709453  0.6255000715342193  0.5385566172839518  1.0000
  H   H6        1.0  0.5449559676026681  0.8745006243198505  0.9614435237918286  1.0000
  H   H7        1.0  0.9550448032086507  0.37450151358351763  0.4614441685027161  1.0000
  H   H8        1.0  0.4550441422188526  0.12549927897535443  0.03855622439061791  1.0000
  H   H9        1.0  0.5722149784450181  0.31664429583421594  0.03619554047900661  1.0000
  H   H10       1.0  0.0722155296132954  0.1833556558133864  0.4638055222017599  1.0000
  H   H11       1.0  0.4277851313765026  0.6833556074609889  0.9638065848825264  1.0000
  H   H12       1.0  0.9277833680501502  0.8166450883930809  0.5361951409793094  1.0000
  H   H13       1.0  0.700924347409007  0.5061772857985289  0.07475988503251331  1.0000
  H   H14       1.0  0.20092247426113363  0.993824250966803  0.4252403786488658  1.0000
  H   H15       1.0  0.2990781867286714  0.4938226174966759  0.9252390707569094  1.0000
  H   H16       1.0  0.7990752112442365  0.0061773341509266  0.5747611995308263  1.0000
  H   H17       1.0  0.7620983290961618  0.28739151566699667  0.7153028843556158  1.0000
  H   H18       1.0  0.2621000924225214  0.2126084359806057  0.7846973859321198  1.0000
  H   H19       1.0  0.2378993564092013  0.7126083876282081  0.28469765621985493  1.0000
  H   H20       1.0  0.737902441715157  0.7873923082258686  0.21530248485592554  1.0000
  H   H21       1.0  0.8225341065142471  0.6580601557057335  0.09468583937556473  1.0000
  H   H22       1.0  0.3225322333663669  0.8419380174145419  0.40531393388342724  1.0000
  H   H23       1.0  0.17746721546535574  0.3419397475894713  0.9053123240208266  1.0000
  H   H24       1.0  0.6774642399809208  0.1580602040581311  0.5946871538738847  1.0000
  H   H25       1.0  0.9747096436967125  0.8405976048585162  0.10504718519198522  1.0000
  H   H26       1.0  0.474706558390757  0.6594014091730288  0.3949535030656294  1.0000
  H   H27       1.0  0.025294102599041  0.1594006166141639  0.8949523177792714  1.0000
  H   H28       1.0  0.5252911271146132  0.3405984941221761  0.6050470375098485  1.0000
  H   H29       1.0  0.0930707093332614  0.7481402522093887  0.7713243503206827  1.0000
  H   H30       1.0  0.5930713703230595  0.7518596027334186  0.7286764605425307  1.0000
  H   H31       1.0  0.9069306126463417  0.251859651085816  0.22867539786176397  1.0000
  H   H32       1.0  0.4069299516565366  0.24814030056178646  0.2713240800329473  1.0000
  C   C1        1.0  0.593997459094119  0.16937718785927566  0.8421652306894887  1.0000
  C   C2        1.0  0.0939992224204715  0.3306227637883268  0.657835831991271  1.0000
  C   C3        1.0  0.4060014385693265  0.8306218745246596  0.1578367720664389  1.0000
  C   C4        1.0  0.9060020995591243  0.66937882132941  0.34216495379539685  1.0000
  C   C5        1.0  0.6591448949586719  0.2858576935200787  0.872666414982632  1.0000
  C   C6        1.0  0.1591442339688669  0.2141422581275236  0.6273330629120794  1.0000
  C   C7        1.0  0.3408552148628559  0.7141422097751261  0.1273333331998217  1.0000
  C   C8        1.0  0.8408558758526539  0.7858593269902059  0.37266613808853327  1.0000
  C   C9        1.0  0.6399394623819106  0.3502883146260061  0.9740430230530919  1.0000
  C   C10       1.0  0.1399388013921126  0.1497124779328587  0.5259573698402349  1.0000
  C   C11       1.0  0.3600618595976925  0.6497107477579293  0.025957394916787287  1.0000
  C   C12       1.0  0.8600613084294153  0.8502891071848782  0.47404262355340177  1.0000
  C   C13       1.0  0.710011896514537  0.4567190897616555  0.995091626164431  1.0000
  C   C14       1.0  0.21001244768281416  0.0432817027972092  0.504908766728903  1.0000
  C   C15       1.0  0.2899870011489085  0.5432808135335492  0.004908122018022697  1.0000
  C   C16       1.0  0.7899864499806313  0.9567190414092581  0.4950918964521663  1.0000
  C   C17       1.0  0.7930156330158056  0.49863683448742796  0.9124964553022751  1.0000
  C   C18       1.0  0.2930161841840828  0.0013639580714440004  0.5875031451980349  1.0000
  C   C19       1.0  0.2069832646476328  0.5013622278965145  0.08750237788154892  1.0000
  C   C20       1.0  0.7069827134793556  0.9986376270462928  0.41249684819560883  1.0000
  C   C21       1.0  0.7435971603623202  0.3341781366157335  0.7952757615388178  1.0000
  C   C22       1.0  0.24359771153059737  0.1658226559431384  0.7047246313545161  1.0000
  C   C23       1.0  0.2564017373011254  0.665820925768209  0.20472386403803713  1.0000
  C   C24       1.0  0.7564036104490057  0.8341797700858609  0.29527548464471925  1.0000
  C   C25       1.0  0.8746556916801183  0.6093032796636706  0.9258115926865358  1.0000
  C   C26       1.0  0.3746586671645531  0.8906982571016686  0.5741878786018121  1.0000
  C   C27       1.0  0.12534078166716964  0.390698305454066  0.0741860235280214  1.0000
  C   C28       1.0  0.6253390183408172  0.1093008052822739  0.4258141241541227  1.0000
  C   C29       1.0  0.879303105748491  0.6818831718363967  0.02355941437092918  1.0000
  C   C30       1.0  0.379302444758693  0.8181166831064105  0.4764406040992527  1.0000
  C   C31       1.0  0.1206957919149545  0.31811757237007754  0.9764388716310606  1.0000
  C   C32       1.0  0.620694028588602  0.18188153836626245  0.5235612760510833  1.0000
  C   C33       1.0  0.9652972362264691  0.7821054991043184  0.030277305316197104  1.0000
  C   C34       1.0  0.4652929387624383  0.7178935149272263  0.4697217981553621  1.0000
  C   C35       1.0  0.0347052979112092  0.21789272236835444  0.9697214052620283  1.0000
  C   C36       1.0  0.5347023224267744  0.282105547456716  0.5302778274214859  1.0000
  C   C37       1.0  0.0458377576931426  0.8076851788670611  0.9398261793115381  1.0000
  C   C38       1.0  0.5458347822087077  0.6923138351644839  0.5601721317669971  1.0000
  C   C39       1.0  0.9541635642864534  0.19231388351688145  0.060172653872285806  1.0000
  C   C40       1.0  0.4541641154547307  0.3076852272194586  0.439826701416827  1.0000
  C   C41       1.0  0.0328143313106182  0.732046892424407  0.8443162762590434  1.0000
  C   C42       1.0  0.5328113558261904  0.7679512806958755  0.6556834969999488  1.0000
  C   C43       1.0  0.9671882028270602  0.2679521699595355  0.1556825569247806  1.0000
  C   C44       1.0  0.4671875418372551  0.23204694077680443  0.34431679836433204  1.0000
  C   C45       1.0  0.1551332028910792  0.9086601217169417  0.9460420748478597  1.0000
  C   C46       1.0  0.6551314395647267  0.5913397332258654  0.5539579436223221  1.0000
  C   C47       1.0  0.8448693312465991  0.09133894066699362  0.053957550728988224  1.0000
  C   C48       1.0  0.3448674580987188  0.4086610109806088  0.446041927165723  1.0000
  N   N1        1.0  0.8053966156173615  0.43746558544370373  0.8138391235717537  1.0000
  N   N2        1.0  0.305398378943714  0.062535207115161  0.6861612693215806  1.0000
  N   N3        1.0  0.1945998577299264  0.562534317851501  0.18616062461069305  1.0000
  N   N4        1.0  0.6946005187197244  0.9374655370913061  0.3138386014664647  1.0000
  N   N5        1.0  0.9499949526586207  0.6357465752953217  0.8376139579056598  1.0000
  N   N6        1.0  0.4499955038268979  0.8642532796474853  0.6623860605645293  1.0000
  N   N7        1.0  0.0500063693209825  0.3642533279998831  0.16238420549073854  1.0000
  N   N8        1.0  0.5500070303107805  0.1357466236477194  0.3376152724039729  1.0000
  O   O1        1.0  0.4795636758065029  0.13765633312998923  0.9009436304717511  1.0000
  O   O2        1.0  0.9795655489543761  0.36234445942887566  0.5990575548146069  1.0000
  O   O3        1.0  0.5204352218569426  0.8623427292539462  0.09905757989115223  1.0000
  O   O4        1.0  0.0204345608671446  0.6376579666001234  0.4009441459706835  1.0000
  O   O5        1.0  0.6468439147902174  0.10872562197717882  0.7594885820536774  1.0000
  O   O6        1.0  0.14684567811656984  0.391275170581686  0.7405118108396564  1.0000
  O   O7        1.0  0.35315377071515286  0.8912734404067635  0.24051183591620887  1.0000
  O   O8        1.0  0.8531556438630261  0.6087272554473131  0.2594890975526027  1.0000
  O   O9        1.0  0.217953295247213  0.9230237270303123  0.8563217209906426  1.0000
  O   O10       1.0  0.717953956237011  0.576976127912495  0.6436775050865222  1.0000
  O   O11       1.0  0.7820480267323902  0.0769761762648926  0.14367802719181103  1.0000
  O   O12       1.0  0.28204736574258493  0.4230237753827097  0.3563206583098762  1.0000
  O   O13       1.0  0.1779496543801216  0.9656839964028663  0.036860167446057794  1.0000
  O   O14       1.0  0.6779466788956867  0.5343158585399408  0.463139851024131  1.0000
  O   O15       1.0  0.8220540919156321  0.034315065981068905  0.9631394581307975  1.0000
  O   O16       1.0  0.3220510066096836  0.46568320384400164  0.5368589821596998  1.0000
  O   O17       1.0  0.0884839031687505  0.6044957899630391  0.6060116073694531  1.0000
  O   O18       1.0  0.5884833520004733  0.8955049058910377  0.8939893260993514  1.0000
  O   O19       1.0  0.9115174188108455  0.3955041133321658  0.39398893320601763  1.0000
  O   O20       1.0  0.4115167578210475  0.10449583831543663  0.1060113370817177  1.0000
