data_image0
_chemical_formula_structural       Cd8H56C16S4O60
_chemical_formula_sum              "Cd8 H56 C16 S4 O60"
_cell_length_a       8.083895221
_cell_length_b       9.278182703
_cell_length_c       20.946
_cell_angle_alpha    90.0
_cell_angle_beta     90.0
_cell_angle_gamma    90.0

_space_group_name_H-M_alt    "P 1"
_space_group_IT_number       1

loop_
  _space_group_symop_operation_xyz
  'x, y, z'

loop_
  _atom_site_type_symbol
  _atom_site_label
  _atom_site_symmetry_multiplicity
  _atom_site_fract_x
  _atom_site_fract_y
  _atom_site_fract_z
  _atom_site_occupancy
  Cd  Cd1       1.0  0.4801843534433915  0.4129203015975591  0.2836474744581281  1.0000
  Cd  Cd2       1.0  0.019798623760515  0.5870826404656526  0.7836479518762544  1.0000
  Cd  Cd3       1.0  0.5198088155675293  0.9129115335550892  0.2163520481237455  1.0000
  Cd  Cd4       1.0  0.9801821749762638  0.0870838639272264  0.7163487061968894  1.0000
  Cd  Cd5       1.0  0.6342326143318999  0.3818689622111435  0.0091420796333423  1.0000
  Cd  Cd6       1.0  0.8657806427053389  0.6181318242575244  0.50914446672396  1.0000
  Cd  Cd7       1.0  0.365777873062811  0.8818655831550258  0.4908593526210225  1.0000
  Cd  Cd8       1.0  0.1342323187442034  0.1181319699218264  0.9908583977847769  1.0000
  H   H1        1.0  0.4758003282883011  0.6379826944004918  0.37853193927241335  1.0000
  H   H2        1.0  0.024190071080092  0.3620170142709043  0.8785319392724134  1.0000
  H   H3        1.0  0.5241878926129644  0.1379871512538813  0.1214699704000779  1.0000
  H   H4        1.0  0.9758006238759978  0.8620179464038742  0.6214690155638323  1.0000
  H   H5        1.0  0.6500121360244435  0.5535329670043438  0.38451398835099576  1.0000
  H   H6        1.0  0.8499813285741737  0.44646674166705225  0.8845139883509958  1.0000
  H   H7        1.0  0.349978558931646  0.0535352682631896  0.1154898309939867  1.0000
  H   H8        1.0  0.1500155515189832  0.9464622848136629  0.6154874439033691  1.0000
  H   H9        1.0  0.5987967270314556  0.5533529748600401  0.8719402272510237  1.0000
  H   H10       1.0  0.9012016856768241  0.4466510450004435  0.371942136923515  1.0000
  H   H11       1.0  0.4011976790068772  0.0533477315379827  0.6280602501670955  1.0000
  H   H12       1.0  0.09879024630668452  0.9466465881470613  0.1280631146758324  1.0000
  H   H13       1.0  0.5963263832857635  0.3876578113553464  0.8598720519430927  1.0000
  H   H14       1.0  0.9036670813128538  0.6123397417215131  0.35987061968872064  1.0000
  H   H15       1.0  0.4036692597799814  0.8876565878937724  0.6401289028931529  1.0000
  H   H16       1.0  0.0963223766158237  0.1123409651830798  0.1401322448200162  1.0000
  H   H17       1.0  0.7741132002482658  0.4951077325212268  0.20733361978420817  1.0000
  H   H18       1.0  0.7258802643503515  0.5048865871638171  0.7073326649479625  1.0000
  H   H19       1.0  0.2258873909271344  0.9951118980460122  0.2926668576339182  1.0000
  H   H20       1.0  0.2741116676331572  0.0048878106253838  0.7926682898882831  1.0000
  H   H21       1.0  0.8112376299687798  0.3586639869598613  0.252766160603457  1.0000
  H   H22       1.0  0.6887521235475944  0.6413281771306387  0.7527642509309658  1.0000
  H   H23       1.0  0.1887629612066206  0.8586606079037438  0.2472357490690342  1.0000
  H   H24       1.0  0.311237334381083  0.1413337117812929  0.747233839396543  1.0000
  H   H25       1.0  0.836656069270937  0.572923617712469  0.084812374677746  1.0000
  H   H26       1.0  0.6633534766840583  0.4270739353643904  0.5848085553327635  1.0000
  H   H27       1.0  0.1633519440689426  0.0729269967685795  0.4151904898309908  1.0000
  H   H28       1.0  0.3366557736832405  0.9270716341055447  0.9151904898309908  1.0000
  H   H29       1.0  0.9440585004336484  0.4624547863896495  0.0456005919984719  1.0000
  H   H30       1.0  0.5559559936310094  0.5375449222817466  0.5456005919984719  1.0000
  H   H31       1.0  0.0559507499336505  0.9624557185226196  0.454402272510265  1.0000
  H   H32       1.0  0.4440569678185327  0.0375461457433204  0.9543989305834018  1.0000
  H   H33       1.0  0.7890305138332749  0.2037015286828634  0.10644084789458928  1.0000
  H   H34       1.0  0.7109629507653423  0.7962820130294617  0.606438938222098  1.0000
  H   H35       1.0  0.2109651292324699  0.7037100053967293  0.3935605843597827  1.0000
  H   H36       1.0  0.2890314552729905  0.2962929366664824  0.893559629523537  1.0000
  H   H37       1.0  0.7028097030798932  0.3128349691865324  0.154512556096627  1.0000
  H   H38       1.0  0.7971862355735482  0.6871593504985114  0.6545111238422621  1.0000
  H   H39       1.0  0.297190888095507  0.8128412903058546  0.3454883987396187  1.0000
  H   H40       1.0  0.2028069334373654  0.1871594961628134  0.8454879213214924  1.0000
  H   H41       1.0  0.4867566800937908  0.6554440879929686  0.0734813329513955  1.0000
  H   H42       1.0  0.0132473265761561  0.3445469983002525  0.5734889716413605  1.0000
  H   H43       1.0  0.5132414370267853  0.1554496226436299  0.42651532512174123  1.0000
  H   H44       1.0  0.9867569756814873  0.8445490082304943  0.9265105509405132  1.0000
  H   H45       1.0  0.2566386554108959  0.3210068280975946  0.1902530316050814  1.0000
  H   H46       1.0  0.2433591661219765  0.6789928805738015  0.6902558961138183  1.0000
  H   H47       1.0  0.7433681209015788  0.8210088380278364  0.3097488780674098  1.0000
  H   H48       1.0  0.7566265807244577  0.179004882008087  0.8097388522868342  1.0000
  H   H49       1.0  0.2111086244124891  0.604385597859249  0.06032464432350079  1.0000
  H   H50       1.0  0.288899093339694  0.395615188609419  0.5603346701040763  1.0000
  H   H51       1.0  0.7888944408177423  0.1043932881044469  0.4396715363315167  1.0000
  H   H52       1.0  0.711112631082429  0.8956215097287483  0.9396691492409062  1.0000
  H   H53       1.0  0.1657233256215136  0.5294204864506185  0.1630884178363416  1.0000
  H   H54       1.0  0.3343017105144668  0.470583533409858  0.6630965339444259  1.0000
  H   H55       1.0  0.8343020061021633  0.029426021101279797  0.3369091950730478  1.0000
  H   H56       1.0  0.6657038287705959  0.9705973991100905  0.8369077628186757  1.0000
  C   C1        1.0  0.2531019940343668  0.3800862855243992  0.0459653394442867  1.0000
  C   C2        1.0  0.2469131458823028  0.6199004895797415  0.545959610426813  1.0000
  C   C3        1.0  0.7469159155248306  0.8801055402109837  0.45404134440943267  1.0000
  C   C4        1.0  0.7531010525946513  0.11992219118946681  0.9540274992838746  1.0000
  C   C5        1.0  0.3027043192795489  0.5228448452983656  0.0750305547598558  1.0000
  C   C6        1.0  0.1973157687467761  0.477166719143014  0.5750300773417365  1.0000
  C   C7        1.0  0.6973148273070606  0.0228396019763082  0.4249742194213724  1.0000
  C   C8        1.0  0.8027021408124213  0.9771622622896318  0.9249603742958072  1.0000
  C   C9        1.0  0.2958388171320437  0.5117834119029183  0.1490298863744854  1.0000
  C   C10       1.0  0.2041713746749707  0.4882313859302769  0.6490480282631523  1.0000
  C   C11       1.0  0.7041741443174985  0.011769546202693  0.3509572233361951  1.0000
  C   C12       1.0  0.7958230313633621  0.9882236956850718  0.8509596104268127  1.0000
  C   C13       1.0  0.392677034179485  0.637453495940278  0.1782559915974389  1.0000
  C   C14       1.0  0.1073430538468401  0.3625419015420306  0.6782555141793196  1.0000
  C   C15       1.0  0.6073445864619558  0.1374557971991237  0.3217444858206804  1.0000
  C   C16       1.0  0.892626611643216  0.8625363668913764  0.8217420987300699  1.0000
  S   S1        1.0  0.1003637451772477  0.2614854737895556  0.2958774945096891  1.0000
  S   S2        1.0  0.399637787437868  0.7385196238681999  0.7958779719278154  1.0000
  S   S3        1.0  0.8996442681626391  0.7614713167607263  0.20412202807218446  1.0000
  S   S4        1.0  0.6003566186004647  0.2385133027488706  0.7041201183996932  1.0000
  O   O1        1.0  0.21243224374543251  0.3824703730885375  0.3135863649384163  1.0000
  O   O2        1.0  0.2875680518422713  0.6175422691501211  0.8135882746109074  1.0000
  O   O3        1.0  0.787585665813765  0.8824540604651645  0.1864188866609382  1.0000
  O   O4        1.0  0.7124263541960616  0.1175359480307918  0.6864117253890925  1.0000
  O   O5        1.0  0.14594325727220794  0.1277319102173777  0.3320170915687939  1.0000
  O   O6        1.0  0.35404837912359  0.8722634872649379  0.832020433495657  1.0000
  O   O7        1.0  0.8540499117387057  0.6277285311612602  0.1679814761768341  1.0000
  O   O8        1.0  0.6459423158324995  0.3722582439428805  0.6679795665043429  1.0000
  O   O9        1.0  0.1100979138977394  0.23205945268827577  0.22563878544829657  1.0000
  O   O10       1.0  0.3898813522239237  0.7679456449694797  0.7256402177026615  1.0000
  O   O11       1.0  0.8898779367293841  0.7320582292267019  0.2743607371335841  1.0000
  O   O12       1.0  0.6101006835402671  0.267942557241966  0.7743607371335841  1.0000
  O   O13       1.0  0.927885604023466  0.3041500787743203  0.3136646615105505  1.0000
  O   O14       1.0  0.5721140457122189  0.6958388519243641  0.8136665711830418  1.0000
  O   O15       1.0  0.072122409316421  0.8041542442991059  0.1863348610713231  1.0000
  O   O16       1.0  0.4278741751890394  0.195847619966834  0.686330086890095  1.0000
  O   O17       1.0  0.5306439386864454  0.5429166638819538  0.3760641649957037  1.0000
  O   O18       1.0  0.969351999966996  0.4570852003839859  0.8760670295044406  1.0000
  O   O19       1.0  0.4693492303244682  0.0429189651407995  0.12393631242242259  1.0000
  O   O20       1.0  0.0306436430987489  0.9570807435306037  0.6239348801680507  1.0000
  O   O21       1.0  0.6247248216281633  0.4590273910668827  0.892783825073998  1.0000
  O   O22       1.0  0.8752723540526972  0.5409744731990571  0.3927857347464894  1.0000
  O   O23       1.0  0.3752732954924056  0.9590207786189565  0.6072166523441211  1.0000
  O   O24       1.0  0.12471339279373689  0.040974618863352  0.10721999427098439  1.0000
  O   O25       1.0  0.7268377235687566  0.4005471889229284  0.2227489735510346  1.0000
  O   O26       1.0  0.7731495558927932  0.5994449751675717  0.722749450969161  1.0000
  O   O27       1.0  0.2731641046340556  0.9005459654613545  0.2772529361214566  1.0000
  O   O28       1.0  0.2268337168988168  0.099449432020954  0.7772515038670846  1.0000
  O   O29       1.0  0.8465906364324951  0.5278070239354733  0.0418886660937616  1.0000
  O   O30       1.0  0.6534226206047435  0.47219591812773837  0.5418858015850248  1.0000
  O   O31       1.0  0.1534186139348037  0.0278104029915838  0.4581137209968489  1.0000
  O   O32       1.0  0.3465928148996227  0.9721925390716278  0.9581132435787225  1.0000
  O   O33       1.0  0.6896489684227163  0.2619273706707901  0.1119354530697976  1.0000
  O   O34       1.0  0.8103494442855563  0.7380680268115185  0.6119364079060432  1.0000
  O   O35       1.0  0.3103503857252647  0.76192830280376  0.38806597918456737  1.0000
  O   O36       1.0  0.18964867283501977  0.23807032807036424  0.888065501766448  1.0000
  O   O37       1.0  0.3598129268726709  0.3030119248558165  0.0170271173493717  1.0000
  O   O38       1.0  0.1401960279069314  0.6969823948292202  0.5170357108755823  1.0000
  O   O39       1.0  0.6402099307961819  0.8030301017451293  0.4829733600687476  1.0000
  O   O40       1.0  0.8597983781314014  0.1969803848989784  0.9829714503962563  1.0000
  O   O41       1.0  0.1040983309400048  0.3393164481425899  0.0519994270982522  1.0000
  O   O42       1.0  0.3959081497847663  0.6606778715424468  0.5520070657882172  1.0000
  O   O43       1.0  0.8959183415917735  0.8393281582482786  0.44799675355676527  1.0000
  O   O44       1.0  0.6040887303083977  0.1606909507740042  0.9479948438842739  1.0000
  O   O45       1.0  0.4620173688418988  0.563377567280483  0.051033610235847994  1.0000
  O   O46       1.0  0.0380027191844263  0.43661998579636924  0.5510445908526691  1.0000
  O   O47       1.0  0.5380054888269541  0.063377712944785  0.4489554091473309  1.0000
  O   O48       1.0  0.9620151903747711  0.9366252291184268  0.9489525446385939  1.0000
  O   O49       1.0  0.3539692093690974  0.3774920274923588  0.1731910627327409  1.0000
  O   O50       1.0  0.1460112937799778  0.6225249259353802  0.673197269168341  1.0000
  O   O51       1.0  0.6460227226144042  0.8774746370717139  0.3268075050128871  1.0000
  O   O52       1.0  0.8539645568471457  0.12251644922151432  0.8267984340685571  1.0000
  O   O53       1.0  0.4178814677390292  0.746960932097096  0.1428802635348063  1.0000
  O   O54       1.0  0.0821250129857418  0.2530344653852197  0.6428955409147363  1.0000
  O   O55       1.0  0.5821265456008575  0.24697724472046187  0.3571101881027374  1.0000
  O   O56       1.0  0.9178372303398277  0.7530343197209177  0.8571120977752286  1.0000
  O   O57       1.0  0.441704141677171  0.6317325480241749  0.2356005919984696  1.0000
  O   O58       1.0  0.0583060501298434  0.3682563826745096  0.7356082306884346  1.0000
  O   O59       1.0  0.5583001605804725  0.1317380826748291  0.2643979757471584  1.0000
  O   O60       1.0  0.9416871188810774  0.868269170577463  0.764397498329039  1.0000
