data_image0
_chemical_formula_structural       Hg2H26C34N10Cl4O4
_chemical_formula_sum              "Hg2 H26 C34 N10 Cl4 O4"
_cell_length_a       8.190477658901054
_cell_length_b       10.263237008099601
_cell_length_c       12.81693203254052
_cell_angle_alpha    106.93759473303822
_cell_angle_beta     105.24190503144682
_cell_angle_gamma    91.67429803843214

_space_group_name_H-M_alt    "P 1"
_space_group_IT_number       1

loop_
  _space_group_symop_operation_xyz
  'x, y, z'

loop_
  _atom_site_type_symbol
  _atom_site_label
  _atom_site_symmetry_multiplicity
  _atom_site_fract_x
  _atom_site_fract_y
  _atom_site_fract_z
  _atom_site_occupancy
  Hg  Hg1       1.0  0.8558049841084311  0.34152680605853186  0.05787687175963189  1.0000
  Hg  Hg2       1.0  0.1441903990362334  0.6584767553734708  0.9421223962345806  1.0000
  H   H1        1.0  0.8207141447178258  0.4090651005716879  0.4972544806082908  1.0000
  H   H2        1.0  0.17927128735020403  0.5909290846770361  0.5027410285943859  1.0000
  H   H3        1.0  0.6987278491088488  0.7799780101410859  0.8985028641789015  1.0000
  H   H4        1.0  0.30129543636717665  0.22003211594403638  0.1015186669384534  1.0000
  H   H5        1.0  0.9034473731978848  0.2620092903884057  0.7982264760761097  1.0000
  H   H6        1.0  0.09655225823336619  0.7379667323194778  0.2017630358442588  1.0000
  H   H7        1.0  0.6620406621020153  0.499738163086043  0.5836308596099329  1.0000
  H   H8        1.0  0.337957781676309  0.500257248071307  0.41637319834139663  1.0000
  H   H9        1.0  0.634609307125629  0.5742543251804121  0.9268145798686263  1.0000
  H   H10       1.0  0.36540354916051143  0.4257208429193113  0.07319628854096293  1.0000
  H   H11       1.0  0.0662612079613112  0.1049943905578417  0.47904275098954946  1.0000
  H   H12       1.0  0.9337411386084186  0.8950164681991167  0.5209530782114341  1.0000
  H   H13       1.0  0.14190958382395283  0.9945138163820603  0.3002063641391716  1.0000
  H   H14       1.0  0.8580806207838235  0.0054917323592462985  0.699782426444628  1.0000
  H   H15       1.0  0.0652636041376695  0.09838369942103499  0.1404277301649586  1.0000
  H   H16       1.0  0.9347284924919137  0.9016269943708367  0.8595633505894611  1.0000
  H   H17       1.0  0.8591963831217557  0.41399206498071084  0.32865795645801643  1.0000
  H   H18       1.0  0.1407807374137349  0.5859968730080141  0.6713319027488183  1.0000
  H   H19       1.0  0.31342655359204497  0.8678278534093878  0.7086883995583974  1.0000
  H   H20       1.0  0.6865863421555501  0.13217189287759368  0.2913197027468399  1.0000
  H   H21       1.0  0.24753043628286517  0.1123134466783711  0.7507294145793679  1.0000
  H   H22       1.0  0.7524571862962545  0.8876787386196056  0.24926283944629546  1.0000
  H   H23       1.0  0.4548186415618644  0.2939790599005788  0.9071965425451295  1.0000
  H   H24       1.0  0.5451650842842214  0.7060120340020289  0.09279563012992748  1.0000
  H   H25       1.0  0.7725149585648908  0.007599587148213499  0.987447141215732  1.0000
  H   H26       1.0  0.22748624673771192  0.9924204327127273  0.012560042296314624  1.0000
  C   C1        1.0  0.824958719305265  0.34205571575179045  0.7826334799769583  1.0000
  C   C2        1.0  0.17503141924476037  0.6579252565897562  0.21735729261895645  1.0000
  C   C3        1.0  0.7938335340631113  0.3685089052124653  0.6782449601289713  1.0000
  C   C4        1.0  0.20616724594461286  0.6314875954882453  0.32175035264865665  1.0000
  C   C5        1.0  0.6967173110895004  0.4747486728158634  0.6632984387108323  1.0000
  C   C6        1.0  0.30326035448296546  0.5252412616377738  0.33670422688553714  1.0000
  C   C7        1.0  0.6414335374091349  0.553367377167838  0.7538248564902046  1.0000
  C   C8        1.0  0.3585893029825158  0.4466294553150405  0.2461887797048661  1.0000
  C   C9        1.0  0.6787964027019768  0.5186654933509872  0.854876959688511  1.0000
  C   C10       1.0  0.3212159622423343  0.48132809003516275  0.14513506577996782  1.0000
  C   C11       1.0  0.8770901399227852  0.28223505091374795  0.5954913850029229  1.0000
  C   C12       1.0  0.12292659218424258  0.7177576327899473  0.4045039355614151  1.0000
  C   C13       1.0  0.9547154608632696  0.2677357799655198  0.41838281712177416  1.0000
  C   C14       1.0  0.04526916108158468  0.7322747758026223  0.5816109750356162  1.0000
  C   C15       1.0  0.040022461771691616  0.1498778306096966  0.4103719020774648  1.0000
  C   C16       1.0  0.9599616952992848  0.8501296571141952  0.5896179709697692  1.0000
  C   C17       1.0  0.08218274449718882  0.0889765819941175  0.3101800077798842  1.0000
  C   C18       1.0  0.9178181015682938  0.9110444951063599  0.6898133229856357  1.0000
  C   C19       1.0  0.040748381962664795  0.1458556506170154  0.22182953356214338  1.0000
  C   C20       1.0  0.9592383507043892  0.8541529105628455  0.778158651141524  1.0000
  C   C21       1.0  0.924198997031567  0.3220938345878963  0.32696489367312154  1.0000
  C   C22       1.0  0.07579347194617009  0.677916834179129  0.6730371643726157  1.0000
  C   C23       1.0  0.547552017614521  0.6728745114035135  0.7396793194782347  1.0000
  C   C24       1.0  0.45248524777588267  0.3271287242133667  0.2603310419758387  1.0000
  C   C25       1.0  0.5462645937231726  0.9179231299197994  0.8463280553301331  1.0000
  C   C26       1.0  0.45374307104338374  0.08207447481772329  0.1536810713855346  1.0000
  C   C27       1.0  0.39818902244068244  0.9488937822850543  0.7778629912218946  1.0000
  C   C28       1.0  0.6018162652664784  0.051107901132517994  0.22213736702246928  1.0000
  C   C29       1.0  0.36308226830776386  0.08464363922416847  0.8006905624218348  1.0000
  C   C30       1.0  0.6369016242971173  0.9153556015071372  0.19931760971367393  1.0000
  C   C31       1.0  0.47736277074550776  0.18650059868259214  0.8885303448075419  1.0000
  C   C32       1.0  0.522632983998875  0.8135070701583017  0.11146683047267203  1.0000
  C   C33       1.0  0.6545480259296071  0.026814987505147794  0.9333192582914123  1.0000
  C   C34       1.0  0.34544905675853943  0.9732029230456473  0.06668444658734524  1.0000
  N   N1        1.0  0.767142949777508  0.4137444102221153  0.8679058524532196  1.0000
  N   N2        1.0  0.23286077804611682  0.5862316573665324  0.13209288901087035  1.0000
  N   N3        1.0  0.8921662840383319  0.33256821885749593  0.5096297405292134  1.0000
  N   N4        1.0  0.1078228125770764  0.6674352314276246  0.4903700881009598  1.0000
  N   N5        1.0  0.9654521155704074  0.261566351460381  0.23157256775778726  1.0000
  N   N6        1.0  0.0345320152784936  0.7384390718341364  0.7684230561998718  1.0000
  N   N7        1.0  0.5944849279802468  0.7858367790232703  0.8346005289806014  1.0000
  N   N8        1.0  0.40552535246393984  0.2141608633805419  0.1654113530311747  1.0000
  N   N9        1.0  0.6209556532579085  0.1570286551243498  0.9526223052771741  1.0000
  N   N10       1.0  0.37903697529760905  0.8429820029177434  0.047384457321982175  1.0000
  Cl  Cl1       1.0  0.058860824791338494  0.2012355181528704  0.9704284213977203  1.0000
  Cl  Cl2       1.0  0.9411550979409499  0.7987694036364984  0.029578252126647386  1.0000
  Cl  Cl3       1.0  0.7454131384872796  0.5362022184595856  0.1671991947358649  1.0000
  Cl  Cl4       1.0  0.2545952694787204  0.46380360109572644  0.8328057465517984  1.0000
  O   O1        1.0  0.9330107447046387  0.17550844774923746  0.608081006342168  1.0000
  O   O2        1.0  0.06698763832586253  0.8244808756463372  0.3919036535149942  1.0000
  O   O3        1.0  0.44384848703547425  0.6684870440970628  0.6482799780904855  1.0000
  O   O4        1.0  0.5561659549820632  0.3315178704778389  0.35172022118628377  1.0000
