data_image0
_chemical_formula_structural       Zn6H18C78N12O24
_chemical_formula_sum              "Zn6 H18 C78 N12 O24"
_cell_length_a       17.051816915460666
_cell_length_b       17.07662545377486
_cell_length_c       17.1033798435731
_cell_angle_alpha    65.97082822731768
_cell_angle_beta     66.09249688540497
_cell_angle_gamma    66.19947187259464

_space_group_name_H-M_alt    "P 1"
_space_group_IT_number       1

loop_
  _space_group_symop_operation_xyz
  'x, y, z'

loop_
  _atom_site_type_symbol
  _atom_site_label
  _atom_site_symmetry_multiplicity
  _atom_site_fract_x
  _atom_site_fract_y
  _atom_site_fract_z
  _atom_site_occupancy
  Zn  Zn1       1.0  0.577210841459774  2.8359182017750424e-05  0.999860610602269  1.0000
  Zn  Zn2       1.0  0.422771199942339  0.9999778696425351  0.00014152523790763328  1.0000
  Zn  Zn3       1.0  0.00021386258227809983  4.866838129659969e-05  0.5767695423125189  1.0000
  Zn  Zn4       1.0  0.9997808996658859  0.9999519735115573  0.4232320314360223  1.0000
  Zn  Zn5       1.0  0.00030502343675209724  0.5770524654834402  0.9997002009442963  1.0000
  Zn  Zn6       1.0  0.9996823737572953  0.42294902078679547  0.00030461459025586755  1.0000
  H   H1        1.0  0.6356616517029606  0.5386273258851518  0.884500718912413  1.0000
  H   H2        1.0  0.1423448473447024  0.44124144572710133  0.5402866601139208  1.0000
  H   H3        1.0  0.36622324033659487  0.11662568418203277  0.4590475799752979  1.0000
  H   H4        1.0  0.6337802064544747  0.8833698805513777  0.540950191151552  1.0000
  H   H5        1.0  0.7285993378298841  0.7287921818306489  0.02549089429171394  1.0000
  H   H6        1.0  0.2713907376846265  0.27121428848936097  0.9745061135444145  1.0000
  H   H7        1.0  0.7284166127640859  0.025411820393131297  0.7285559267684291  1.0000
  H   H8        1.0  0.2715661607632924  0.9746038384708839  0.27145023951111114  1.0000
  H   H9        1.0  0.025668612504126997  0.7281649439005234  0.7282008257639987  1.0000
  H   H10       1.0  0.974344891452553  0.27183348784183864  0.2717910882306144  1.0000
  H   H11       1.0  0.36433308312151524  0.46137522183283153  0.11549131629547554  1.0000
  H   H12       1.0  0.4429086752858921  0.14336693877900322  0.5374097205595163  1.0000
  H   H13       1.0  0.5570961121841834  0.856629519753227  0.46258655379621405  1.0000
  H   H14       1.0  0.8847536491915732  0.6356560816899234  0.5374283995223478  1.0000
  H   H15       1.0  0.11524516109200529  0.36435109129013926  0.46257060697976715  1.0000
  H   H16       1.0  0.5584999617445305  0.46081262726728794  0.8575460047287037  1.0000
  H   H17       1.0  0.4414974470387635  0.5391853088040081  0.1424491652245834  1.0000
  H   H18       1.0  0.8576526341219123  0.5587622807304912  0.4597201445015526  1.0000
  C   C1        1.0  0.5917794591893397  0.5926703589281388  0.02662708543255114  1.0000
  C   C2        1.0  0.022607846236518  0.8289075405713718  0.5631125994149855  1.0000
  C   C3        1.0  0.17079761520952266  0.4359955658922346  0.977918970589009  1.0000
  C   C4        1.0  0.829187781100316  0.5640135385161644  0.022079452165783667  1.0000
  C   C5        1.0  0.022632432414830803  0.5631004589293768  0.8291323136980111  1.0000
  C   C6        1.0  0.9773617201710323  0.4369131957164428  0.17086886411480842  1.0000
  C   C7        1.0  0.8291367097679225  0.02184299719809969  0.5638450836938559  1.0000
  C   C8        1.0  0.1708547980248483  0.9781663287499074  0.4361718057154106  1.0000
  C   C9        1.0  0.5636564038812963  0.8292654065964131  0.022717906430933937  1.0000
  C   C10       1.0  0.43632899755344556  0.17074114191829892  0.9772850676537387  1.0000
  C   C11       1.0  0.5439462495737217  0.5441048354591447  0.015117360691476728  1.0000
  C   C12       1.0  0.4082065843550851  0.40733726277924376  0.9733670023846769  1.0000
  C   C13       1.0  0.45604514656672274  0.4559018796478115  0.9848737465002061  1.0000
  C   C14       1.0  0.5437029640795785  0.01498488999357754  0.5443983835838963  1.0000
  C   C15       1.0  0.4562991399451305  0.9850091403825657  0.4556011471403778  1.0000
  C   C16       1.0  0.0152090468476516  0.5438667557580887  0.5440594617746156  1.0000
  C   C17       1.0  0.9847863719346961  0.4561311286569491  0.4559418027136528  1.0000
  C   C18       1.0  0.4673189584336583  0.5222083016059641  0.07997011721469963  1.0000
  C   C19       1.0  0.5326751050868239  0.47779315918249665  0.9200232208737728  1.0000
  C   C20       1.0  0.5750864883943834  0.9346332038883745  0.5227161657906336  1.0000
  C   C21       1.0  0.424916958396686  0.06536236084503602  0.4772816053362162  1.0000
  C   C22       1.0  0.079892613507667  0.467198035431963  0.5228222433347651  1.0000
  C   C23       1.0  0.5915033627438432  0.02653627609340961  0.5929068563249373  1.0000
  C   C24       1.0  0.9201055158270036  0.5328016503175735  0.47718361099812495  1.0000
  C   C25       1.0  0.4238890709576495  0.4785077941976113  0.06474872957419817  1.0000
  C   C26       1.0  0.5761076663632849  0.5214896944459254  0.9352468970959291  1.0000
  C   C27       1.0  0.06457736761703359  0.4239014650779325  0.47918755982480815  1.0000
  C   C28       1.0  0.935416065497435  0.5760970092959784  0.5208201197096045  1.0000
  C   C29       1.0  0.531933998204792  0.9195451355420379  0.4787093042461945  1.0000
  C   C30       1.0  0.4680694460238328  0.08045170713821655  0.5212861912157222  1.0000
  C   C31       1.0  0.6817978691791494  0.5514003443086681  0.028766672899919955  1.0000
  C   C32       1.0  0.31819284796995356  0.44860911770929596  0.9712189101775195  1.0000
  C   C33       1.0  0.5500626622971295  0.029569827782758306  0.6824360211590417  1.0000
  C   C34       1.0  0.4084940689717128  0.9734597520393965  0.4070966854941033  1.0000
  C   C35       1.0  0.4499340913772798  0.9704251102504956  0.31756707352822394  1.0000
  C   C36       1.0  0.029314489926072395  0.6815217257023249  0.5510665661187274  1.0000
  C   C37       1.0  0.9706896326604235  0.31847492807395394  0.4489310688024446  1.0000
  C   C38       1.0  0.4495043975204779  0.3175830513040553  0.9708165299548385  1.0000
  C   C39       1.0  0.5504870101652771  0.6824223900827776  0.029179186251596396  1.0000
  C   C40       1.0  0.9710279779982613  0.4496883846984188  0.3175277606549328  1.0000
  C   C41       1.0  0.0289621016623656  0.5503104126571331  0.682479984483585  1.0000
  C   C42       1.0  0.3182579938208078  0.9717430762683253  0.44834330221773644  1.0000
  C   C43       1.0  0.6817361232801175  0.028259688883984748  0.5516623436420786  1.0000
  C   C44       1.0  0.7315085444099481  0.6012297945027499  0.02781668564846045  1.0000
  C   C45       1.0  0.02675882991987069  0.5915795604064654  0.5925705895351995  1.0000
  C   C46       1.0  0.2684828188365884  0.3987737072451908  0.9721699023001874  1.0000
  C   C47       1.0  0.6002790930969795  0.028716773729755146  0.7315953753875846  1.0000
  C   C48       1.0  0.3997069674343976  0.9712857393602974  0.26840956510176284  1.0000
  C   C49       1.0  0.028285742465136796  0.731194432376121  0.6007004012970185  1.0000
  C   C50       1.0  0.9717250733963853  0.2688022085985509  0.39929275622749566  1.0000
  C   C51       1.0  0.39937983721411285  0.2683543258979598  0.9714001380410621  1.0000
  C   C52       1.0  0.600608895850776  0.731649331061263  0.028600321719970626  1.0000
  C   C53       1.0  0.9715013248244658  0.39972784999931615  0.2684912242588167  1.0000
  C   C54       1.0  0.028498142626766296  0.6002740074958837  0.7315108576380069  1.0000
  C   C55       1.0  0.2685874973050914  0.972445572763732  0.39877038372114976  1.0000
  C   C56       1.0  0.9732372665868851  0.4084206931116512  0.40742942975734986  1.0000
  C   C57       1.0  0.731403963802741  0.02756181248871315  0.601236794092884  1.0000
  C   C58       1.0  0.6899800289320338  0.6902338325927035  0.027504299484242285  1.0000
  C   C59       1.0  0.31001137008759366  0.30977032556388195  0.9724907756998816  1.0000
  C   C60       1.0  0.6897664014686524  0.027437315941767855  0.6901352425320795  1.0000
  C   C61       1.0  0.3102190306142773  0.972572444875276  0.30987166745818917  1.0000
  C   C62       1.0  0.027672072538926805  0.6896080642021902  0.689822778126178  1.0000
  C   C63       1.0  0.9723414596618554  0.3103942182875912  0.3101716422728273  1.0000
  C   C64       1.0  0.7177751744574792  0.45826838396547487  0.034732316999551864  1.0000
  C   C65       1.0  0.28221486433374576  0.5417412669564572  0.965251126618632  1.0000
  C   C66       1.0  0.4574908479919344  0.032526232764787714  0.7199487136691614  1.0000
  C   C67       1.0  0.4367519839704598  0.9772354704792718  0.17081882579223168  1.0000
  C   C68       1.0  0.5425045752818461  0.9674716537636102  0.28005371749401314  1.0000
  C   C69       1.0  0.0359424016160332  0.7174436200500766  0.4577858630117503  1.0000
  C   C70       1.0  0.9640549952766335  0.2825479146635176  0.542214268554275  1.0000
  C   C71       1.0  0.5417399548458305  0.2798357979992688  0.9688680076599283  1.0000
  C   C72       1.0  0.45825147080564926  0.7201696518409976  0.031132375246108977  1.0000
  C   C73       1.0  0.96929369847782  0.5419018484427126  0.2794817560489023  1.0000
  C   C74       1.0  0.030670291305916905  0.45811344248782154  0.7205263712279759  1.0000
  C   C75       1.0  0.28201199294166196  0.9665723438207436  0.5412302519792007  1.0000
  C   C76       1.0  0.717983454084795  0.03342939134170554  0.4587735189134674  1.0000
  C   C77       1.0  0.5632360976851417  0.022768388064079673  0.8291864945589538  1.0000
  C   C78       1.0  0.9773962644879288  0.1710916659285574  0.43687873416395456  1.0000
  N   N1        1.0  0.7404013510915561  0.38161058041276147  0.04341226603041548  1.0000
  N   N2        1.0  0.03497183379136  0.3822828815094398  0.7447161583543717  1.0000
  N   N3        1.0  0.2592799325392718  0.9587144281923092  0.6176520817538743  1.0000
  N   N4        1.0  0.740717524699569  0.04128736813651566  0.38235084464086805  1.0000
  N   N5        1.0  0.25959605338725567  0.6183956681247481  0.9565713204567385  1.0000
  N   N6        1.0  0.38129358732284396  0.03825411946193211  0.7435368785310386  1.0000
  N   N7        1.0  0.6187024661699992  0.9617384389014422  0.25646162797743  1.0000
  N   N8        1.0  0.0455092083370801  0.7396219042361453  0.3810221596373252  1.0000
  N   N9        1.0  0.9544740735798597  0.2603634256633711  0.6189798321388479  1.0000
  N   N10       1.0  0.6176306477292145  0.2556186850264837  0.9643860199942578  1.0000
  N   N11       1.0  0.38235940643670563  0.7443832982143876  0.03561107761356646  1.0000
  N   N12       1.0  0.9649606448238898  0.6177369857475058  0.255293588162857  1.0000
  O   O1        1.0  0.5173446595708455  0.9802259900233067  0.13259188641470843  1.0000
  O   O2        1.0  0.1328502430326139  0.9814059532324394  0.5164483721845627  1.0000
  O   O3        1.0  0.48305085179954677  0.867388688958144  0.019994323718208303  1.0000
  O   O4        1.0  0.5169291686367004  0.13261555491134663  0.9800082784238667  1.0000
  O   O5        1.0  0.617140858993096  0.8666393072763371  0.018868060143773797  1.0000
  O   O6        1.0  0.3828405021221569  0.1333658303919805  0.9811330452271747  1.0000
  O   O7        1.0  0.8667009911384439  0.018587756041299017  0.6166989143471965  1.0000
  O   O8        1.0  0.13328316478634153  0.9814326537090282  0.3833117615903204  1.0000
  O   O9        1.0  0.0190961995321359  0.6163678842130695  0.86626782241035  1.0000
  O   O10       1.0  0.9808537296767383  0.38364826283976344  0.13374744071175115  1.0000
  O   O11       1.0  0.13322237038258317  0.38284894668347397  0.9814977847057378  1.0000
  O   O12       1.0  0.482640059806421  0.019777547773209402  0.867412012354528  1.0000
  O   O13       1.0  0.8667517260165525  0.6171327786758595  0.018563216846480556  1.0000
  O   O14       1.0  0.980682163122239  0.13361743584554386  0.38404934480931263  1.0000
  O   O15       1.0  0.0193132203907069  0.8663868277369107  0.6159347079797468  1.0000
  O   O16       1.0  0.38330446997477446  0.9809395994829444  0.13363003088549164  1.0000
  O   O17       1.0  0.6166802511731005  0.0190658578755318  0.86637191272996  1.0000
  O   O18       1.0  0.980696351108726  0.13305008449415837  0.5172166164960998  1.0000
  O   O19       1.0  0.0193117336722963  0.8669460246394253  0.4827650088192425  1.0000
  O   O20       1.0  0.13282760803479476  0.5164184053958181  0.9808722504332367  1.0000
  O   O21       1.0  0.8671750799265184  0.483593939360226  0.019081547503638635  1.0000
  O   O22       1.0  0.0196580484737652  0.4825367799592969  0.8673959052354616  1.0000
  O   O23       1.0  0.9803795934062549  0.5174547180985059  0.1325995287737244  1.0000
  O   O24       1.0  0.867149932129166  0.01859508959387316  0.48356427872212754  1.0000
