data_image0
_chemical_formula_structural       Cu2H60C32S4I2
_chemical_formula_sum              "Cu2 H60 C32 S4 I2"
_cell_length_a       8.354186397143375
_cell_length_b       10.256977938485809
_cell_length_c       10.97410486880183
_cell_angle_alpha    74.90993300712125
_cell_angle_beta     77.22343419557993
_cell_angle_gamma    87.04669211781615

_space_group_name_H-M_alt    "P 1"
_space_group_IT_number       1

loop_
  _space_group_symop_operation_xyz
  'x, y, z'

loop_
  _atom_site_type_symbol
  _atom_site_label
  _atom_site_symmetry_multiplicity
  _atom_site_fract_x
  _atom_site_fract_y
  _atom_site_fract_z
  _atom_site_occupancy
  Cu  Cu1       1.0  0.5425241411721871  0.15912744344822022  0.9725301389124184  1.0000
  Cu  Cu2       1.0  0.4574790595305772  0.8408773370641638  0.027467585985157052  1.0000
  H   H1        1.0  0.42408745261061404  0.5104716434445322  0.6813194755298966  1.0000
  H   H2        1.0  0.5759107990206758  0.4895301325707421  0.31868164576069086  1.0000
  H   H3        1.0  0.722473441572383  0.3240728263541827  0.6781636547770233  1.0000
  H   H4        1.0  0.2775211068520491  0.6759279451344258  0.32183378314122985  1.0000
  H   H5        1.0  0.5805472662447285  0.3423737514294131  0.5781727707827358  1.0000
  H   H6        1.0  0.41944982331369124  0.6576330703877814  0.4218236651588327  1.0000
  H   H7        1.0  0.8392329095967669  0.47517222698794354  0.4638920445042771  1.0000
  H   H8        1.0  0.16076656796875713  0.5248295417955262  0.5361079599019404  1.0000
  H   H9        1.0  0.6661428548461786  0.5811973402936418  0.47353711498560347  1.0000
  H   H10       1.0  0.333855426540282  0.4188064573190289  0.5264644169023427  1.0000
  H   H11       1.0  0.8930814608390065  0.6843210944075012  0.5292198138985212  1.0000
  H   H12       1.0  0.10692044585751859  0.31567864859721345  0.47078209862610965  1.0000
  H   H13       1.0  0.9125824586479823  0.5359560838808121  0.6500516204425536  1.0000
  H   H14       1.0  0.08741576463167179  0.46404367259351176  0.349950000747583  1.0000
  H   H15       1.0  0.6105905969413216  0.7185526329014349  0.6488102237953369  1.0000
  H   H16       1.0  0.38940888202773755  0.2814491379384805  0.35119069110778145  1.0000
  H   H17       1.0  0.750166772257117  0.7075459450410194  0.7498279994362491  1.0000
  H   H18       1.0  0.24983146379480559  0.2924548191473306  0.2501724613072085  1.0000
  H   H19       1.0  0.5009450229235243  0.5686047506316568  0.8678488342483913  1.0000
  H   H20       1.0  0.4990556550316825  0.43139499549196375  0.1321523741668073  1.0000
  H   H21       1.0  0.6754271869227964  0.4643458683287988  0.8534528786529447  1.0000
  H   H22       1.0  0.32457349959405957  0.5356548793394963  0.1465444378248577  1.0000
  H   H23       1.0  0.19835038709356925  0.3027719851018773  0.02378614587279767  1.0000
  H   H24       1.0  0.8016502894580952  0.6972277589652975  0.976214152045493  1.0000
  H   H25       1.0  0.275903414368706  0.4677698722055865  0.9458156568347815  1.0000
  H   H26       1.0  0.7240984881171997  0.5322298646297837  0.05418352419913223  1.0000
  H   H27       1.0  0.992153447193175  0.46144948265823166  0.9180812952463665  1.0000
  H   H28       1.0  0.007848439713370698  0.5385492423502141  0.08191722524042437  1.0000
  H   H29       1.0  0.1266197887488758  0.47800575862318345  0.7668366733775471  1.0000
  H   H30       1.0  0.8733820995612049  0.5219929684417083  0.2331627576061449  1.0000
  H   H31       1.0  0.9189101657892919  0.31182575020579145  0.7859803989658615  1.0000
  H   H32       1.0  0.08109293427921932  0.6881719598568239  0.21401816508322466  1.0000
  H   H33       1.0  0.10781022560085061  0.22976371161743003  0.791584541431021  1.0000
  H   H34       1.0  0.8921928786782802  0.7702340046145366  0.2084167541087822  1.0000
  H   H35       1.0  0.015834943802268207  0.16397010122918232  0.04147229177457488  1.0000
  H   H36       1.0  0.9841693991833722  0.8360286154850058  0.9585267264341794  1.0000
  H   H37       1.0  0.9120791938389984  0.08475330903407752  0.9541203155498224  1.0000
  H   H38       1.0  0.0879226958746244  0.9152454200872668  0.04588002593077786  1.0000
  H   H39       1.0  0.5842050179928577  0.1656462586302041  0.2550730377303196  1.0000
  H   H40       1.0  0.41579444399330606  0.8343544983263411  0.744926306128761  1.0000
  H   H41       1.0  0.8772621064332854  0.985013167411282  0.19489205817779967  1.0000
  H   H42       1.0  0.1227385871012814  0.0149875905392562  0.8051098107845288  1.0000
  H   H43       1.0  0.6727809648394186  0.9589665558625667  0.1832656662998744  1.0000
  H   H44       1.0  0.32722093764648014  0.0410331809728035  0.8167335147340395  1.0000
  H   H45       1.0  0.7294067162056237  0.8196573636259359  0.3922776538479552  1.0000
  H   H46       1.0  0.2705927188324538  0.1803413758461119  0.6077231004075825  1.0000
  H   H47       1.0  0.5765492399858021  0.9404732847214987  0.4191060357311116  1.0000
  H   H48       1.0  0.4234477375696386  0.059525460988354  0.5808933103055551  1.0000
  H   H49       1.0  0.7827349446491996  0.937905688275862  0.5554552509813674  1.0000
  H   H50       1.0  0.21726203571331842  0.06209306154688931  0.44454591604910815  1.0000
  H   H51       1.0  0.9424399463960783  0.9676261050892379  0.4149470316362453  1.0000
  H   H52       1.0  0.057555793856387504  0.0323716421948461  0.5850555022283784  1.0000
  H   H53       1.0  0.8667697235015906  0.1814461743726383  0.4786924379843923  1.0000
  H   H54       1.0  0.13322969736066884  0.818551555328938  0.5213085662209236  1.0000
  H   H55       1.0  0.6598072694839487  0.1591571844652435  0.47668487674128085  1.0000
  H   H56       1.0  0.34019095379570535  0.8408425720090805  0.5233167444488557  1.0000
  H   H57       1.0  0.7913712045321548  0.3215557940483365  0.27366279302787416  1.0000
  H   H58       1.0  0.20863068658501763  0.6784429371294608  0.7263384589496268  1.0000
  H   H59       1.0  0.9504270207938532  0.2058095986635848  0.24287252493260775  1.0000
  H   H60       1.0  0.04957361463390701  0.7941871181486134  0.7571294333319113  1.0000
  C   C1        1.0  0.5149724602611201  0.4478597235179932  0.7295185000067617  1.0000
  C   C2        1.0  0.48502457820820416  0.5521430674431045  0.2704825777215234  1.0000
  C   C3        1.0  0.6421828997197706  0.3978798936172439  0.628286124306932  1.0000
  C   C4        1.0  0.35781656086285096  0.602120861282856  0.37171230905525476  1.0000
  C   C5        1.0  0.7449172201826856  0.5150364318336569  0.5317893106424164  1.0000
  C   C6        1.0  0.255082255979289  0.4849653348933671  0.468209783266893  1.0000
  C   C7        1.0  0.8235313996172166  0.5987288501937797  0.6001369267629642  1.0000
  C   C8        1.0  0.17646685201406606  0.40127292582148755  0.3998641945276233  1.0000
  C   C9        1.0  0.6938596793751088  0.6486813118069037  0.6993922397241477  1.0000
  C   C10       1.0  0.3061422684453277  0.3513214584527872  0.3006080124542549  1.0000
  C   C11       1.0  0.5943719750955765  0.5306790303199946  0.7977987600313554  1.0000
  C   C12       1.0  0.4056286872802773  0.4693197039767014  0.2022017878367136  1.0000
  C   C13       1.0  0.23084624456702577  0.3764912992793725  0.9293414945866727  1.0000
  C   C14       1.0  0.7691556437430621  0.623507427785519  0.07065793639701917  1.0000
  C   C15       1.0  0.08609659730075948  0.40753412931817934  0.8624342281635645  1.0000
  C   C16       1.0  0.9139052924128708  0.592464599803165  0.13756611331702828  1.0000
  C   C17       1.0  0.0110084132417327  0.28230409942041484  0.8458207523098408  1.0000
  C   C18       1.0  0.9889934750683551  0.7176946276444767  0.1541786786738513  1.0000
  C   C19       1.0  0.9351237920347444  0.18170017443289044  0.9721245981229956  1.0000
  C   C20       1.0  0.06487809627534351  0.8182985526320081  0.027874832860696638  1.0000
  C   C21       1.0  0.7157675384884715  0.15112208370625518  0.21699868201053352  1.0000
  C   C22       1.0  0.2842343512251518  0.8488766454150892  0.7830016594700594  1.0000
  C   C23       1.0  0.746964828290885  0.000424271159744201  0.23547281652823668  1.0000
  C   C24       1.0  0.2530346322917367  0.9995764837403485  0.7645256168339429  1.0000
  C   C25       1.0  0.7083464149895774  0.9287646694820282  0.379467943529228  1.0000
  C   C26       1.0  0.2916518082900764  0.07123508699229571  0.6205336776609158  1.0000
  C   C27       1.0  0.8119263665154577  0.9872876134996319  0.45145233662970685  1.0000
  C   C28       1.0  0.18806938650928376  0.012711141498471098  0.5485490367882448  1.0000
  C   C29       1.0  0.7869354548997267  0.13979082617234445  0.43048050416664546  1.0000
  C   C30       1.0  0.2130639929106196  0.8602089210137294  0.5695190896422133  1.0000
  C   C31       1.0  0.8190920205202944  0.21356070525155252  0.2865017500578446  1.0000
  C   C32       1.0  0.18090988617623086  0.7864390377531691  0.7135001624667865  1.0000
  S   S1        1.0  0.4005957680243172  0.2989756418206325  0.8378582510072048  1.0000
  S   S2        1.0  0.5994049071238052  0.7010241001900894  0.16214113641418487  1.0000
  S   S3        1.0  0.7383910677586416  0.24223048976163136  0.04670640132177078  1.0000
  S   S4        1.0  0.26161330638571206  0.7577702506064058  0.9532939379812431  1.0000
  I   I1        1.0  0.31299166282315133  0.019079049670132502  0.161567090696856  1.0000
  I   I2        1.0  0.6870102666108482  0.9809227046497354  0.8384306799406147  1.0000
