data_image0
_chemical_formula_structural       Cd4H12C10Br2N4Cl6O8
_chemical_formula_sum              "Cd4 H12 C10 Br2 N4 Cl6 O8"
_cell_length_a       6.937376349076336
_cell_length_b       9.944451456248588
_cell_length_c       9.944508658532358
_cell_angle_alpha    106.21054578236065
_cell_angle_beta     89.9999615272306
_cell_angle_gamma    90.00052644336972

_space_group_name_H-M_alt    "P 1"
_space_group_IT_number       1

loop_
  _space_group_symop_operation_xyz
  'x, y, z'

loop_
  _atom_site_type_symbol
  _atom_site_label
  _atom_site_symmetry_multiplicity
  _atom_site_fract_x
  _atom_site_fract_y
  _atom_site_fract_z
  _atom_site_occupancy
  Cd  Cd1       1.0  0.15890197011479046  0.3536606017331111  0.986758951093748  1.0000
  Cd  Cd2       1.0  0.6589046516157779  0.6463315884344355  0.013239086285011612  1.0000
  Cd  Cd3       1.0  0.3411013393316295  0.013241880820572802  0.6463499659561408  1.0000
  Cd  Cd4       1.0  0.8410995250233594  0.9867620351058622  0.3536602974800545  1.0000
  H   H1        1.0  0.08059752595190868  0.5778917850653259  0.3137643920427422  1.0000
  H   H2        1.0  0.5805951332478401  0.4221092894723883  0.6862311188932892  1.0000
  H   H3        1.0  0.4193977389877616  0.6862419747258104  0.42211330061266494  1.0000
  H   H4        1.0  0.919396907439008  0.3137645550968031  0.5778896095439165  1.0000
  H   H5        1.0  0.45523895154464356  0.16094163492625319  0.9896579354660914  1.0000
  H   H6        1.0  0.9552384138885655  0.839053632179436  0.010349876146221973  1.0000
  H   H7        1.0  0.044761527593863086  0.010343216859844503  0.8390571873580938  1.0000
  H   H8        1.0  0.5447628271401255  0.9896502996792766  0.16094629646001124  1.0000
  H   H9        1.0  0.5603637107318207  0.3060425399051995  0.01686045081999049  1.0000
  H   H10       1.0  0.06036408305009638  0.6939521267042184  0.9831413343207701  1.0000
  H   H11       1.0  0.9396336998070536  0.9831406532576427  0.6939550213964268  1.0000
  H   H12       1.0  0.43963590222038096  0.016859737351218505  0.3060501974476466  1.0000
  C   C1        1.0  0.04444197705980458  0.4777241162514515  0.3320960411207068  1.0000
  C   C2        1.0  0.5444409248389944  0.5222746163667793  0.667897829841209  1.0000
  C   C3        1.0  0.4555567708941338  0.6679001405997554  0.5222773574773498  1.0000
  C   C4        1.0  0.9555577230648918  0.3321024413717241  0.4777214237870098  1.0000
  C   C5        1.0  0.9999961568253609  0.46524804296380046  0.46524372653181706  1.0000
  C   C6        1.0  0.5000049664720336  0.5347569324246991  0.5347536886152753  1.0000
  C   C7        1.0  0.9999976685621021  0.24045075554563772  0.24044392801864234  1.0000
  C   C8        1.0  0.5000034547072403  0.7595500342073935  0.7595543360268664  1.0000
  C   C9        1.0  2.1305864877e-06  0.11297581035088916  0.11297697991724932  1.0000
  C   C10       1.0  0.4999984663888738  0.8870226233044252  0.8870188387474656  1.0000
  Br  Br1       1.0  8.122736936399998e-06  0.6227057751798172  0.6226868785088584  1.0000
  Br  Br2       1.0  0.49999968169552017  0.37731044015320253  0.37730080520056225  1.0000
  N   N1        1.0  0.044576783966945796  0.36459943366203623  0.22092195855169902  1.0000
  N   N2        1.0  0.5445828796132516  0.6353982575425193  0.7790746399142564  1.0000
  N   N3        1.0  0.4554219501415984  0.7790747297322512  0.6354017699956174  1.0000
  N   N4        1.0  0.9554143406548686  0.2209268008302559  0.36459470821287  1.0000
  Cl  Cl1       1.0  0.2931262792138156  0.6023766649573049  0.07585105601438613  1.0000
  Cl  Cl2       1.0  0.7931204424180576  0.3976195812067688  0.9241490541493179  1.0000
  Cl  Cl3       1.0  0.20687229015031505  0.9241523484168758  0.3976255404516565  1.0000
  Cl  Cl4       1.0  0.7068755011219279  0.07585064501964921  0.6023784924057481  1.0000
  Cl  Cl5       1.0  0.24999798470845036  0.2756203329198926  0.7243767359790071  1.0000
  Cl  Cl6       1.0  0.7499999924795798  0.7243798137360645  0.2756274929908927  1.0000
  O   O1        1.0  0.04948737574458308  0.13122517188431712  0.9968521078760801  1.0000
  O   O2        1.0  0.549505976631842  0.8687746553032768  0.003150109450977745  1.0000
  O   O3        1.0  0.45051284128656727  0.003141654819387401  0.8687744135362935  1.0000
  O   O4        1.0  0.9505056168482111  0.9968577527873993  0.13122449407543976  1.0000
  O   O5        1.0  0.4492363684974733  0.26044674286156794  0.048033762375197915  1.0000
  O   O6        1.0  0.9492350171885631  0.739549525777605  0.9519713132398595  1.0000
  O   O7        1.0  0.05076141218511049  0.9519677099233522  0.7395522594276045  1.0000
  O   O8        1.0  0.5507660393782814  0.04802688978183771  0.2604485057784132  1.0000
