data_image0
_chemical_formula_structural       Zn16H40C96S16N8O52
_chemical_formula_sum              "Zn16 H40 C96 S16 N8 O52"
_cell_length_a       19.663520580087642
_cell_length_b       19.662781691162046
_cell_length_c       33.34603455895252
_cell_angle_alpha    79.24022025975036
_cell_angle_beta     79.23870173384823
_cell_angle_gamma    63.9165366698182

_space_group_name_H-M_alt    "P 1"
_space_group_IT_number       1

loop_
  _space_group_symop_operation_xyz
  'x, y, z'

loop_
  _atom_site_type_symbol
  _atom_site_label
  _atom_site_symmetry_multiplicity
  _atom_site_fract_x
  _atom_site_fract_y
  _atom_site_fract_z
  _atom_site_occupancy
  Zn  Zn1       1.0  0.056184779232175706  0.4007162620487676  0.47843856893361897  1.0000
  Zn  Zn2       1.0  0.9836453265071513  0.4836619607390134  0.5600213218912982  1.0000
  Zn  Zn3       1.0  0.05920727327097812  0.5609505753143794  0.4833709051408093  1.0000
  Zn  Zn4       1.0  0.9009737548076587  0.55472116290737  0.4788994557531367  1.0000
  Zn  Zn5       1.0  0.6946972986987063  0.3494680010299832  0.2714189665000219  1.0000
  Zn  Zn6       1.0  0.6887633165060906  0.19003677541383013  0.26687977789101314  1.0000
  Zn  Zn7       1.0  0.7675183895299115  0.2655067026608366  0.19021655895387107  1.0000
  Zn  Zn8       1.0  0.848233413189057  0.19442482753186138  0.27211765179521297  1.0000
  Zn  Zn9       1.0  0.26681115252549853  0.7671824469912137  0.6895888080765004  1.0000
  Zn  Zn10      1.0  0.34820202501258285  0.6953977986832103  0.7719465348502366  1.0000
  Zn  Zn11      1.0  0.1937694909842733  0.848841875778824  0.7722391088708347  1.0000
  Zn  Zn12      1.0  0.19110114423826735  0.6892075950255576  0.7669562320840837  1.0000
  Zn  Zn13      1.0  0.5608132900963056  0.05967278722055627  0.9832823356365664  1.0000
  Zn  Zn14      1.0  0.4010505270898933  0.055593910562237184  0.9783821539725466  1.0000
  Zn  Zn15      1.0  0.5550490442039263  0.9011704941902967  0.9781828186638676  1.0000
  Zn  Zn16      1.0  0.48388204860815154  0.9827272962630219  0.060405935940622185  1.0000
  H   H1        1.0  0.7959233379266095  0.5020951319375301  0.39923086987807455  1.0000
  H   H2        1.0  0.9545216619016654  0.24768366492374863  0.351046343948191  1.0000
  H   H3        1.0  0.7480099360994644  0.45399315047516353  0.3509099135118062  1.0000
  H   H4        1.0  0.0024716007008792015  0.29590221463676875  0.3993052361484856  1.0000
  H   H5        1.0  0.15211954929473143  0.6529963099333359  0.5495337219351126  1.0000
  H   H6        1.0  0.09788328935511713  0.5975512478884967  0.7009043156298062  1.0000
  H   H7        1.0  0.20047152795061865  0.7010558898188748  0.5977272860734357  1.0000
  H   H8        1.0  0.04988476957608871  0.549173353208957  0.6526802593323493  1.0000
  H   H9        1.0  0.4626049466981571  0.2412075676370974  0.3408215309749777  1.0000
  H   H10       1.0  0.479586711553992  0.7013301154279505  0.6018315054729653  1.0000
  H   H11       1.0  0.2038601886173481  0.9798493128411749  0.6019640810335571  1.0000
  H   H12       1.0  0.9485302568354825  0.9691054990461655  0.34755479203619194  1.0000
  H   H13       1.0  0.7011829787055177  0.19999714580801264  0.09765663042662708  1.0000
  H   H14       1.0  0.5490900580913234  0.04948003533055367  0.15242390518785234  1.0000
  H   H15       1.0  0.6524534997216023  0.15252904354885302  0.04935597454433344  1.0000
  H   H16       1.0  0.5975049446761886  0.09730486311265454  0.20069811869772983  1.0000
  H   H17       1.0  0.5485117115221669  0.7697421865856527  0.14825156853296306  1.0000
  H   H18       1.0  0.1629910483912909  0.1426472206114511  0.04084767008258441  1.0000
  H   H19       1.0  0.24722772359412204  0.9547371778106778  0.8509388639959566  1.0000
  H   H20       1.0  0.5018048937781785  0.796456047121218  0.899174553350484  1.0000
  H   H21       1.0  0.29534622230089985  0.0028460881781243435  0.8992211535242658  1.0000
  H   H22       1.0  0.453799171423718  0.7485734029763975  0.8507352087901832  1.0000
  H   H23       1.0  0.3019567438207318  0.27966160539759954  0.9017670464243606  1.0000
  H   H24       1.0  0.7862277395192337  0.009787768973673377  0.9081973301481336  1.0000
  H   H25       1.0  0.31244844927366705  0.5582679876962687  0.3953394572079744  1.0000
  H   H26       1.0  0.23303425944754255  0.553438692894119  0.42694125504394964  1.0000
  H   H27       1.0  0.7677990614218686  0.5219449841004578  0.6852859310584163  1.0000
  H   H28       1.0  0.836263726774085  0.5182531166153338  0.6432395413945357  1.0000
  H   H29       1.0  0.04584531517816971  0.2688365403582936  0.6857177225219571  1.0000
  H   H30       1.0  0.0203884002562447  0.3364971493549264  0.6430131655261205  1.0000
  H   H31       1.0  0.7424241762127013  0.802419759880138  0.3853921078173172  1.0000
  H   H32       1.0  0.7944131314477192  0.7251675063985773  0.41914400035273747  1.0000
  H   H33       1.0  0.727801960542827  0.481673894379597  0.06450956104261249  1.0000
  H   H34       1.0  0.7332873371583447  0.4129449179818965  0.10666999812386274  1.0000
  H   H35       1.0  0.1447586764903974  0.08535430286603679  0.22729821230993244  1.0000
  H   H36       1.0  0.04652746656942951  0.11594839713725952  0.23993466427966575  1.0000
  H   H37       1.0  0.5168603703686756  0.4362838931446122  0.8544370474578711  1.0000
  H   H38       1.0  0.4563500801214815  0.5234029570453346  0.8304283386696552  1.0000
  H   H39       1.0  0.9265816450778955  0.7012018907718984  0.8438780032900082  1.0000
  H   H40       1.0  0.015848041222177804  0.6974263288341689  0.822185212544177  1.0000
  C   C1        1.0  0.05883869320312842  0.31606552833630996  0.5626567949408352  1.0000
  C   C2        1.0  0.06961303453417142  0.569476496193374  0.5697322961781168  1.0000
  C   C3        1.0  0.1856627190373601  0.4396344927023677  0.43957292879910165  1.0000
  C   C4        1.0  0.9357614483399461  0.6853487067522082  0.43913404106466897  1.0000
  C   C5        1.0  0.9306248032542968  0.4307255653113345  0.43067660115384837  1.0000
  C   C6        1.0  0.8159930413135755  0.5626742431524295  0.5629212916036578  1.0000
  C   C7        1.0  0.5649042433121994  0.3125072817206203  0.3108805093690775  1.0000
  C   C8        1.0  0.6811575708658496  0.17956391755495116  0.18065497051909316  1.0000
  C   C9        1.0  0.6880866728786829  0.433411638370238  0.18722952962110637  1.0000
  C   C10       1.0  0.9358732451164542  0.18608978868905976  0.18934581224953456  1.0000
  C   C11       1.0  0.8200130802977269  0.3192672643586648  0.31937549804875687  1.0000
  C   C12       1.0  0.8110588045640199  0.06529587348634196  0.3112947577393824  1.0000
  C   C13       1.0  0.43410398054425775  0.6871061180810187  0.6887077014963622  1.0000
  C   C14       1.0  0.31939596532875214  0.8202913860731516  0.8192453711977519  1.0000
  C   C15       1.0  0.1894213428375906  0.9343875457928803  0.6888273214646643  1.0000
  C   C16       1.0  0.06589548643990642  0.8087210499903603  0.8124402411670812  1.0000
  C   C17       1.0  0.18058802737500912  0.6808267538351488  0.6807098205368617  1.0000
  C   C18       1.0  0.31330255916481065  0.5654844772389325  0.8123860616532992  1.0000
  C   C19       1.0  0.4393123261761716  0.18353521386508478  0.9381707839675496  1.0000
  C   C20       1.0  0.42997727538058683  0.9309249374485804  0.930701578406939  1.0000
  C   C21       1.0  0.6837670556341208  0.9386342164902435  0.9379824122893293  1.0000
  C   C22       1.0  0.5627552202325177  0.8154372397040534  0.06138182945040429  1.0000
  C   C23       1.0  0.5696241565378061  0.06937763084938109  0.06944886414057544  1.0000
  C   C24       1.0  0.31608684060964987  0.062368805631741964  0.06156242218180099  1.0000
  C   C25       1.0  0.902065311767032  0.40191229183222565  0.4019105539857646  1.0000
  C   C26       1.0  0.8486348026587649  0.3481398016678343  0.3480681357113723  1.0000
  C   C27       1.0  0.830242936442133  0.44659233032097495  0.38837591924604437  1.0000
  C   C28       1.0  0.9203829545148992  0.3033945803384627  0.36168771241712955  1.0000
  C   C29       1.0  0.8036847880124541  0.4199113157342468  0.3616140726658585  1.0000
  C   C30       1.0  0.9469502329386686  0.33008684747677114  0.38843835928049925  1.0000
  C   C31       1.0  0.09831879931491733  0.5982799641137293  0.5983894272849067  1.0000
  C   C32       1.0  0.15186787397563958  0.6520955709452354  0.6520443328381446  1.0000
  C   C33       1.0  0.14067628493717882  0.6411437909549278  0.5827155569745981  1.0000
  C   C34       1.0  0.10942646146470741  0.6093045623673775  0.667724202870623  1.0000
  C   C35       1.0  0.1673822640775313  0.6678234798690782  0.6093988909000385  1.0000
  C   C36       1.0  0.0828791440249361  0.5825042689697925  0.641032555580068  1.0000
  C   C37       1.0  0.3041021508173785  0.45621247065465553  0.40221760753358615  1.0000
  C   C38       1.0  0.4453976920605953  0.2981640376948107  0.34873251230954583  1.0000
  C   C39       1.0  0.2594352608677042  0.4147419603292804  0.4152060513496777  1.0000
  C   C40       1.0  0.4900508859719963  0.3381803241231082  0.33583314936591785  1.0000
  C   C41       1.0  0.37752435554697433  0.34080701820532533  0.37273032633643044  1.0000
  C   C42       1.0  0.37186218528946574  0.41269302553973847  0.37767571259555405  1.0000
  C   C43       1.0  0.7275279324577681  0.577036518512813  0.630368005042598  1.0000
  C   C44       1.0  0.524521279549859  0.6723514953704072  0.6217617283801358  1.0000
  C   C45       1.0  0.7422156906116586  0.5880803494607889  0.5873027551529688  1.0000
  C   C46       1.0  0.5092274371894517  0.6618949062919414  0.6641044910296185  1.0000
  C   C47       1.0  0.6037870092607065  0.6412402486016049  0.6092321285574938  1.0000
  C   C48       1.0  0.6474028314176579  0.6078399245567638  0.6424224917233374  1.0000
  C   C49       1.0  0.07269018033348122  0.2276484404371857  0.6301245693884283  1.0000
  C   C50       1.0  0.1743073896235074  0.024788176404868485  0.6218650533145222  1.0000
  C   C51       1.0  0.08289568766375771  0.24223121004158799  0.587026071062226  1.0000
  C   C52       1.0  0.16424955911014652  0.009573772520546692  0.6642325487306238  1.0000
  C   C53       1.0  0.14138495313533642  0.10397926624482778  0.6092198647367864  1.0000
  C   C54       1.0  0.1067879482360752  0.14763012438276493  0.6423506641531984  1.0000
  C   C55       1.0  0.8413769013958047  0.8003790503802081  0.3984033423388738  1.0000
  C   C56       1.0  0.9040931061213371  0.9487512174751699  0.3521633943746423  1.0000
  C   C57       1.0  0.9112116970918152  0.7591273510771688  0.41483664053561126  1.0000
  C   C58       1.0  0.8355301551486036  0.9901940495297769  0.33596721504736127  1.0000
  C   C59       1.0  0.9068855545174019  0.8794353960644229  0.37466259923679224  1.0000
  C   C60       1.0  0.840091819878225  0.8694991377712428  0.37522645834930296  1.0000
  C   C61       1.0  0.652198155640278  0.15122921064720163  0.15190111998222017  1.0000
  C   C62       1.0  0.5981457663544347  0.09818537686128076  0.09815392789160877  1.0000
  C   C63       1.0  0.667831370210493  0.16701186858292538  0.10926840501375779  1.0000
  C   C64       1.0  0.5824012311323445  0.08250148708362562  0.14079069970502894  1.0000
  C   C65       1.0  0.6408746613566125  0.14070324194720746  0.08253068340977167  1.0000
  C   C66       1.0  0.6092363300899137  0.10894274081508841  0.16752093416815939  1.0000
  C   C67       1.0  0.6737470651273582  0.5217964261351614  0.1196662645860868  1.0000
  C   C68       1.0  0.5775423523025439  0.7248614588964984  0.12828904095636764  1.0000
  C   C69       1.0  0.6626534918153199  0.5071069699030136  0.16275562985906325  1.0000
  C   C70       1.0  0.5879698344453105  0.740247674004124  0.08593619237629464  1.0000
  C   C71       1.0  0.6088232311504811  0.6455851049791407  0.1407958050205095  1.0000
  C   C72       1.0  0.6424573607331254  0.6019998875858334  0.10759975042940077  1.0000
  C   C73       1.0  0.0813260719490643  0.1220444609724467  0.17886245653060937  1.0000
  C   C74       1.0  0.17038844936698888  0.1258370804567051  0.0732617372429516  1.0000
  C   C75       1.0  0.0093171645309909  0.16117591239777346  0.16462817492432438  1.0000
  C   C76       1.0  0.24158821517724502  0.08708453677274264  0.0868428882139938  1.0000
  C   C77       1.0  0.11180694979159972  0.13910139341284383  0.10653272068303464  1.0000
  C   C78       1.0  0.13966751672744243  0.1100019791437603  0.14491797524683384  1.0000
  C   C79       1.0  0.3479101150671582  0.8490071633749922  0.8480199595277749  1.0000
  C   C80       1.0  0.40133455401932855  0.9024379892109523  0.9018909648393316  1.0000
  C   C81       1.0  0.3029196171705451  0.9207010936290914  0.8616251404365656  1.0000
  C   C82       1.0  0.4462503459879983  0.8306636242819395  0.8883595312901061  1.0000
  C   C83       1.0  0.3295360578436616  0.947307054009343  0.8883842997414887  1.0000
  C   C84       1.0  0.4196885933499814  0.8041396266825914  0.8615460167554402  1.0000
  C   C85       1.0  0.4072995127525942  0.45058871022117597  0.8533855208725497  1.0000
  C   C86       1.0  0.3463553249647263  0.3000600442591335  0.8972292139674206  1.0000
  C   C87       1.0  0.3372254291781189  0.4922713182636683  0.8372514953059775  1.0000
  C   C88       1.0  0.4150391360812479  0.2583917506108618  0.9132636619726919  1.0000
  C   C89       1.0  0.3432423614538179  0.36984162277595817  0.8752274233195363  1.0000
  C   C90       1.0  0.4097712017703685  0.3800404286070104  0.8750608726796042  1.0000
  C   C91       1.0  0.9473435011679073  0.7922924665020618  0.8496262762904575  1.0000
  C   C92       1.0  0.8035007678569314  0.9527296417805291  0.9004298289773797  1.0000
  C   C93       1.0  0.9925895412072238  0.8332327739865807  0.8372311131414562  1.0000
  C   C94       1.0  0.7584985293887171  0.9130361791027399  0.9129877578043519  1.0000
  C   C95       1.0  0.8721209571538824  0.9093517166239664  0.8772191263834866  1.0000
  C   C96       1.0  0.8780421101268062  0.8372080755958462  0.8725953717357552  1.0000
  S   S1        1.0  0.3001757308083911  0.3247386995646551  0.39802280278134816  1.0000
  S   S2        1.0  0.4500201313900972  0.4277118644515029  0.3528665139779007  1.0000
  S   S3        1.0  0.6598431122462857  0.635586212635161  0.5625433848908725  1.0000
  S   S4        1.0  0.5909086682819479  0.6146250827411  0.6889892503923533  1.0000
  S   S5        1.0  0.1326303261247546  0.15985731386622604  0.5623982386552484  1.0000
  S   S6        1.0  0.114533248327497  0.09125946358017961  0.6889873618878395  1.0000
  S   S7        1.0  0.9728536102434119  0.8044787141969327  0.40240564049369704  1.0000
  S   S8        1.0  0.7739376592327076  0.9453913654390865  0.3480933610022702  1.0000
  S   S9        1.0  0.6145236368623728  0.5895206323359475  0.18749269341835628  1.0000
  S   S10       1.0  0.6355472098018923  0.6585641222240212  0.061042887024036874  1.0000
  S   S11       1.0  0.01357704222508  0.18178111292547072  0.11108532595912377  1.0000
  S   S12       1.0  0.2378144979008781  0.06619575132992143  0.1400624497639953  1.0000
  S   S13       1.0  0.27615932522210324  0.44626716322103754  0.8488568204700682  1.0000
  S   S14       1.0  0.4760983101539012  0.30379665579779663  0.9019124833436148  1.0000
  S   S15       1.0  0.9512270240959496  0.9238460459612772  0.8536821423452917  1.0000
  S   S16       1.0  0.7993156158170793  0.8227338950763187  0.8968538644628692  1.0000
  N   N1        1.0  0.2866308509453291  0.5262949581659627  0.41267358582333447  1.0000
  N   N2        1.0  0.781786309677635  0.5441399190008411  0.6567624351839639  1.0000
  N   N3        1.0  0.0336310822449093  0.281898541172474  0.6563115436939384  1.0000
  N   N4        1.0  0.7828503842909241  0.7788288488763301  0.40481139139534145  1.0000
  N   N5        1.0  0.7070715308598851  0.46752442908068303  0.09336289876154066  1.0000
  N   N6        1.0  0.09351159491692579  0.0970708026555158  0.21894686941794103  1.0000
  N   N7        1.0  0.46331316450898197  0.47504904339457016  0.8499781269537932  1.0000
  N   N8        1.0  0.9677163806996065  0.7197067653064835  0.8420148359797464  1.0000
  O   O1        1.0  6.631271304500939e-06  0.49990147999089635  0.5001639649385722  1.0000
  O   O2        1.0  0.0754369567993578  0.3173125596391558  0.5235765195539768  1.0000
  O   O3        1.0  0.03372186160708421  0.5285849766275703  0.5860990434752933  1.0000
  O   O4        1.0  0.1575459115126989  0.5068785148257292  0.4512974547586095  1.0000
  O   O5        1.0  0.02254415558405041  0.3753035418129329  0.5823685427675114  1.0000
  O   O6        1.0  0.153571973367491  0.39338790892584546  0.44759323605060075  1.0000
  O   O7        1.0  0.08326088106505132  0.5880338974250704  0.5313518690625472  1.0000
  O   O8        1.0  0.0029751544713150003  0.6563865256491681  0.4501974679114651  1.0000
  O   O9        1.0  0.886927185136834  0.4967431436818332  0.4415332408368682  1.0000
  O   O10       1.0  0.8882400537142346  0.6540690577309507  0.44771803665589954  1.0000
  O   O11       1.0  0.9961977629537272  0.3870823729740282  0.44196772848072635  1.0000
  O   O12       1.0  0.8753240630495045  0.528122136362235  0.582600404322619  1.0000
  O   O13       1.0  0.8169951294460134  0.5759582518012111  0.5237325455243251  1.0000
  O   O14       1.0  0.7496877807890384  0.24960823111993605  0.2504466483531543  1.0000
  O   O15       1.0  0.596113111458543  0.3593194258265697  0.30272706164817714  1.0000
  O   O16       1.0  0.663559384529819  0.1644391190546416  0.219062007473802  1.0000
  O   O17       1.0  0.7240254543054547  0.3738970848720486  0.1677816520981921  1.0000
  O   O18       1.0  0.5920364439017832  0.2458042531957574  0.29976143230096136  1.0000
  O   O19       1.0  0.6733338853849987  0.43272041839292547  0.22641851412512168  1.0000
  O   O20       1.0  0.7209800145463701  0.21653538543688475  0.1644899940531842  1.0000
  O   O21       1.0  0.8766100457487411  0.2232328843912443  0.17035366782753406  1.0000
  O   O22       1.0  0.863930066296092  0.2535246656083743  0.3081886294485798  1.0000
  O   O23       1.0  0.9355654243910579  0.1692920466058327  0.228782004208142  1.0000
  O   O24       1.0  0.7540779587489085  0.3625663094189094  0.3084228157058034  1.0000
  O   O25       1.0  0.7445575419768246  0.0929997396565627  0.2996807162045058  1.0000
  O   O26       1.0  0.8580641968657617  0.09607735902640263  0.30383340253624164  1.0000
  O   O27       1.0  0.25012953700863955  0.750475578217923  0.7498243576680534  1.0000
  O   O28       1.0  0.376075794670939  0.7236655099725698  0.6690402751204089  1.0000
  O   O29       1.0  0.3637633693014665  0.7550241143566084  0.8076429596498752  1.0000
  O   O30       1.0  0.17270181463207024  0.9341436166865978  0.7278242834246241  1.0000
  O   O31       1.0  0.43398453266932796  0.6701747345926493  0.7277178325765303  1.0000
  O   O32       1.0  0.22538954918457682  0.8763426850158783  0.669063574253357  1.0000
  O   O33       1.0  0.2531544136212531  0.863263290123733  0.8086388658294649  1.0000
  O   O34       1.0  0.0971933377493883  0.855665139766515  0.8037695980227183  1.0000
  O   O35       1.0  0.16418211718358583  0.6648603427213973  0.7191419214100063  1.0000
  O   O36       1.0  0.094179571834772  0.741485032592692  0.8007456504685206  1.0000
  O   O37       1.0  0.2192140878580702  0.7189960207327958  0.6643308831745712  1.0000
  O   O38       1.0  0.36026743844229964  0.5974471490872091  0.8046253869182394  1.0000
  O   O39       1.0  0.2474988226422283  0.5931434034027135  0.7997451367593269  1.0000
  O   O40       1.0  0.4999550705665357  0.9999566174177732  7.864059935508556e-05  1.0000
  O   O41       1.0  0.5060288427543185  0.15565774940483118  0.9494900292092436  1.0000
  O   O42       1.0  0.38638831352235314  0.9966747696598759  0.9418824972018239  1.0000
  O   O43       1.0  0.6527027778787939  0.8916774902686911  0.9461031697880953  1.0000
  O   O44       1.0  0.391793505546012  0.1533426390386411  0.9462900381265839  1.0000
  O   O45       1.0  0.6567669818107973  0.005043651996949503  0.9493985807591868  1.0000
  O   O46       1.0  0.4957281255522903  0.8871145081149693  0.9417759327722375  1.0000
  O   O47       1.0  0.5790518946427243  0.8156492068781632  0.02234166341875715  1.0000
  O   O48       1.0  0.5313924561246707  0.03080864318558704  0.08573661097538829  1.0000
  O   O49       1.0  0.5268190306050755  0.8735695741259449  0.08106248778986468  1.0000
  O   O50       1.0  0.5859105492889328  0.08556951019117076  0.030996316557370562  1.0000
  O   O51       1.0  0.3155624126189665  0.0792463631776386  0.02267208984565629  1.0000
  O   O52       1.0  0.37471092047056953  0.025938488708106926  0.08096435642630687  1.0000
