data_image0
_chemical_formula_structural       Co2H28C40N4Cl4O8
_chemical_formula_sum              "Co2 H28 C40 N4 Cl4 O8"
_cell_length_a       7.558285103978032
_cell_length_b       9.779149672433109
_cell_length_c       13.075895362060077
_cell_angle_alpha    79.78862724553501
_cell_angle_beta     74.6082037964879
_cell_angle_gamma    76.39927560376907

_space_group_name_H-M_alt    "P 1"
_space_group_IT_number       1

loop_
  _space_group_symop_operation_xyz
  'x, y, z'

loop_
  _atom_site_type_symbol
  _atom_site_label
  _atom_site_symmetry_multiplicity
  _atom_site_fract_x
  _atom_site_fract_y
  _atom_site_fract_z
  _atom_site_occupancy
  Co  Co1       1.0  0.28839760614691573  0.6688717386810196  0.5535358338570476  1.0000
  Co  Co2       1.0  0.724093292485016  0.3068615945690921  0.4517402110508399  1.0000
  H   H1        1.0  0.034771261101283785  0.4430300476841396  0.8620773672355713  1.0000
  H   H2        1.0  0.9479931004804952  0.5472622846948525  0.15974780359397311  1.0000
  H   H3        1.0  0.01733653600241067  0.7523430032592701  0.7657339052141907  1.0000
  H   H4        1.0  0.972008407392387  0.25037204508671357  0.23639735205736664  1.0000
  H   H5        1.0  0.4217596091775064  0.42039171193653857  0.8023608530086648  1.0000
  H   H6        1.0  0.5740294062429073  0.594757889085308  0.18435104771203464  1.0000
  H   H7        1.0  0.09710800148126707  0.20512135546052696  0.5449410953776166  1.0000
  H   H8        1.0  0.9062427773370205  0.7907872648728541  0.4517872218851409  1.0000
  H   H9        1.0  0.5362920444835808  0.14404864659945824  0.23523355503749596  1.0000
  H   H10       1.0  0.4605506501217036  0.8637038784158906  0.7679071414982629  1.0000
  H   H11       1.0  0.653900838318542  0.8446193853671601  0.11315775047432916  1.0000
  H   H12       1.0  0.34130277501038353  0.1647813398261206  0.8797417275715774  1.0000
  H   H13       1.0  0.8369320816502466  0.802888514167208  0.18107102919616838  1.0000
  H   H14       1.0  0.16279150478413837  0.21170833714530352  0.8085260533553296  1.0000
  H   H15       1.0  0.7653810719902125  0.980180643457885  0.12402878603459307  1.0000
  H   H16       1.0  0.22322452915020824  0.03370581455225621  0.868183548011416  1.0000
  H   H17       1.0  0.8829992405928166  0.2092009320185255  0.7239584420298399  1.0000
  H   H18       1.0  0.11909890429711113  0.7930983393797106  0.2702252173387052  1.0000
  H   H19       1.0  0.30301851174390043  0.18634720116695996  0.4044117633370803  1.0000
  H   H20       1.0  0.7018578835358299  0.8117547934114172  0.6011642559907031  1.0000
  H   H21       1.0  0.5830040747214158  0.6945310625871457  0.33710095108160937  1.0000
  H   H22       1.0  0.4151134131183981  0.30960556698551034  0.6516099361647676  1.0000
  H   H23       1.0  0.7999284436142343  0.873481844883493  0.9111029250689527  1.0000
  H   H24       1.0  0.17733392169891724  0.13615473590144936  0.08664294049623318  1.0000
  H   H25       1.0  0.6714588779596369  0.043113832008444306  0.8713082048783748  1.0000
  H   H26       1.0  0.32352563371625814  0.9738743584433681  0.12441543097575192  1.0000
  H   H27       1.0  0.8680453608892764  0.0298262553000654  0.923958262646579  1.0000
  H   H28       1.0  0.1276440896140015  0.9718101099573531  0.07539731938013013  1.0000
  C   C1        1.0  0.6906268216827487  0.47776434238211607  0.7307213148269797  1.0000
  C   C2        1.0  0.31928981528458433  0.5223940793894427  0.26823974877758866  1.0000
  C   C3        1.0  0.010585938101797893  0.5481703827490277  0.6635805595953528  1.0000
  C   C4        1.0  0.021536872046745304  0.4322889113505752  0.35286338107430754  1.0000
  C   C5        1.0  0.9015881984120214  0.4350273039576392  0.8487645428279222  1.0000
  C   C6        1.0  0.0832380773345633  0.5614644057292111  0.16598582587357674  1.0000
  C   C7        1.0  0.1765584094008474  0.9756964822991918  0.5614543666702475  1.0000
  C   C8        1.0  0.8254648267149777  0.0187669968424871  0.43882962878923587  1.0000
  C   C9        1.0  0.033458214155565685  0.8553894475278483  0.7202564668982704  1.0000
  C   C10       1.0  0.96072965370103  0.14614513276764285  0.28041313829979936  1.0000
  C   C11       1.0  0.5579555847148541  0.4229107294078887  0.8148760716429493  1.0000
  C   C12       1.0  0.4344660425227289  0.5874871332843769  0.18034001888118914  1.0000
  C   C13       1.0  0.08066475984427512  0.10624090280492741  0.596460655501879  1.0000
  C   C14       1.0  0.9221397889019587  0.8904204265109996  0.40118743031008813  1.0000
  C   C15       1.0  0.31201545647486034  0.9624029980652934  0.45826831392729156  1.0000
  C   C16       1.0  0.6913198246952279  0.0328723494038528  0.5404669629532393  1.0000
  C   C17       1.0  0.49470477484128844  0.054059041654944906  0.2912778950655337  1.0000
  C   C18       1.0  0.5042388353734991  0.9503557174068433  0.7086368559753425  1.0000
  C   C19       1.0  0.9363721463331487  0.9808157648576881  0.7625192854173619  1.0000
  C   C20       1.0  0.0583078553923144  0.022157789455214103  0.2364997869567205  1.0000
  C   C21       1.0  0.6359002567411095  0.5160870907102721  0.6243719825865669  1.0000
  C   C22       1.0  0.39742054936964893  0.4695963972723404  0.36649226256279377  1.0000
  C   C23       1.0  0.7712966402207613  0.37792002810827807  0.9316981778646748  1.0000
  C   C24       1.0  0.19780514832644505  0.6273606967487952  0.0788850157958692  1.0000
  C   C25       1.0  0.715605730794529  0.8841974806535405  0.16664481956308205  1.0000
  C   C26       1.0  0.2792480836378459  0.12717334138761058  0.8253812942141607  1.0000
  C   C27       1.0  0.9598758553791525  0.10805342137168591  0.6967639299653215  1.0000
  C   C28       1.0  0.040550868194962654  0.892311602379266  0.3000689543805564  1.0000
  C   C29       1.0  0.3636671291087126  0.07831058456418559  0.3866014457597089  1.0000
  C   C30       1.0  0.6385798177853419  0.920774787090167  0.6155031310620699  1.0000
  C   C31       1.0  0.519958786816531  0.805316500103622  0.3468410383704351  1.0000
  C   C32       1.0  0.4793564360062419  0.19845766871937093  0.6451727618959637  1.0000
  C   C33       1.0  0.5757621432428409  0.9151674674640871  0.26910461318895074  1.0000
  C   C34       1.0  0.42205187991380194  0.09123594996969331  0.7249761372744744  1.0000
  C   C35       1.0  0.8122854332810621  0.9809358662591592  0.8728224304628825  1.0000
  C   C36       1.0  0.17810899403534822  0.027103693970957497  0.1249878948811656  1.0000
  C   C37       1.0  0.5982893483098338  0.3709472976612318  0.9143191845700116  1.0000
  C   C38       1.0  0.3742300129329124  0.6417567631291162  0.08656943771261179  1.0000
  C   C39       1.0  0.8646226612251626  0.4841693809541425  0.7476496587146074  1.0000
  C   C40       1.0  0.14111521140170422  0.5100406021315322  0.2612426592960304  1.0000
  N   N1        1.0  0.3899230480505835  0.8275993497791562  0.437669561100101  1.0000
  N   N2        1.0  0.6135973260236727  0.17080118850496012  0.5561190834775758  1.0000
  N   N3        1.0  0.14945825940038296  0.851815738605531  0.6225622861389086  1.0000
  N   N4        1.0  0.848716827275844  0.1461879619211786  0.37984074297906295  1.0000
  Cl  Cl1       1.0  0.4356742428388359  0.29842326214665604  0.015246445316797985  1.0000
  Cl  Cl2       1.0  0.519112662685359  0.7231216971419839  0.9802108682799684  1.0000
  Cl  Cl3       1.0  0.8217267131773981  0.3187576437760242  0.05515465967416586  1.0000
  Cl  Cl4       1.0  0.1259752984341774  0.6851333255648981  0.9611350524718105  1.0000
  O   O1        1.0  0.17721492615422116  0.5225759762911933  0.6791258561183965  1.0000
  O   O2        1.0  0.8536140616060238  0.4342193176983357  0.34396656964221256  1.0000
  O   O3        1.0  0.5197942075632156  0.63098494490405  0.6123669236635294  1.0000
  O   O4        1.0  0.5230050258489103  0.3577050324106494  0.3605281389818629  1.0000
  O   O5        1.0  0.9659574490970543  0.6309639664182002  0.5847742247716496  1.0000
  O   O6        1.0  0.09152695743143367  0.3661607465739181  0.4279462257492598  1.0000
  O   O7        1.0  0.6999648325985959  0.42049859764981795  0.5628896760049429  1.0000
  O   O8        1.0  0.34660220665202957  0.5470704702230833  0.440900111192022  1.0000
