data_image0
_chemical_formula_structural       Ag4H36C24N16O20
_chemical_formula_sum              "Ag4 H36 C24 N16 O20"
_cell_length_a       9.386779481800586
_cell_length_b       9.386776381178121
_cell_length_c       12.371060759436812
_cell_angle_alpha    68.45433661175247
_cell_angle_beta     68.45440060922994
_cell_angle_gamma    74.75226143837418

_space_group_name_H-M_alt    "P 1"
_space_group_IT_number       1

loop_
  _space_group_symop_operation_xyz
  'x, y, z'

loop_
  _atom_site_type_symbol
  _atom_site_label
  _atom_site_symmetry_multiplicity
  _atom_site_fract_x
  _atom_site_fract_y
  _atom_site_fract_z
  _atom_site_occupancy
  Ag  Ag1       1.0  0.6985792832807506  0.5574261415126214  0.45284871716941655  1.0000
  Ag  Ag2       1.0  0.4425725640915559  0.3014184664810528  0.04715369751984606  1.0000
  Ag  Ag3       1.0  0.30142071389985153  0.4425721995976132  0.5471521621766796  1.0000
  Ag  Ag4       1.0  0.5574262892093175  0.6985798649230901  0.9528475017681473  1.0000
  H   H1        1.0  0.27446577305671843  0.9792121456744668  0.6152131252907367  1.0000
  H   H2        1.0  0.020788394148354396  0.7255358321975507  0.8847846801245183  1.0000
  H   H3        1.0  0.725535188734149  0.020787365078220398  0.3847863537889466  1.0000
  H   H4        1.0  0.9792122072574969  0.27446599658109955  0.11521344767083265  1.0000
  H   H5        1.0  0.16743875905071806  0.0999819005258118  0.8806333651162815  1.0000
  H   H6        1.0  0.900022022253346  0.8325620371750446  0.6193648042408881  1.0000
  H   H7        1.0  0.8325618405090579  0.900019926406088  0.1193655720437904  1.0000
  H   H8        1.0  0.0999799023017047  0.16743864137334444  0.380634083937096  1.0000
  H   H9        1.0  0.10840161625912971  0.014007472592020096  0.7988989885724322  1.0000
  H   H10       1.0  0.985994079142927  0.891600761858392  0.7011010257332161  1.0000
  H   H11       1.0  0.8916003064498456  0.9859932041096258  0.20110070897027987  1.0000
  H   H12       1.0  0.014006518570767004  0.10840106322676489  0.29889872079157703  1.0000
  H   H13       1.0  0.2506248520565322  0.14336798534067438  0.7174685801067043  1.0000
  H   H14       1.0  0.8566346484252778  0.7493731874794489  0.7825299168572215  1.0000
  H   H15       1.0  0.7493747865851434  0.856632675642274  0.28253013859033865  1.0000
  H   H16       1.0  0.1433687840866824  0.2506251864425623  0.2174683839337632  1.0000
  H   H17       1.0  0.3274510497989028  0.9382523693748087  0.32839127934069967  1.0000
  H   H18       1.0  0.06174652551013794  0.672549428330086  0.17160683038634517  1.0000
  H   H19       1.0  0.672547622386425  0.06174712011894459  0.6716096489874914  1.0000
  H   H20       1.0  0.9382531131315306  0.3274512326528622  0.8283918883107048  1.0000
  H   H21       1.0  0.3268320069298342  0.042629543072528996  0.4243294206446464  1.0000
  H   H22       1.0  0.957368827557481  0.6731701914349343  0.07566866970290673  1.0000
  H   H23       1.0  0.6731691322844213  0.9573688058970549  0.575671948124288  1.0000
  H   H24       1.0  0.042629486088912934  0.32683161793152476  0.924330097976231  1.0000
  H   H25       1.0  0.20010173545265542  0.8989188335204472  0.48176638456801163  1.0000
  H   H26       1.0  0.10108166990460891  0.7998985853972372  0.018232100284805538  1.0000
  H   H27       1.0  0.799899041530509  0.1010818316283562  0.5182344422813115  1.0000
  H   H28       1.0  0.8989181480065298  0.2001009156493581  0.9817676987367747  1.0000
  H   H29       1.0  0.7126713658307792  0.5109088321220696  0.8166878606782718  1.0000
  H   H30       1.0  0.48909093348419935  0.2873279978678199  0.6833135225062535  1.0000
  H   H31       1.0  0.28732977338347615  0.48908951684751384  0.18331350809066294  1.0000
  H   H32       1.0  0.510909065542485  0.7126703450891653  0.3166865474751291  1.0000
  H   H33       1.0  0.7562486965652228  0.4594412302410049  0.6825924214839175  1.0000
  H   H34       1.0  0.5405579412869771  0.24375083492172678  0.8174083047565689  1.0000
  H   H35       1.0  0.2437511213459161  0.540558270805583  0.31740737753766274  1.0000
  H   H36       1.0  0.45944073089835075  0.756248654572019  0.18259262357162226  1.0000
  C   C1        1.0  0.45426556399437606  0.793642433444404  0.5646286039305294  1.0000
  C   C2        1.0  0.20635838976965468  0.5457344991862101  0.93537048641533  1.0000
  C   C3        1.0  0.5457352185270282  0.2063582372446291  0.43536979482462357  1.0000
  C   C4        1.0  0.793641245179856  0.45426615810324483  0.06462985101116188  1.0000
  C   C5        1.0  0.5905829340936181  0.6503486511074212  0.7019072194288399  1.0000
  C   C6        1.0  0.3496510082957159  0.40941564155835397  0.7980935121685562  1.0000
  C   C7        1.0  0.4094168819714384  0.3496508480924304  0.2980933889574544  1.0000
  C   C8        1.0  0.6503488077693405  0.5905838576414908  0.20190709621774516  1.0000
  C   C9        1.0  0.3990300479108199  0.8510800605259663  0.7476356234463637  1.0000
  C   C10       1.0  0.14892075043887598  0.6009702847759824  0.752364164572363  1.0000
  C   C11       1.0  0.6009709101878826  0.1489194465332275  0.2523654743627617  1.0000
  C   C12       1.0  0.851080030236446  0.3990303840663074  0.2476350435475182  1.0000
  C   C13       1.0  0.365215013016318  0.8862530734404572  0.6388524332599061  1.0000
  C   C14       1.0  0.11374886673277732  0.6347860073912628  0.8611468267672607  1.0000
  C   C15       1.0  0.634785767659004  0.11374759540183278  0.3611467748599678  1.0000
  C   C16       1.0  0.8862519120964624  0.3652146596042911  0.13885319071734145  1.0000
  C   C17       1.0  0.20484262884414053  0.0551180748186724  0.8032845256986434  1.0000
  C   C18       1.0  0.9448852469685036  0.7951561313876354  0.6967127870426565  1.0000
  C   C19       1.0  0.7951570079514526  0.9448825843175256  0.1967150023631206  1.0000
  C   C20       1.0  0.055118185543449306  0.2048422425343759  0.3032855137483281  1.0000
  C   C21       1.0  0.31315370443191887  0.931686999045219  0.4217207424763174  1.0000
  C   C22       1.0  0.06831261578970067  0.6868476829224122  0.0782777210482664  1.0000
  C   C23       1.0  0.6868461097870551  0.06831249830788269  0.5782806752746978  1.0000
  C   C24       1.0  0.9316858771261567  0.3131529665076869  0.9217221269553947  1.0000
  N   N1        1.0  0.5668771345278144  0.6777691553766871  0.5931469853308827  1.0000
  N   N2        1.0  0.32222993030224967  0.4331217809736286  0.9068546016299663  1.0000
  N   N3        1.0  0.4331213565419603  0.32223149220666875  0.4068536720374992  1.0000
  N   N4        1.0  0.6777672339261686  0.5668800131465019  0.09314691408521714  1.0000
  N   N5        1.0  0.5093257616878263  0.7354125720044139  0.7801140442330592  1.0000
  N   N6        1.0  0.26458792609101783  0.49067345855569744  0.7198854096019005  1.0000
  N   N7        1.0  0.4906738751077598  0.2645880871317843  0.21988548382871181  1.0000
  N   N8        1.0  0.735411710704568  0.5093272005805005  0.28011411845987055  1.0000
  N   N9        1.0  0.6981289501010863  0.534171132612613  0.7341135758807908  1.0000
  N   N10       1.0  0.46582898837896664  0.30186763673412986  0.7658884656984953  1.0000
  N   N11       1.0  0.3018697239303165  0.4658283587278831  0.2658865430826722  1.0000
  N   N12       1.0  0.5341698630758244  0.6981306928232626  0.2341135429542263  1.0000
  N   N13       1.0  0.0214235009989423  0.7147229706411264  0.40183438769497565  1.0000
  N   N14       1.0  0.28527798805639293  0.9785750655745388  0.09816365101630714  1.0000
  N   N15       1.0  0.9785749956090728  0.2852776824824658  0.5981638415792432  1.0000
  N   N16       1.0  0.7147229718883993  0.021424443331404995  0.9018366374280973  1.0000
  O   O1        1.0  0.9685155508235185  0.6261766698209428  0.3734501909177653  1.0000
  O   O2        1.0  0.3738241384135321  0.0314810348840879  0.1265496086463074  1.0000
  O   O3        1.0  0.03148180005868542  0.3738239717498074  0.6265491676630647  1.0000
  O   O4        1.0  0.6261745319257133  0.9685184527629144  0.8734521290466051  1.0000
  O   O5        1.0  0.16467183012041178  0.6860947320470456  0.3954600610867161  1.0000
  O   O6        1.0  0.31390299046735487  0.8353288513321004  0.10453834859067258  1.0000
  O   O7        1.0  0.8353293164781662  0.3139036243095246  0.6045380702233273  1.0000
  O   O8        1.0  0.6860966444821558  0.1646718059573544  0.8954619888358195  1.0000
  O   O9        1.0  0.9362301199451792  0.8298883773183832  0.4332275617903817  1.0000
  O   O10       1.0  0.17011245288765767  0.06377088012222032  0.06677092502171428  1.0000
  O   O11       1.0  0.06376951500433138  0.17011227997107173  0.5667727756361032  1.0000
  O   O12       1.0  0.8298883259415818  0.9362297868733265  0.9332290924628879  1.0000
  O   O13       1.0  0.325225552853432  0.9273542004651245  0.8294749450917964  1.0000
  O   O14       1.0  0.07264862139552973  0.6747759870439579  0.6705247063680417  1.0000
  O   O15       1.0  0.6747763698555431  0.0726464762365211  0.1705247524509161  1.0000
  O   O16       1.0  0.9273542640776286  0.3252258574533826  0.3294744002729642  1.0000
  O   O17       1.0  0.43536355500479834  0.8120251418396193  0.4574848177566864  1.0000
  O   O18       1.0  0.18797422519963897  0.5646367801265911  0.042514090726328356  1.0000
  O   O19       1.0  0.5646360817907877  0.18797551729657871  0.5425147103050776  1.0000
  O   O20       1.0  0.8120244488317638  0.43536271121390496  0.9574860282371348  1.0000
