data_image0
_chemical_formula_structural       Cu2H12C28N14
_chemical_formula_sum              "Cu2 H12 C28 N14"
_cell_length_a       4.788807717077565
_cell_length_b       10.375589271257708
_cell_length_c       15.9036342950182
_cell_angle_alpha    90.0001700749808
_cell_angle_beta     89.99992706021449
_cell_angle_gamma    103.32450210630796

_space_group_name_H-M_alt    "P 1"
_space_group_IT_number       1

loop_
  _space_group_symop_operation_xyz
  'x, y, z'

loop_
  _atom_site_type_symbol
  _atom_site_label
  _atom_site_symmetry_multiplicity
  _atom_site_fract_x
  _atom_site_fract_y
  _atom_site_fract_z
  _atom_site_occupancy
  Cu  Cu1       1.0  0.27951992747419036  7.615796105400002e-05  0.49997183044491333  1.0000
  Cu  Cu2       1.0  0.7204766303223804  0.9999228991718565  0.9999728947362814  1.0000
  H   H1        1.0  0.7577003001784702  0.6149341112170887  0.4731482775090755  1.0000
  H   H2        1.0  0.24230724864221995  0.38506581961598846  0.9731483327699595  1.0000
  H   H3        1.0  0.1425138335283833  0.38504659978401184  0.5269000372871346  1.0000
  H   H4        1.0  0.8574800217246618  0.614951402708762  0.02690057259968631  1.0000
  H   H5        1.0  0.8625305606418789  0.7059401702669988  0.3782084110482416  1.0000
  H   H6        1.0  0.13747877783265489  0.2940583594546879  0.8782083300126973  1.0000
  H   H7        1.0  0.15652213127005862  0.2940593459375264  0.6218361082677077  1.0000
  H   H8        1.0  0.8434787817365429  0.7059410474876769  0.12183745417843281  1.0000
  H   H9        1.0  0.5227084643622674  0.5888637654137766  0.3836693785760802  1.0000
  H   H10       1.0  0.47729926959372887  0.4111357785387355  0.8836687655301462  1.0000
  H   H11       1.0  0.9336348404198845  0.41112765795949713  0.6163826023685317  1.0000
  H   H12       1.0  0.06636608387076144  0.5888727118852232  0.11638339034966803  1.0000
  C   C1        1.0  0.7298611109760458  0.25363281922508923  0.28196333009312013  1.0000
  C   C2        1.0  0.2701394707229881  0.746368266539463  0.7819640753134893  1.0000
  C   C3        1.0  0.4764855529561843  0.7462307931335843  0.7180245623568596  1.0000
  C   C4        1.0  0.5235162593531796  0.2537680350897348  0.21802263892069365  1.0000
  C   C5        1.0  0.7275485198835269  0.11896554572333433  0.3011720169135615  1.0000
  C   C6        1.0  0.2724504288529914  0.8810366137119274  0.8011717648186549  1.0000
  C   C7        1.0  0.6085978427028849  0.880837798323718  0.698625328111689  1.0000
  C   C8        1.0  0.39140659277034473  0.1191619363335832  0.1986250806498262  1.0000
  C   C9        1.0  0.5180180296968045  0.03602079843943071  0.24983716946830015  1.0000
  C   C10       1.0  0.481981628664741  0.9639781674938066  0.7498376266871605  1.0000
  C   C11       1.0  0.905813297654511  0.36279763077649113  0.322921964763431  1.0000
  C   C12       1.0  0.09418719930129527  0.6372036320775153  0.822921308163636  1.0000
  C   C13       1.0  0.5428152726473668  0.6368952409126862  0.6770828583381745  1.0000
  C   C14       1.0  0.4571871192746571  0.3631044007567681  0.17708180113579175  1.0000
  C   C15       1.0  0.9079185972801368  0.07772054526721918  0.35915931699402404  1.0000
  C   C16       1.0  0.09207605522924937  0.9222818652040348  0.859160471593235  1.0000
  C   C17       1.0  0.8302640102556822  0.9220218867846628  0.6406813372297081  1.0000
  C   C18       1.0  0.1697421383256241  0.0779766067202985  0.14068109486953526  1.0000
  C   C19       1.0  0.44801557532835545  0.8967929839342831  0.250000873337882  1.0000
  C   C20       1.0  0.5519887538476596  0.10320697285422403  0.7500002633196773  1.0000
  C   C21       1.0  0.6801601297249532  0.6627958631780331  0.41915627733466476  1.0000
  C   C22       1.0  0.31984961893107305  0.3372038340531561  0.919156210060571  1.0000
  C   C23       1.0  0.01718306833704021  0.33717235631124964  0.5808996217756501  1.0000
  C   C24       1.0  0.9828174344652965  0.6628268696520295  0.0809002018845035  1.0000
  C   C25       1.0  0.5437436942809057  0.7646415365274423  0.44819253267680653  1.0000
  C   C26       1.0  0.45626231295290137  0.23535927702705095  0.9481934731920705  1.0000
  C   C27       1.0  0.7789662591283175  0.23534804127098852  0.5518751935547854  1.0000
  C   C28       1.0  0.22103221560318068  0.764651059354847  0.05187500554338701  1.0000
  N   N1        1.0  0.05481827645754581  0.44926005706417277  0.3601533243445304  1.0000
  N   N2        1.0  0.9451822519750407  0.5507374047532352  0.8601515450940698  1.0000
  N   N3        1.0  0.6045808700966475  0.5502999551967988  0.6397585893974951  1.0000
  N   N4        1.0  0.3954175313105423  0.44969556339716377  0.13975772379095733  1.0000
  N   N5        1.0  0.06453299703104419  0.045477843437957695  0.40685483484778473  1.0000
  N   N6        1.0  0.9354704041966498  0.9545257630866927  0.906854471119708  1.0000
  N   N7        1.0  0.019333623928005517  0.954510715721909  0.5930986895612804  1.0000
  N   N8        1.0  0.9806647655105961  0.045488563142029606  0.093098702152183  1.0000
  N   N9        1.0  0.38958564510495103  0.7808503497703683  0.2503453474472224  1.0000
  N   N10       1.0  0.6104228596082351  0.21914960819011498  0.7503430535038051  1.0000
  N   N11       1.0  0.4345966020820312  0.8475002203232974  0.471120726547298  1.0000
  N   N12       1.0  0.5654088628082902  0.1524997019029968  0.9711220933340244  1.0000
  N   N13       1.0  0.5869757568694851  0.15254367918177536  0.5289608907673512  1.0000
  N   N14       1.0  0.413023260176878  0.8474563128320723  0.028960160950525407  1.0000
