data_image0
_chemical_formula_structural       Hf6H28C52O32
_chemical_formula_sum              "Hf6 H28 C52 O32"
_cell_length_a       16.651800748038188
_cell_length_b       17.376406381040244
_cell_length_c       17.39912104933897
_cell_angle_alpha    110.22183615692819
_cell_angle_beta     89.8637588714271
_cell_angle_gamma    89.9327156120658

_space_group_name_H-M_alt    "P 1"
_space_group_IT_number       1

loop_
  _space_group_symop_operation_xyz
  'x, y, z'

loop_
  _atom_site_type_symbol
  _atom_site_label
  _atom_site_symmetry_multiplicity
  _atom_site_fract_x
  _atom_site_fract_y
  _atom_site_fract_z
  _atom_site_occupancy
  Hf  Hf1       1.0  0.8979099028187462  0.10522745176757548  0.11040232142186567  1.0000
  Hf  Hf2       1.0  0.11140280272305599  0.09130450825044531  0.09915376693589908  1.0000
  Hf  Hf3       1.0  0.8858059185589652  0.9257551366882736  0.935650939510843  1.0000
  Hf  Hf4       1.0  0.0953415813760401  0.9159363047413294  0.9237084884627362  1.0000
  Hf  Hf5       1.0  0.9978057856092167  0.09641220529456258  0.929835638933241  1.0000
  Hf  Hf6       1.0  0.9983520135138377  0.9230532929344831  0.10515635686606124  1.0000
  H   H1        1.0  0.9999135172179052  0.09354471250821211  0.22714474117572075  1.0000
  H   H2        1.0  0.17316290785208108  0.0677268954121217  0.9447393968490726  1.0000
  H   H3        1.0  0.99451700744158  0.7984819212580163  0.9423939534296717  1.0000
  H   H4        1.0  0.8280263801920498  0.0813221665218009  0.9532534499343012  1.0000
  H   H5        1.0  0.264265113533952  0.12647942306303145  0.07231463211804369  1.0000
  H   H6        1.0  0.24545429983251674  0.8568807296707135  0.9217151409249664  1.0000
  H   H7        1.0  0.0906535745627508  0.809407069853016  0.7718902440669096  1.0000
  H   H8        1.0  0.9764505377407032  0.8088282484158001  0.8165489142796502  1.0000
  H   H9        1.0  0.7321064067102937  0.9078548516796587  0.9616738941428123  1.0000
  H   H10       1.0  0.7578287168983664  0.0273682692675763  0.03688065943156719  1.0000
  H   H11       1.0  0.8867178691209218  0.251497110531453  0.22133159159816526  1.0000
  H   H12       1.0  0.15400898295058602  0.1920755250548467  0.24994227764141633  1.0000
  H   H13       1.0  0.8937055031169479  0.8287585408435092  0.7765795589089777  1.0000
  H   H14       1.0  0.7477020355260393  0.0669241066858106  0.13603094249265973  1.0000
  H   H15       1.0  0.1371457766692288  0.24726383222282078  0.19555339730186458  1.0000
  H   H16       1.0  0.2470167886099048  0.8966914220024406  0.8512319297102449  1.0000
  H   H17       1.0  0.627979424963314  0.9989398898299275  0.39196025809589236  1.0000
  H   H18       1.0  0.6320898314577975  0.006558473633027999  0.642676111347107  1.0000
  H   H19       1.0  0.8545187782608181  0.9999774064373315  0.5124190800412122  1.0000
  H   H20       1.0  0.14208565876116103  0.0025810499531502  0.5103493155749419  1.0000
  H   H21       1.0  0.36301727379467513  0.002917227764527299  0.6400396051822027  1.0000
  H   H22       1.0  0.37008890859919324  0.004291005704629901  0.3924103449193764  1.0000
  H   H23       1.0  0.8554302489694053  0.5174514702026656  0.021404164995324566  1.0000
  H   H24       1.0  0.6363398598091193  0.3840483070082357  0.019209086995807895  1.0000
  H   H25       1.0  0.6258829747296346  0.6334650454043141  0.022215623643113136  1.0000
  H   H26       1.0  0.1433456455556836  0.514879966055709  0.01872154420230747  1.0000
  H   H27       1.0  0.3638194597998138  0.38274986022478436  0.015875847301138925  1.0000
  H   H28       1.0  0.3718082931377609  0.6339835643481564  0.02453893938803731  1.0000
  C   C1        1.0  0.8753117085424194  0.24016667928302843  0.019107700962720704  1.0000
  C   C2        1.0  0.13563631119634323  0.002199850061551  0.23675028297585493  1.0000
  C   C3        1.0  0.1259336641074214  0.23625739903199164  0.012607673000125911  1.0000
  C   C4        1.0  0.8628251975141197  0.9984980153602832  0.2373598282417858  1.0000
  C   C5        1.0  0.8582907179558178  0.792655996185978  0.02525461861034015  1.0000
  C   C6        1.0  0.12224069277365153  0.002291306368889  0.7844560163511642  1.0000
  C   C7        1.0  0.1339242823918454  0.7879369697071752  0.022659316483618932  1.0000
  C   C8        1.0  0.8680340444793587  0.008214780073032599  0.7913821949098432  1.0000
  C   C9        1.0  0.7458811810162873  0.9986370657123372  0.44378420594249934  1.0000
  C   C10       1.0  0.6614965692061006  7.647622911119997e-05  0.4459978193901576  1.0000
  C   C11       1.0  0.6200850757323481  0.0028170026695662  0.5174973912112433  1.0000
  C   C12       1.0  0.6637708568945796  0.004476833597443901  0.5871697781582765  1.0000
  C   C13       1.0  0.7482081560652389  0.0036697315250649  0.585526773922808  1.0000
  C   C14       1.0  0.7891698925006806  0.0006278886579522999  0.5137744829496993  1.0000
  C   C15       1.0  0.25163716000039227  0.0028842178222419  0.4431635789527703  1.0000
  C   C16       1.0  0.2074120474320509  0.0028739838609297  0.512063863717472  1.0000
  C   C17       1.0  0.2475853031770683  0.0030980696833609  0.5830770325370123  1.0000
  C   C18       1.0  0.33195899335807155  0.0030772409562231998  0.585087770971725  1.0000
  C   C19       1.0  0.3766021568936253  0.003613232399772  0.5164956985907523  1.0000
  C   C20       1.0  0.3359849556072732  0.003739413884559901  0.44569319236639854  1.0000
  C   C21       1.0  0.7450222005134536  0.5837980676802416  0.022410786718467135  1.0000
  C   C22       1.0  0.7901187884076464  0.5149212862053149  0.021207476600004327  1.0000
  C   C23       1.0  0.7509741116527594  0.4427928752270772  0.019742047514448333  1.0000
  C   C24       1.0  0.6665887803363901  0.4397905544775398  0.019855745783424108  1.0000
  C   C25       1.0  0.6211811218718496  0.5083854681277771  0.020644894390983354  1.0000
  C   C26       1.0  0.6607581762539709  0.5802400205617458  0.021695518501452682  1.0000
  C   C27       1.0  0.25312857928139465  0.5827205642134176  0.02227023183528595  1.0000
  C   C28       1.0  0.20866649600787918  0.5129872427886043  0.019245757453511224  1.0000
  C   C29       1.0  0.2485046346992448  0.44080064649563167  0.01673790807918611  1.0000
  C   C30       1.0  0.3329142390394964  0.4385868201855558  0.017571209313714985  1.0000
  C   C31       1.0  0.3777750678640004  0.5080463683124636  0.020260298294324762  1.0000
  C   C32       1.0  0.33744790409662784  0.5800413827982568  0.022513635077928067  1.0000
  C   C33       1.0  0.5361026022278992  0.5060307959976598  0.02046296176243351  1.0000
  C   C34       1.0  0.46287173608139653  0.5060991472616722  0.02042919068689033  1.0000
  C   C35       1.0  0.46170689712919  0.0037852964266277996  0.5182671518072863  1.0000
  C   C36       1.0  0.5349457358288491  0.003634631409759901  0.5187110972237008  1.0000
  C   C37       1.0  0.16462914550346136  0.0024404984648783005  0.7121012073234423  1.0000
  C   C38       1.0  0.20296873848168673  0.0027530720539488  0.6525285116206019  1.0000
  C   C39       1.0  0.21133885150867832  0.0021711092992973  0.37122369076771367  1.0000
  C   C40       1.0  0.17690365164182958  0.0013209686766729  0.3093302477219878  1.0000
  C   C41       1.0  0.827730436536477  0.006625829911371301  0.7174142926922185  1.0000
  C   C42       1.0  0.791516557474587  0.0054318979701121995  0.6562939146683603  1.0000
  C   C43       1.0  0.7867065454103114  0.9961921295408589  0.37127960766708407  1.0000
  C   C44       1.0  0.8207746209741346  0.9950723366896312  0.3088969080379727  1.0000
  C   C45       1.0  0.17816091683393154  0.7173197642521175  0.024916497581649835  1.0000
  C   C46       1.0  0.2129153682314922  0.6553557675369959  0.024094232825959253  1.0000
  C   C47       1.0  0.16595842362703192  0.30995968166486415  0.012473145239127304  1.0000
  C   C48       1.0  0.20379048725305182  0.3704221502580793  0.014075269203758007  1.0000
  C   C49       1.0  0.7840237705434846  0.6568566862662736  0.024054218576196742  1.0000
  C   C50       1.0  0.8168719859523534  0.7198603894362138  0.025414160374012326  1.0000
  C   C51       1.0  0.8338016026122687  0.3129855150032981  0.018496563060416825  1.0000
  C   C52       1.0  0.7961005332139094  0.37315619086358254  0.018809291058914806  1.0000
  O   O1        1.0  0.859232926899054  0.21550805088880057  0.0781416353292741  1.0000
  O   O2        1.0  0.9235197468978813  0.20669073239968588  0.9595151615122857  1.0000
  O   O3        1.0  0.15371577145102583  0.0600045670196181  0.2107002108263031  1.0000
  O   O4        1.0  0.0844282032764028  0.9455735178819538  0.2059804835029482  1.0000
  O   O5        1.0  0.1402095414686144  0.2136047086629915  0.0734913381821656  1.0000
  O   O6        1.0  0.08201041912909801  0.19905735152826756  0.9510891181649082  1.0000
  O   O7        1.0  0.8381314354798662  0.0498348509747615  0.20590497972943206  1.0000
  O   O8        1.0  0.9229306113150244  0.9498415569787042  0.21323010266960546  1.0000
  O   O9        1.0  0.9014978252086578  0.19635899179183264  0.2175854548208774  1.0000
  O   O10       1.0  0.7650862581963267  0.08021494897197101  0.08837813290294597  1.0000
  O   O11       1.0  0.11366284979344242  0.20667551023883138  0.2165439892435898  1.0000
  O   O12       1.0  0.2309620992781518  0.093836913203063  0.09479016675137328  1.0000
  O   O13       1.0  0.0033537827326454994  0.12135909972523251  0.052726162129658895  1.0000
  O   O14       1.0  0.0018217452072733  0.0661710315586888  0.16807867843053964  1.0000
  O   O15       1.0  0.8368718806225531  0.8227079974257024  0.971017644945142  1.0000
  O   O16       1.0  0.9133072104118866  0.8194703677142954  0.07857723513300385  1.0000
  O   O17       1.0  0.1387446507772196  0.9429535450638156  0.809777206093109  1.0000
  O   O18       1.0  0.07380339082725838  0.060901290916383695  0.8173326738739772  1.0000
  O   O19       1.0  0.1547562532986362  0.817710411516849  0.9678116201487794  1.0000
  O   O20       1.0  0.0768360506505559  0.813087711907059  0.07388319575954952  1.0000
  O   O21       1.0  0.8513973843287914  0.9502603532135084  0.818012397674124  1.0000
  O   O22       1.0  0.9157145762989956  0.06794290021648659  0.8239120608982301  1.0000
  O   O23       1.0  0.913816553587246  0.8151397294937724  0.822964177342669  1.0000
  O   O24       1.0  0.7639263746928152  0.9531693514940828  0.9576612001740725  1.0000
  O   O25       1.0  0.0674726965524144  0.8106144538270855  0.8235998411960066  1.0000
  O   O26       1.0  0.2337105932563759  0.9062970048152366  0.9084391396094272  1.0000
  O   O27       1.0  0.9940020482213469  0.8580315843210117  0.963825089532605  1.0000
  O   O28       1.0  0.9943133172876913  0.972738270206797  0.9070505332597419  1.0000
  O   O29       1.0  0.9126117273660198  0.9754708972142722  0.0567181881560543  1.0000
  O   O30       1.0  0.12370499731897412  0.0503150872759193  0.9632674908329546  1.0000
  O   O31       1.0  0.8764639510456008  0.06216924314705349  0.9719850554243616  1.0000
  O   O32       1.0  0.08857697882102401  0.9683027744515086  0.05129293545758877  1.0000
