data_image0
_chemical_formula_structural       Cu12H48C84N36
_chemical_formula_sum              "Cu12 H48 C84 N36"
_cell_length_a       21.738690444840458
_cell_length_b       27.16444132493567
_cell_length_c       29.127655865780604
_cell_angle_alpha    89.51010532861696
_cell_angle_beta     92.45848590249112
_cell_angle_gamma    89.98284046997962

_space_group_name_H-M_alt    "P 1"
_space_group_IT_number       1

loop_
  _space_group_symop_operation_xyz
  'x, y, z'

loop_
  _atom_site_type_symbol
  _atom_site_label
  _atom_site_symmetry_multiplicity
  _atom_site_fract_x
  _atom_site_fract_y
  _atom_site_fract_z
  _atom_site_occupancy
  Cu  Cu1       1.0  0.41949709131724683  0.433214698262951  0.3550032745331535  1.0000
  Cu  Cu2       1.0  0.35867726768389463  0.39863815838648253  0.4433876333492747  1.0000
  Cu  Cu3       1.0  0.41291090703826666  0.31953279046646105  0.3737070126300636  1.0000
  Cu  Cu4       1.0  0.6333395008668817  0.11193679517519681  0.8343507849312529  1.0000
  Cu  Cu5       1.0  0.6328707554059533  0.10505085747919202  0.9429029218419203  1.0000
  Cu  Cu6       1.0  0.5517280667254736  0.1844153896054266  0.8866550106419098  1.0000
  Cu  Cu7       1.0  0.910262983265028  0.5713212340957412  0.1478103952442851  1.0000
  Cu  Cu8       1.0  0.8539367537172777  0.5971361304806211  0.0509265973897755  1.0000
  Cu  Cu9       1.0  0.914530489377249  0.680973621167098  0.11750798246736589  1.0000
  Cu  Cu10      1.0  0.11678280705550041  0.9036978938191496  0.6682181957275901  1.0000
  Cu  Cu11      1.0  0.1257744168207466  0.8915738648849327  0.5631685523037503  1.0000
  Cu  Cu12      1.0  0.06450660298204981  0.8068091736005838  0.624755627013684  1.0000
  H   H1        1.0  0.3512997197017285  0.5348014084654338  0.3352602989344291  1.0000
  H   H2        1.0  0.27109600065156775  0.49114238902163976  0.4632829394188675  1.0000
  H   H3        1.0  0.48608447036842517  0.2797334598878081  0.286920140950933  1.0000
  H   H4        1.0  0.5182542029603993  0.43718841678889936  0.2784921360351831  1.0000
  H   H5        1.0  0.3505964595227836  0.33011588874549597  0.5317866483583842  1.0000
  H   H6        1.0  0.39004357895089464  0.2207484867231813  0.42950202392290754  1.0000
  H   H7        1.0  0.733441662879244  0.03214517974021191  0.8139552916053175  1.0000
  H   H8        1.0  0.7084501285212568  0.0041359478953709  0.9589077203794218  1.0000
  H   H9        1.0  0.44674875791914553  0.20799903860706342  0.8073833160543984  1.0000
  H   H10       1.0  0.5752307456747728  0.11994613724120029  0.7330834827818222  1.0000
  H   H11       1.0  0.6376678880154785  0.15215258036897691  0.042262581617635  1.0000
  H   H12       1.0  0.5462910986215235  0.2679641683914227  0.9618437177942241  1.0000
  H   H13       1.0  0.8342379572743182  0.4762466501889051  0.1722035436221034  1.0000
  H   H14       1.0  0.7630007034079327  0.5047324556014416  0.03301452659596999  1.0000
  H   H15       1.0  0.9960643932640707  0.727060023189921  0.2033623193521379  1.0000
  H   H16       1.0  0.0091726645550878  0.5700979273802886  0.231085447797696  1.0000
  H   H17       1.0  0.8433977838698468  0.6588030679938583  0.9574509144420347  1.0000
  H   H18       1.0  0.8901310759690589  0.7747413242748921  0.0542648276804201  1.0000
  H   H19       1.0  0.21472094643176123  0.9891397216935118  0.6877947296840219  1.0000
  H   H20       1.0  0.20746148693643812  0.9865778926807991  0.5386452034238686  1.0000
  H   H21       1.0  0.972722400494355  0.7713111238908894  0.7034505804608813  1.0000
  H   H22       1.0  0.039154920964136905  0.911130194981304  0.7565649479710288  1.0000
  H   H23       1.0  0.11880377607779738  0.8409944262660504  0.46621225948187117  1.0000
  H   H24       1.0  0.07236683879585118  0.7179154309084976  0.5539525338595936  1.0000
  H   H25       1.0  0.7530408331592539  0.9213918850651056  0.9458508641348898  1.0000
  H   H26       1.0  0.8141876771658758  0.9727414527538726  0.817738044216419  1.0000
  H   H27       1.0  0.9089257636595816  0.9125647949643038  0.7653385527261207  1.0000
  H   H28       1.0  0.9649233186494612  0.7715404358705841  0.8139897877898434  1.0000
  H   H29       1.0  0.9163902921300106  0.7312731656591538  0.9069173501964228  1.0000
  H   H30       1.0  0.8024758244550653  0.8206724127332733  0.9861564005068857  1.0000
  H   H31       1.0  0.2522376909905971  0.5997503515335013  0.4586529337577759  1.0000
  H   H32       1.0  0.2266374559707813  0.554600198508794  0.32034929227093295  1.0000
  H   H33       1.0  0.122271814948725  0.5996990777203022  0.2587126073413515  1.0000
  H   H34       1.0  0.0145812986574967  0.7172517506921777  0.30616843704716246  1.0000
  H   H35       1.0  0.04627392438884209  0.7618351693744358  0.4049315587492117  1.0000
  H   H36       1.0  0.1758235029119248  0.6883824465381424  0.49398820821041767  1.0000
  H   H37       1.0  0.2512572367235961  0.07478928598060719  0.5455980695128702  1.0000
  H   H38       1.0  0.3091462856619955  0.0354879597890445  0.6818308392170849  1.0000
  H   H39       1.0  0.40783844708809625  0.09622218024596661  0.7349119472620913  1.0000
  H   H40       1.0  0.481360524743252  0.2247483426345411  0.6750706152035946  1.0000
  H   H41       1.0  0.4318053487400846  0.2592767868455539  0.577349366614456  1.0000
  H   H42       1.0  0.30439547099096836  0.1713028605237739  0.5006300737002363  1.0000
  H   H43       1.0  0.7425844606415809  0.3964634108497194  0.0481581197636913  1.0000
  H   H44       1.0  0.7098002619962216  0.4587843655295458  0.17762336562608277  1.0000
  H   H45       1.0  0.6119111766051758  0.41435120045120033  0.2384639087195382  1.0000
  H   H46       1.0  0.5168743369945973  0.28403818884443416  0.1994885054426447  1.0000
  H   H47       1.0  0.5472536483546477  0.23246155934572954  0.1057781559240496  1.0000
  H   H48       1.0  0.6702290716138678  0.30186804149481367  0.016872954448054114  1.0000
  C   C1        1.0  0.3386773064368782  0.5171251325582134  0.36704442981806545  1.0000
  C   C2        1.0  0.2936211192942437  0.5303182274604836  0.3975719104029665  1.0000
  C   C3        1.0  0.2978861027190334  0.49503221594611085  0.4328836044324049  1.0000
  C   C4        1.0  0.4873874062562892  0.319353054780521  0.29099956053901366  1.0000
  C   C5        1.0  0.5190893404427187  0.35527667553853337  0.2666355100831126  1.0000
  C   C6        1.0  0.5043626487290851  0.3999985965268138  0.2870204527038637  1.0000
  C   C7        1.0  0.36120857728445077  0.3100840158078454  0.5010440289711227  1.0000
  C   C8        1.0  0.36908362741944245  0.2594309598444298  0.495158558736442  1.0000
  C   C9        1.0  0.3807246042822285  0.2538155862738804  0.44863524055760706  1.0000
  C   C10       1.0  0.7213433055488351  0.03231479242955259  0.8496628601324758  1.0000
  C   C11       1.0  0.7377984716574417  0.9997256241255598  0.8856087383465336  1.0000
  C   C12       1.0  0.70809247116307  0.017706098344149303  0.9237960870169885  1.0000
  C   C13       1.0  0.4852227067752252  0.18643228864902986  0.7960851219613402  1.0000
  C   C14       1.0  0.49426683841289076  0.1651498983318547  0.7533338187281727  1.0000
  C   C15       1.0  0.5512861590509034  0.1413968240081758  0.7580097611822225  1.0000
  C   C16       1.0  0.6138593028035118  0.1747367012555117  0.016241644566456204  1.0000
  C   C17       1.0  0.5946246174002497  0.22379598023288594  0.018189055538236708  1.0000
  C   C18       1.0  0.5673556775961258  0.23408020853135272  0.9747792136860125  1.0000
  C   C19       1.0  0.8240788077076358  0.490001028493367  0.1376200372494267  1.0000
  C   C20       1.0  0.7802642128134066  0.4738007209445527  0.1045263536716377  1.0000
  C   C21       1.0  0.787826291357092  0.504212253374277  0.0661287657090526  1.0000
  C   C22       1.0  0.9921515138803088  0.6872522763765119  0.2037649374973967  1.0000
  C   C23       1.0  0.020311881849970296  0.6524034771451922  0.23351573520559296  1.0000
  C   C24       1.0  0.999327518458472  0.6066955956268173  0.2175041222002676  1.0000
  C   C25       1.0  0.8561953211654157  0.6809496459832474  0.9871591828439605  1.0000
  C   C26       1.0  0.8639621825900575  0.7319416364539039  0.9905044515451564  1.0000
  C   C27       1.0  0.8794935721415056  0.740423054721994  0.0368774946928667  1.0000
  C   C28       1.0  0.20640212845522396  0.9816833531273091  0.6515616402360961  1.0000
  C   C29       1.0  0.22937078426208757  0.005277143013415799  0.6129364499612464  1.0000
  C   C30       1.0  0.2022211757784333  0.9807578938102709  0.5751239916507983  1.0000
  C   C31       1.0  0.996307010491833  0.8057941510558921  0.7104621731650127  1.0000
  C   C32       1.0  0.987909432485672  0.8401048540860643  0.7452253564944016  1.0000
  C   C33       1.0  0.0302359127504914  0.8776855975768356  0.7373284392429794  1.0000
  C   C34       1.0  0.1061894467219275  0.8166339222792516  0.4939654633328701  1.0000
  C   C35       1.0  0.09770696134346221  0.7656111123153694  0.494106931166904  1.0000
  C   C36       1.0  0.0829666397248801  0.7535516521058625  0.5391414210024266  1.0000
  C   C37       1.0  0.8175479508294357  0.8841391629095273  0.8984465018466705  1.0000
  C   C38       1.0  0.8382058303857747  0.8368145233832462  0.9159443038270252  1.0000
  C   C39       1.0  0.8766875606912804  0.806043128867799  0.8886322191858227  1.0000
  C   C40       1.0  0.8980433502896332  0.8240103145163715  0.8453235686332831  1.0000
  C   C41       1.0  0.8795472410759755  0.872422086734865  0.8289485352933424  1.0000
  C   C42       1.0  0.8378128837923952  0.9016016405986846  0.8545234988760483  1.0000
  C   C43       1.0  0.7790067275714917  0.9199934760498816  0.9149745381406617  1.0000
  C   C44       1.0  0.810687588067303  0.9470994018481418  0.8461809184372412  1.0000
  C   C45       1.0  0.9097417848492668  0.8813860797843417  0.7888269354824188  1.0000
  C   C46       1.0  0.9384466881955617  0.8053423432825896  0.8141486800679514  1.0000
  C   C47       1.0  0.8882595667965489  0.7631415141402158  0.9136159169520397  1.0000
  C   C48       1.0  0.828908788132061  0.8115684278475045  0.956669499868674  1.0000
  C   C49       1.0  0.1864399672951933  0.6309938586377585  0.40357086350147847  1.0000
  C   C50       1.0  0.15059017867559993  0.6714711780158426  0.41982900641895776  1.0000
  C   C51       1.0  0.10658414608072062  0.6968172073569576  0.38918380199076097  1.0000
  C   C52       1.0  0.09531383500880249  0.6791678935116892  0.3428879387468129  1.0000
  C   C53       1.0  0.13135828076386247  0.6384929389560272  0.32675389588963805  1.0000
  C   C54       1.0  0.17828184052000748  0.6158671736887628  0.35627569719865443  1.0000
  C   C55       1.0  0.23125406377290145  0.6006681307420365  0.4242121142355515  1.0000
  C   C56       1.0  0.21894385157249727  0.5775703621084388  0.3497883682479923  1.0000
  C   C57       1.0  0.10868182502515109  0.6272298355672633  0.2829983704444458  1.0000
  C   C58       1.0  0.05226280970173751  0.6910518213182186  0.3079262826306959  1.0000
  C   C59       1.0  0.0812711983630763  0.7346257873951529  0.4140955215209701  1.0000
  C   C60       1.0  0.1493406037205673  0.6943694498059189  0.4620650620211038  1.0000
  C   C61       1.0  0.32046604175179283  0.113338203855804  0.5928067479243779  1.0000
  C   C62       1.0  0.34494647028232356  0.1574302016521187  0.5723512947571052  1.0000
  C   C63       1.0  0.3880515394171624  0.18783949486027748  0.5987414621889612  1.0000
  C   C64       1.0  0.40913694904728704  0.17318358942073783  0.6444728648235838  1.0000
  C   C65       1.0  0.38426622978793296  0.1292636771129736  0.6648692236718574  1.0000
  C   C66       1.0  0.33942514070320573  0.10007212412135402  0.6395315119595607  1.0000
  C   C67       1.0  0.2779644683536802  0.0782639282568738  0.5776745617803626  1.0000
  C   C68       1.0  0.3076441891842734  0.05786615441840581  0.6508464166413359  1.0000
  C   C69       1.0  0.41219007256596285  0.12395196668253311  0.7082705715764276  1.0000
  C   C70       1.0  0.45163421468743076  0.19277614505078589  0.6762844973354234  1.0000
  C   C71       1.0  0.4011987684725895  0.22824543554703777  0.5716033095527564  1.0000
  C   C72       1.0  0.3344186426444935  0.1805116356213432  0.529988722449886  1.0000
  C   C73       1.0  0.6773438687044405  0.36979404839551927  0.1014663110678455  1.0000
  C   C74       1.0  0.6448878122110457  0.3256438271366022  0.0876682852416977  1.0000
  C   C75       1.0  0.6029617008390957  0.30180898149059493  0.1181996585706599  1.0000
  C   C76       1.0  0.5908827273067773  0.3240043324775783  0.1618382039493937  1.0000
  C   C77       1.0  0.6225616508074978  0.3688792013503814  0.17513316555553618  1.0000
  C   C78       1.0  0.6669915503800682  0.39068646015442005  0.14590047378277396  1.0000
  C   C79       1.0  0.7204690815562955  0.3993068079627591  0.0806736881364642  1.0000
  C   C80       1.0  0.7044405926978713  0.4317192525019777  0.1506131514187672  1.0000
  C   C81       1.0  0.6002334441027131  0.3833204460118225  0.2166885779675667  1.0000
  C   C82       1.0  0.55067912449492  0.31302228290110895  0.1962475171088229  1.0000
  C   C83       1.0  0.5801705414235271  0.2601697823813609  0.0958625498536918  1.0000
  C   C84       1.0  0.6451542625056989  0.2979096602405705  0.0480352149329377  1.0000
  N   N1        1.0  0.34281248074122317  0.46250763373195264  0.42371910514656713  1.0000
  N   N2        1.0  0.367695639415814  0.47610988007504323  0.38303390708237117  1.0000
  N   N3        1.0  0.4661406592458164  0.3911831004253514  0.3214973413173893  1.0000
  N   N4        1.0  0.4553297588570402  0.3415950539956185  0.3238606226786374  1.0000
  N   N5        1.0  0.3800448067944018  0.29864660516854263  0.4280187786557406  1.0000
  N   N6        1.0  0.36822989428088704  0.33338009759373216  0.460500110065169  1.0000
  N   N7        1.0  0.6755916429909021  0.0584956895872537  0.9111215711399863  1.0000
  N   N8        1.0  0.6840434842207727  0.0675652985960156  0.8655512559994066  1.0000
  N   N9        1.0  0.5748851790603666  0.14795009263427525  0.8010503485794658  1.0000
  N   N10       1.0  0.5340499173404325  0.175787044266805  0.8246647229444688  1.0000
  N   N11       1.0  0.5705330870579813  0.19371124876907692  0.9483569932054506  1.0000
  N   N12       1.0  0.5991696792703465  0.1568871919977965  0.9740002581920492  1.0000
  N   N13       1.0  0.8335405225773512  0.5367858150132321  0.075924844280344  1.0000
  N   N14       1.0  0.8555741025719569  0.5280494732158161  0.12006154627383839  1.0000
  N   N15       1.0  0.9610518640541982  0.6138509562738576  0.1803942352179604  1.0000
  N   N16       1.0  0.9562125872708263  0.6634635093015506  0.1719653236216132  1.0000
  N   N17       1.0  0.880934105410944  0.6969693007640814  0.05986267592550831  1.0000
  N   N18       1.0  0.8668115142434657  0.6601984164293954  0.029099899522769604  1.0000
  N   N19       1.0  0.16512381235097712  0.9447131596349437  0.5904932516831636  1.0000
  N   N20       1.0  0.16801659332956118  0.945203253132263  0.6374883072830002  1.0000
  N   N21       1.0  0.06175982080577571  0.8666439284162732  0.6999472091098154  1.0000
  N   N22       1.0  0.04111036527785219  0.8222392634866224  0.6833102778550781  1.0000
  N   N23       1.0  0.0831931738825276  0.7949436375942369  0.5645056892564851  1.0000
  N   N24       1.0  0.0973059209812774  0.8339924842675542  0.5365335413184339  1.0000
  N   N25       1.0  0.775023633070781  0.9580232775553411  0.8829960558117946  1.0000
  N   N26       1.0  0.9452176460908818  0.8405095653714624  0.7800276730568569  1.0000
  N   N27       1.0  0.8592819558740245  0.7669087550051047  0.9548505926073078  1.0000
  N   N28       1.0  0.2507826066000831  0.5685433590846073  0.3911906842087375  1.0000
  N   N29       1.0  0.06074572062980369  0.6592264400830385  0.2717312125120229  1.0000
  N   N30       1.0  0.10729931991574661  0.732593803362832  0.4582893491029267  1.0000
  N   N31       1.0  0.2704156921345415  0.0448354005500775  0.6131981231279866  1.0000
  N   N32       1.0  0.4527672691424627  0.16271169254098794  0.7149100412138266  1.0000
  N   N33       1.0  0.3686113685285831  0.22351281951550558  0.5300176992686402  1.0000
  N   N34       1.0  0.7366763318140528  0.436681110630289  0.11088641228086972  1.0000
  N   N35       1.0  0.5565503250302656  0.34936820887264736  0.22927997502546293  1.0000
  N   N36       1.0  0.6060442014238417  0.2582913563341407  0.053314832310668706  1.0000
