data_image0
_chemical_formula_structural       Ho2H18C9O24
_chemical_formula_sum              "Ho2 H18 C9 O24"
_cell_length_a       8.757883292496278
_cell_length_b       8.75787127669287
_cell_length_c       8.757911457517032
_cell_angle_alpha    66.30005041763233
_cell_angle_beta     66.29992118280462
_cell_angle_gamma    66.30024302025559

_space_group_name_H-M_alt    "P 1"
_space_group_IT_number       1

loop_
  _space_group_symop_operation_xyz
  'x, y, z'

loop_
  _atom_site_type_symbol
  _atom_site_label
  _atom_site_symmetry_multiplicity
  _atom_site_fract_x
  _atom_site_fract_y
  _atom_site_fract_z
  _atom_site_occupancy
  Ho  Ho1       1.0  0.732638320940758  0.7326354656280998  0.7326375857123323  1.0000
  Ho  Ho2       1.0  0.2673658877714402  0.2673591875377  0.2673633705196822  1.0000
  H   H1        1.0  0.691376676657228  0.8242692132591929  0.050726490395455015  1.0000
  H   H2        1.0  0.050726186640545706  0.6913759734274549  0.82426458050427  1.0000
  H   H3        1.0  0.8242662447381122  0.050725427231896006  0.6913751869524493  1.0000
  H   H4        1.0  0.9492746599758846  0.17573432767729  0.30862632125458594  1.0000
  H   H5        1.0  0.17573350457935524  0.3086238876768662  0.9492751431781343  1.0000
  H   H6        1.0  0.3086210227744246  0.9492746531278088  0.1757353398854065  1.0000
  H   H7        1.0  0.728840249326538  0.7836716269902482  0.36342776227770185  1.0000
  H   H8        1.0  0.36342236690657603  0.7288333563829286  0.7836716949975226  1.0000
  H   H9        1.0  0.7836720404431716  0.36342584063508104  0.7288321124922561  1.0000
  H   H10       1.0  0.6365759899161958  0.21632885138386374  0.2711667420204692  1.0000
  H   H11       1.0  0.21632868266374322  0.2711644924639033  0.6365741991514184  1.0000
  H   H12       1.0  0.2711634519482971  0.636576710578474  0.21632636816470824  1.0000
  H   H13       1.0  0.5442579183200992  0.8742451882270359  0.47655018610939964  1.0000
  H   H14       1.0  0.4765515249397794  0.5442548919245667  0.8742418645737832  1.0000
  H   H15       1.0  0.8742449229857598  0.47655566064175053  0.5442550341338263  1.0000
  H   H16       1.0  0.5234437367703535  0.12575608537810723  0.45574706601897946  1.0000
  H   H17       1.0  0.12575391294371482  0.45574299345066305  0.5234473112607817  1.0000
  H   H18       1.0  0.45574228797050864  0.5234538651675251  0.1257554034597208  1.0000
  C   C1        1.0  0.5000012456592772  0.03552347023295251  0.964474812000866  1.0000
  C   C2        1.0  0.9644738290975285  0.49999940638720375  0.03552476371690001  1.0000
  C   C3        1.0  0.035527249512284705  0.964474308163858  0.5000002271905687  1.0000
  C   C4        1.0  0.41817754550734076  0.08389218982258478  0.8159955326140109  1.0000
  C   C5        1.0  0.8159954932508526  0.41818260336878416  0.08389200774171714  1.0000
  C   C6        1.0  0.08389569667443908  0.8159937828335089  0.418182904972511  1.0000
  C   C7        1.0  0.18400549545651762  0.9161109043875867  0.5818173220301405  1.0000
  C   C8        1.0  0.9161043824037236  0.5818184815979138  0.1840029418475524  1.0000
  C   C9        1.0  0.5818212985899933  0.18400421521338473  0.9161053766750631  1.0000
  O   O1        1.0  0.6223876362748656  0.8721763910833288  0.9626917865575354  1.0000
  O   O2        1.0  0.9626871289673601  0.6223897733044839  0.8721779104198506  1.0000
  O   O3        1.0  0.8721813550264343  0.9626862613922001  0.6223890326098668  1.0000
  O   O4        1.0  0.037315643036635024  0.1278202940943771  0.3776090110079339  1.0000
  O   O5        1.0  0.12782069644831748  0.37761153773992373  0.03731168381089127  1.0000
  O   O6        1.0  0.3776125643602199  0.0373088122973755  0.12782397889237987  1.0000
  O   O7        1.0  0.6677747119727967  0.8195417024283457  0.4727816738746996  1.0000
  O   O8        1.0  0.47278167032660423  0.667773552866848  0.8195330835638761  1.0000
  O   O9        1.0  0.8195362388927804  0.47278425830295134  0.6677721976838312  1.0000
  O   O10       1.0  0.5272184639156093  0.18046499518508347  0.3322273976816278  1.0000
  O   O11       1.0  0.18046515519736053  0.3322270227063201  0.5272155629395741  1.0000
  O   O12       1.0  0.33222728943486146  0.5272197580656839  0.18045876169496483  1.0000
  O   O13       1.0  0.5086980489591751  0.008537107097090801  0.6980222408325292  1.0000
  O   O14       1.0  0.6980249327856428  0.5086947950200837  0.00854073207241165  1.0000
  O   O15       1.0  0.00853881051403253  0.6980253764667735  0.5086989989407088  1.0000
  O   O16       1.0  0.3019772954337726  0.9914585284996278  0.4913046768125896  1.0000
  O   O17       1.0  0.9914625393445674  0.491298409900196  0.30197346425869415  1.0000
  O   O18       1.0  0.4913012742930363  0.3019775477736673  0.9914601030673679  1.0000
  O   O19       1.0  0.2730570574824895  0.19934220817668094  0.8181775468415822  1.0000
  O   O20       1.0  0.8181775996918361  0.273044713791144  0.19934932535283426  1.0000
  O   O21       1.0  0.19934512341883698  0.8181824926807267  0.27304615727159404  1.0000
  O   O22       1.0  0.18182195472218138  0.8006541372324066  0.7269547962384522  1.0000
  O   O23       1.0  0.8006549948535948  0.7269535820617679  0.18182198163992075  1.0000
  O   O24       1.0  0.7269440602606847  0.18182635064793834  0.80065453315423  1.0000
