data_image0
_chemical_formula_structural       Ni3H12C18O16
_chemical_formula_sum              "Ni3 H12 C18 O16"
_cell_length_a       9.761228051352331
_cell_length_b       10.929919422821799
_cell_length_c       10.929854839697766
_cell_angle_alpha    67.78059159769566
_cell_angle_beta     63.46745048843445
_cell_angle_gamma    63.467097350094065

_space_group_name_H-M_alt    "P 1"
_space_group_IT_number       1

loop_
  _space_group_symop_operation_xyz
  'x, y, z'

loop_
  _atom_site_type_symbol
  _atom_site_label
  _atom_site_symmetry_multiplicity
  _atom_site_fract_x
  _atom_site_fract_y
  _atom_site_fract_z
  _atom_site_occupancy
  Ni  Ni1       1.0  0.13873540317086253  0.8681440801933532  0.8681731977227186  1.0000
  Ni  Ni2       1.0  0.7947007294205476  0.05024746006745318  0.050274840520153  1.0000
  Ni  Ni3       1.0  0.1111959027618781  0.05168818383139499  0.05171059094379869  1.0000
  H   H1        1.0  0.5421038079296849  0.8557062214670738  0.07010931149299167  1.0000
  H   H2        1.0  0.5421084943399207  0.07010672641579418  0.8557035888350413  1.0000
  H   H3        1.0  0.5253757759215391  0.49059068907877884  0.021072052767337396  1.0000
  H   H4        1.0  0.9692572168122952  0.019131052614440598  0.4874017780041979  1.0000
  H   H5        1.0  0.5253852232858023  0.021060615052611798  0.4905915666148104  1.0000
  H   H6        1.0  0.9692522040563457  0.4873999429980458  0.01912947367976896  1.0000
  H   H7        1.0  0.5295951429827  0.09578206821296219  0.22341130961856231  1.0000
  H   H8        1.0  0.14400919209933968  0.22859332309980118  0.10115120500879014  1.0000
  H   H9        1.0  0.5295971859531363  0.22341197588662698  0.0957837320782674  1.0000
  H   H10       1.0  0.14400894739925718  0.10115154848818257  0.22858996244436008  1.0000
  H   H11       1.0  0.20720190465158342  0.6627114773615047  0.7898541016296577  1.0000
  H   H12       1.0  0.20718301318982676  0.7898662976567932  0.6627142882874821  1.0000
  C   C1        1.0  0.6016880821644365  0.7481049592110053  0.05685272006170557  1.0000
  C   C2        1.0  0.6016936516873913  0.05684765399945488  0.7481051191244746  1.0000
  C   C3        1.0  0.5158859893635324  0.681145201793768  0.045760586833097326  1.0000
  C   C4        1.0  0.7661018307243452  0.04386879568672699  0.67985065975342  1.0000
  C   C5        1.0  0.5158913172378446  0.045753505590703  0.6811480355149301  1.0000
  C   C6        1.0  0.7661019577681146  0.6798480294935912  0.04386695254959963  1.0000
  C   C7        1.0  0.5915681028195864  0.5424719836395724  0.03078183801574141  1.0000
  C   C8        1.0  0.8415355696492599  0.029126408161438598  0.5411825772217114  1.0000
  C   C9        1.0  0.5915776964209556  0.030774165942503387  0.5424697511207698  1.0000
  C   C10       1.0  0.8415350632998796  0.5411805509897148  0.02912508827549227  1.0000
  C   C11       1.0  0.7529928243569799  0.4707810626348205  0.02711554649874175  1.0000
  C   C12       1.0  0.7529984269119723  0.027114328216491408  0.4707795641574251  1.0000
  C   C13       1.0  0.8308485083614843  0.3186066249230563  0.022912042475013526  1.0000
  C   C14       1.0  0.8308501213749507  0.022911125053433092  0.31860843762339647  1.0000
  C   C15       1.0  0.3480155460202072  0.7670854950723578  0.038553078355399  1.0000
  C   C16       1.0  0.8573292120712422  0.0363357168669296  0.7639894214331592  1.0000
  C   C17       1.0  0.3480220620960067  0.038543471747459486  0.7670852729135406  1.0000
  C   C18       1.0  0.8573277971763246  0.7639886157085127  0.03633230479375283  1.0000
  O   O1        1.0  0.29999236197691215  0.7354391943375872  0.9674395577528969  1.0000
  O   O2        1.0  0.00870988557144893  0.9650396932378266  0.7320323960599426  1.0000
  O   O3        1.0  0.3000045493028836  0.9674264411918683  0.7354402898307982  1.0000
  O   O4        1.0  0.008708611941436607  0.7320287940504145  0.9650402571011226  1.0000
  O   O5        1.0  0.2737589640301083  0.8693356292337169  0.09910775256805952  1.0000
  O   O6        1.0  0.7710786582648836  0.09728024862151587  0.8656951253221122  1.0000
  O   O7        1.0  0.2737645169558007  0.09909881571081058  0.869336642817828  1.0000
  O   O8        1.0  0.7710739349903973  0.8656956830586112  0.09727577022579936  1.0000
  O   O9        1.0  0.7451221489087488  0.2585971315378189  0.023154492742690966  1.0000
  O   O10       1.0  0.976739654865682  0.022634774908993894  0.25915680330872715  1.0000
  O   O11       1.0  0.7451259373181928  0.023146831022245396  0.25860046354817  1.0000
  O   O12       1.0  0.9767414207651868  0.25915712018291964  0.02263436588376792  1.0000
  O   O13       1.0  0.5415253740656992  0.12368060548121206  0.12367819796622105  1.0000
  O   O14       1.0  0.20745172376788903  0.13019282964486215  0.13018951691828562  1.0000
  O   O15       1.0  0.262113273058013  0.732230141386651  0.7322183852935495  1.0000
  O   O16       1.0  0.016799251752601625  0.98854788190679  0.988437619445243  1.0000
