data_image0
_chemical_formula_structural       Nd4Ag4H32C56N8O32
_chemical_formula_sum              "Nd4 Ag4 H32 C56 N8 O32"
_cell_length_a       9.161834343
_cell_length_b       9.775569122951943
_cell_length_c       22.4015
_cell_angle_alpha    90.0
_cell_angle_beta     90.0
_cell_angle_gamma    116.76187906355155

_space_group_name_H-M_alt    "P 1"
_space_group_IT_number       1

loop_
  _space_group_symop_operation_xyz
  'x, y, z'

loop_
  _atom_site_type_symbol
  _atom_site_label
  _atom_site_symmetry_multiplicity
  _atom_site_fract_x
  _atom_site_fract_y
  _atom_site_fract_z
  _atom_site_occupancy
  Nd  Nd1       1.0  0.6160071304145518  0.8550988100495402  0.9905466151820193  1.0000
  Nd  Nd2       1.0  0.8839977181516332  0.1449074958702568  0.49054616878333945  1.0000
  Nd  Nd3       1.0  0.38399905134701134  0.14490864154708305  0.0094547240140201  1.0000
  Nd  Nd4       1.0  0.11600572081359672  0.8550965186958945  0.5094524920206212  1.0000
  Ag  Ag1       1.0  0.02478061613121701  0.185930745855444  0.1490136821195023  1.0000
  Ag  Ag2       1.0  0.4752197713112806  0.8140698316802426  0.6490141285181821  1.0000
  Ag  Ag3       1.0  0.9752189885531803  0.8140698316802426  0.8509854250831452  1.0000
  Ag  Ag4       1.0  0.5247809248576019  0.185930745855444  0.3509872106778573  1.0000
  H   H1        1.0  0.19945657860350252  0.4676469481373359  0.0678164408633322  1.0000
  H   H2        1.0  0.30054381822908727  0.5323559207519961  0.5678182264580514  1.0000
  H   H3        1.0  0.8005430260809021  0.5323536293983508  0.9321822199406284  1.0000
  H   H4        1.0  0.6994563368926022  0.46764580246050963  0.4321840055353405  1.0000
  H   H5        1.0  0.765945580732428  0.2992759909411689  0.1641019574582074  1.0000
  H   H6        1.0  0.7340565156473176  0.700724586594518  0.6641015110595276  1.0000
  H   H7        1.0  0.23405784884270284  0.7007257322713372  0.8358989353391522  1.0000
  H   H8        1.0  0.265946913927813  0.2992771366179952  0.3358980425417926  1.0000
  H   H9        1.0  0.7127602502312058  0.5178046794287423  0.1325826395553875  1.0000
  H   H10       1.0  0.7872374614304365  0.48219131539965326  0.6325839787514198  1.0000
  H   H11       1.0  0.2872387946258216  0.4821924610764796  0.8674164676472529  1.0000
  H   H12       1.0  0.21276158342658394  0.5178058251055617  0.3674173604446125  1.0000
  H   H13       1.0  0.9242355447958985  0.7274589552488138  0.0706533044662194  1.0000
  H   H14       1.0  0.5757550675215768  0.2725358939027629  0.5706550900609315  1.0000
  H   H15       1.0  0.07575694176414771  0.2725358939027629  0.9293444635403887  1.0000
  H   H16       1.0  0.4242363275539915  0.7274589552488138  0.4293475883311402  1.0000
  H   H17       1.0  0.9860706286450523  0.1531666800840483  0.2807276298462185  1.0000
  H   H18       1.0  0.5139292847657372  0.8468338974516383  0.780728522643571  1.0000
  H   H19       1.0  0.01392842560206021  0.8468327517748122  0.7192696917617099  1.0000
  H   H20       1.0  0.48606976948138236  0.15316553440722905  0.2192737093498209  1.0000
  H   H21       1.0  0.1207557069908275  0.9115233935603155  0.1581447670914926  1.0000
  H   H22       1.0  0.3792397359061823  0.0884691642376083  0.6581443206928128  1.0000
  H   H23       1.0  0.8792438789133854  0.08847260126808007  0.8418543401111548  1.0000
  H   H24       1.0  0.6207571072016974  0.9115233935603155  0.3418556793071872  1.0000
  H   H25       1.0  0.14979874398875384  0.7492543111210779  0.2392804053299997  1.0000
  H   H26       1.0  0.3501956168138705  0.2507405380304988  0.7392786197352876  1.0000
  H   H27       1.0  0.8502024932273216  0.2507451207377898  0.7607195946700004  1.0000
  H   H28       1.0  0.6497990527151387  0.7492543111210779  0.2607200410686801  1.0000
  H   H29       1.0  0.10140872385308335  0.8003560801142695  0.3466093788362414  1.0000
  H   H30       1.0  0.39858893957325847  0.1996456430982363  0.846608039640202  1.0000
  H   H31       1.0  0.8985919817058915  0.1996467887750626  0.6533897283664061  1.0000
  H   H32       1.0  0.6014090325794683  0.8003560801142695  0.1533910675624384  1.0000
  C   C1        1.0  0.07881637894147532  0.6138547872011911  0.0649367229872979  1.0000
  C   C2        1.0  0.4211785510786187  0.3861457903344956  0.5649385085820171  1.0000
  C   C3        1.0  0.9211799512894886  0.3861457903344956  0.9350614914179829  1.0000
  C   C4        1.0  0.5788177791523381  0.6138547872011911  0.4350637234113819  1.0000
  C   C5        1.0  0.09502250432286985  0.48408855621780583  0.0823413610695738  1.0000
  C   C6        1.0  0.40497789250972005  0.5159143126715264  0.5823422538669263  1.0000
  C   C7        1.0  0.9049782012361051  0.5159143126715264  0.9176581925317535  1.0000
  C   C8        1.0  0.5950244549710249  0.4840897018946251  0.41765953172778575  1.0000
  C   C9        1.0  0.852404633313796  0.3901923208717548  0.1358252795571744  1.0000
  C   C10       1.0  0.6475936381752235  0.6098071109871057  0.6358270651518865  1.0000
  C   C11       1.0  0.14759497137060862  0.6098082566639319  0.8641738276454732  1.0000
  C   C12       1.0  0.3524059665091812  0.3901934665485811  0.3641747204428256  1.0000
  C   C13       1.0  0.8248857063146673  0.513539324618371  0.11918487601276691  1.0000
  C   C14       1.0  0.6751076206288645  0.4864520875027338  0.6191857688101265  1.0000
  C   C15       1.0  0.17510895382424252  0.486453233179553  0.8808142311898735  1.0000
  C   C16       1.0  0.3248886814318226  0.5135416159720165  0.3808151239872331  1.0000
  C   C17       1.0  0.9408379096821736  0.6281963696659218  0.0839408075352068  1.0000
  C   C18       1.0  0.5591494281818542  0.3717984794856548  0.5839412539338866  1.0000
  C   C19       1.0  0.05915130242443212  0.3717984794856548  0.9160591924647933  1.0000
  C   C20       1.0  0.4408386924402663  0.6281963696659218  0.41606008526214566  1.0000
  C   C21       1.0  0.21125562538586712  0.7390738268758597  0.028914581612838202  1.0000
  C   C22       1.0  0.288745872321293  0.2609313333671111  0.528915028011518  1.0000
  C   C23       1.0  0.788747272532163  0.2609313333671111  0.9710845255898023  1.0000
  C   C24       1.0  0.7112553836749669  0.7390726811990402  0.4710863111845213  1.0000
  C   C25       1.0  0.04019393868291135  0.9814761289918151  0.3206450460906609  1.0000
  C   C26       1.0  0.45980426579062345  0.018524448543871593  0.8206450460906608  1.0000
  C   C27       1.0  0.9598034830325305  0.018524448543871593  0.6793536147132997  1.0000
  C   C28       1.0  0.5401953388937814  0.9814761289918151  0.1793554003080118  1.0000
  C   C29       1.0  0.024091548664500806  0.064129260142451  0.2724737182777943  1.0000
  C   C30       1.0  0.4759082883407118  0.9358701717164095  0.7724750574738266  1.0000
  C   C31       1.0  0.9759096885515746  0.9358701717164095  0.7275231569314542  1.0000
  C   C32       1.0  0.5240913069536006  0.06412811446563178  0.22752717451956533  1.0000
  C   C33       1.0  0.09747966999598388  0.9276052591185078  0.2047153092426868  1.0000
  C   C34       1.0  0.40251687377560336  0.0723895900330689  0.704714862844007  1.0000
  C   C35       1.0  0.9025171918920805  0.0723918813867144  0.7952829051626011  1.0000
  C   C36       1.0  0.5974810702068468  0.9276052591185078  0.2952855835546728  1.0000
  C   C37       1.0  0.11435080619527568  0.8386617846763611  0.2503908220431654  1.0000
  C   C38       1.0  0.3856473982782661  0.1613387928593255  0.7503903756444856  1.0000
  C   C39       1.0  0.8856504310208066  0.1613376471825063  0.7496073923621153  1.0000
  C   C40       1.0  0.6143505644843685  0.8386606389995349  0.2496100707541871  1.0000
  C   C41       1.0  0.08753977747226574  0.8662760331303758  0.3095614132982192  1.0000
  C   C42       1.0  0.4124573261266988  0.1337222530516655  0.8095614132982191  1.0000
  C   C43       1.0  0.912459827212139  0.13372454440531095  0.6904368011070687  1.0000
  C   C44       1.0  0.5875395451514578  0.8662771788071949  0.1904390331004606  1.0000
  C   C45       1.0  0.003963699897880701  0.021567366184577  0.38173783005602496  1.0000
  C   C46       1.0  0.49604325523168313  0.9784377940584008  0.8817364908599855  1.0000
  C   C47       1.0  0.9960424536934056  0.9784332113511098  0.6182626163426548  1.0000
  C   C48       1.0  0.5039640086242656  0.021567366184577  0.1182630627413346  1.0000
  C   C49       1.0  0.9957669590276412  0.0214917515142901  0.0329701136084637  1.0000
  C   C50       1.0  0.5042427683533859  0.9785065346677513  0.5329687744124243  1.0000
  C   C51       1.0  0.00424517425305741  0.9785030976372866  0.9670321183849283  1.0000
  C   C52       1.0  0.4957644673322932  0.0214917515142901  0.4670307791888959  1.0000
  C   C53       1.0  0.49119737164712535  0.4923053503891595  0.9652826819632594  1.0000
  C   C54       1.0  0.008796476278583031  0.5076975185001729  0.4652849139566512  1.0000
  C   C55       1.0  0.5087957029105823  0.5076998098538184  0.0347128540499497  1.0000
  C   C56       1.0  0.9912009548269509  0.4923053503891595  0.534716425239381  1.0000
  N   N1        1.0  0.9852975498983838  0.3750877176432041  0.1180242394482534  1.0000
  N   N2        1.0  0.5146996394962501  0.6249140055693017  0.6180255786442856  1.0000
  N   N3        1.0  0.014699871817057921  0.6249128598924827  0.8819744213557144  1.0000
  N   N4        1.0  0.485299974578247  0.3750888633200303  0.38197576055174653  1.0000
  N   N5        1.0  0.053525419538587506  0.0398454942116047  0.21560922259670426  1.0000
  N   N6        1.0  0.44647386702934005  0.9601527919704367  0.7156105617927365  1.0000
  N   N7        1.0  0.9464736347085321  0.9601539376472629  0.7843876526125513  1.0000
  N   N8        1.0  0.5535235359059172  0.03984320285795919  0.2843912238019755  1.0000
  O   O1        1.0  0.31630077570497417  0.7080786861184903  0.0032189808718143995  1.0000
  O   O2        1.0  0.18369909886060753  0.291929911154952  0.5032207664665336  1.0000
  O   O3        1.0  0.6837010401186705  0.29192876547813273  0.9967805727295057  1.0000
  O   O4        1.0  0.8163010844313591  0.7080786861184903  0.49678101912818556  1.0000
  O   O5        1.0  0.2079002456746081  0.8674125445383465  0.028873512934403295  1.0000
  O   O6        1.0  0.2921007203754513  0.1325960527350958  0.5288694953462922  1.0000
  O   O7        1.0  0.7921004786645511  0.1325949070582766  0.971130058255028  1.0000
  O   O8        1.0  0.707897811604653  0.8674091075078818  0.4711282726603159  1.0000
  O   O9        1.0  0.9365170526907534  0.1097088668509372  0.3844568444077439  1.0000
  O   O10       1.0  0.5634888873599094  0.8902974390688596  0.8844572908064166  1.0000
  O   O11       1.0  0.06348912907081686  0.8902985847456861  0.6155422627949036  1.0000
  O   O12       1.0  0.4365178354488464  0.1097088668509372  0.1155440483896157  1.0000
  O   O13       1.0  0.041788408256301965  0.9670474750885701  0.4272865656317677  1.0000
  O   O14       1.0  0.4582125296234807  0.03295424812394289  0.9272874584291202  1.0000
  O   O15       1.0  0.9582155435858369  0.03294851973982559  0.5727125415708798  1.0000
  O   O16       1.0  0.541791450388935  0.9670486207653892  0.0727138807669121  1.0000
  O   O17       1.0  0.12833276074383804  0.1208792158708363  0.0558717050197544  1.0000
  O   O18       1.0  0.3716758081372192  0.8791202159880243  0.5558685802290029  1.0000
  O   O19       1.0  0.8716777493952818  0.8791190703112048  0.944131419770997  1.0000
  O   O20       1.0  0.6283314369385451  0.1208803615476626  0.4441300805749648  1.0000
  O   O21       1.0  0.8598993410799454  0.9565759889304246  0.059412985737559196  1.0000
  O   O22       1.0  0.6401120282228449  0.0434234429284359  0.559413432136239  1.0000
  O   O23       1.0  0.14011335202813774  0.0434222972516167  0.9405879070597933  1.0000
  O   O24       1.0  0.3598990417436526  0.95657828028407  0.44058656786376094  1.0000
  O   O25       1.0  0.5475457610424926  0.6149454715362594  0.9354694998102815  1.0000
  O   O26       1.0  0.9524519600092418  0.3850528146457819  0.4354708390063138  1.0000
  O   O27       1.0  0.4524489460468857  0.3850585430298921  0.0645282681963266  1.0000
  O   O28       1.0  0.0475481857223556  0.6149466172130857  0.5645296073923589  1.0000
  O   O29       1.0  0.4211599120077381  0.3574935586792449  0.9439644666651787  1.0000
  O   O30       1.0  0.07884046604466732  0.6425047275027964  0.4439675914559302  1.0000
  O   O31       1.0  0.5788320428952076  0.6425047275027964  0.05603151574671019  1.0000
  O   O32       1.0  0.9211624037030859  0.3574935586792449  0.5560355333348213  1.0000
