data_image0
_chemical_formula_structural       Cd2H32C24S4N4O16
_chemical_formula_sum              "Cd2 H32 C24 S4 N4 O16"
_cell_length_a       5.715826990185721
_cell_length_b       7.242093654622686
_cell_length_c       19.149930593105747
_cell_angle_alpha    97.42016338776675
_cell_angle_beta     90.00072486563272
_cell_angle_gamma    90.00053681943434

_space_group_name_H-M_alt    "P 1"
_space_group_IT_number       1

loop_
  _space_group_symop_operation_xyz
  'x, y, z'

loop_
  _atom_site_type_symbol
  _atom_site_label
  _atom_site_symmetry_multiplicity
  _atom_site_fract_x
  _atom_site_fract_y
  _atom_site_fract_z
  _atom_site_occupancy
  Cd  Cd1       1.0  0.9999970275574057  1.1088287979999997e-07  2.2598145930000005e-07  1.0000
  Cd  Cd2       1.0  0.5000012622243802  0.500004104963793  0.5000000838171061  1.0000
  H   H1        1.0  0.6610364684056266  0.21787490381652927  0.5745366585817423  1.0000
  H   H2        1.0  0.8389748087531289  0.717862387131028  0.07453870837150593  1.0000
  H   H3        1.0  0.3389695549910243  0.7821264612891099  0.42546052043401533  1.0000
  H   H4        1.0  0.1610189679527494  0.2821304843443357  0.9254611360676467  1.0000
  H   H5        1.0  0.8992281923235338  0.3420347080745999  0.5608748890137818  1.0000
  H   H6        1.0  0.6007787756328326  0.8420283725715192  0.060880084232962914  1.0000
  H   H7        1.0  0.10077608158834289  0.657969394958343  0.4391234854486471  1.0000
  H   H8        1.0  0.39922024982971743  0.15797686626113716  0.939124097776251  1.0000
  H   H9        1.0  0.3949710025419649  0.30795285929120547  0.674848104891865  1.0000
  H   H10       1.0  0.105033040120766  0.8079380661090952  0.17485598274518574  1.0000
  H   H11       1.0  0.6050315217271348  0.6920373442300162  0.3251489811650573  1.0000
  H   H12       1.0  0.8949694843040136  0.19205605779775686  0.8251470643528764  1.0000
  H   H13       1.0  0.4064199158895009  0.41810440956594164  0.8026854361203989  1.0000
  H   H14       1.0  0.0935753820049428  0.9181034425874375  0.3026940351403625  1.0000
  H   H15       1.0  0.593575610254817  0.5818872328367489  0.19731068469781832  1.0000
  H   H16       1.0  0.906413146199263  0.0819005671208899  0.6973064232231893  1.0000
  H   H17       1.0  0.0840685925516595  0.6628593322922142  0.7782485028860509  1.0000
  H   H18       1.0  0.41594520340948554  0.16286333252832463  0.2782409512932915  1.0000
  H   H19       1.0  0.9159286832897848  0.3371333759960677  0.22175498844276129  1.0000
  H   H20       1.0  0.5840573210239411  0.8371505630995558  0.7217569183922665  1.0000
  H   H21       1.0  0.07349268470813539  0.5516888117411584  0.6502886800145051  1.0000
  H   H22       1.0  0.4265228399810468  0.0516857999018967  0.15028391332418786  1.0000
  H   H23       1.0  0.926508090219528  0.4483094890039824  0.34971459730564913  1.0000
  H   H24       1.0  0.5734901815683813  0.9483225499572469  0.8497131284318444  1.0000
  H   H25       1.0  0.6258679054401881  0.2680859809838978  0.025050899811525106  1.0000
  H   H26       1.0  0.8741330667373999  0.7680890008612593  0.5250509963156917  1.0000
  H   H27       1.0  0.37412412178924376  0.7319138518935234  0.974949328333466  1.0000
  H   H28       1.0  0.1258712072084762  0.23191503222803087  0.47494894109642183  1.0000
  H   H29       1.0  0.7677386788458307  0.3053742051329849  0.9578115774484889  1.0000
  H   H30       1.0  0.7322555839687155  0.8053776122345013  0.4578115122919827  1.0000
  H   H31       1.0  0.2322498492850471  0.6946214741985699  0.042187899480588015  1.0000
  H   H32       1.0  0.26774694048105363  0.1946291820966408  0.542189099583574  1.0000
  C   C1        1.0  0.7352404625832634  0.41932238630898405  0.654302045387908  1.0000
  C   C2        1.0  0.7647593352018304  0.919327413228423  0.15430323018929226  1.0000
  C   C3        1.0  0.2647620618065076  0.5806732231379499  0.34569899451911124  1.0000
  C   C4        1.0  0.2352466883351596  0.0806835579631411  0.8456976119189576  1.0000
  C   C5        1.0  0.5464286234931777  0.3845460770796194  0.6974007282687753  1.0000
  C   C6        1.0  0.9535778903801814  0.8845429274797995  0.19740265935749335  1.0000
  C   C7        1.0  0.45357390092759425  0.6154537092129856  0.3026005418638676  1.0000
  C   C8        1.0  0.046428133149476  0.11546240464056721  0.8025994387329407  1.0000
  C   C9        1.0  0.5527936165224503  0.44537886094330753  0.7691861069249415  1.0000
  C   C10       1.0  0.9471958215874993  0.9453756575789571  0.2691880122752721  1.0000
  C   C11       1.0  0.4472036592376511  0.5546168417396871  0.23081284903856417  1.0000
  C   C12       1.0  0.0528049532351531  0.054627099786429795  0.730809243471761  1.0000
  C   C13       1.0  0.7479022407994833  0.5433265549692763  0.7982920862632101  1.0000
  C   C14       1.0  0.7521009841529108  0.043331631286612486  0.29829132028444155  1.0000
  C   C15       1.0  0.2521002835386311  0.4566620930682178  0.20170856993443925  1.0000
  C   C16       1.0  0.24790328979396753  0.9566709862062412  0.7017090613690302  1.0000
  C   C17       1.0  0.9342910260523283  0.5837216774277822  0.7555438421283471  1.0000
  C   C18       1.0  0.5657143155719951  0.08372945155762322  0.2555404697479773  1.0000
  C   C19       1.0  0.06571674690312079  0.4162683162846434  0.24445793278822955  1.0000
  C   C20       1.0  0.4342917079949872  0.9162871120760482  0.7444601583445377  1.0000
  C   C21       1.0  0.9273434314550074  0.5219978971003557  0.6836142983230645  1.0000
  C   C22       1.0  0.5726649723218175  0.021998605238920308  0.18361421717875004  1.0000
  C   C23       1.0  0.07265559383420589  0.4779963899935851  0.3163851018853309  1.0000
  C   C24       1.0  0.4273445502177253  0.9780082357508347  0.8163853527444831  1.0000
  S   S1        1.0  0.759446301425477  0.6064821289582056  0.890499285083962  1.0000
  S   S2        1.0  0.7405355279419297  0.10648429992595959  0.3904988399427937  1.0000
  S   S3        1.0  0.24054047719995  0.3935135037368696  0.10950123380803943  1.0000
  S   S4        1.0  0.2594617478914997  0.8935197331338216  0.609501097455187  1.0000
  N   N1        1.0  0.731711372767201  0.3495067566646669  0.5813321477020565  1.0000
  N   N2        1.0  0.7683000883725485  0.8494950827060634  0.08133294685933383  1.0000
  N   N3        1.0  0.2682929011353393  0.6504945384899443  0.41866659425985386  1.0000
  N   N4        1.0  0.2317041855093294  0.15050342788477883  0.9186656416188231  1.0000
  O   O1        1.0  0.8642112196311443  0.7943907665880303  0.902254491454109  1.0000
  O   O2        1.0  0.6357839576813477  0.2943904750593944  0.40225771438900193  1.0000
  O   O3        1.0  0.13578430660084004  0.2056049360875818  0.09774446450587253  1.0000
  O   O4        1.0  0.3642255649458619  0.7056204262032825  0.5977446906759952  1.0000
  O   O5        1.0  0.5160016993586113  0.5988296559529971  0.9146727536789143  1.0000
  O   O6        1.0  0.9839828498546909  0.0988253636390795  0.4146764780831448  1.0000
  O   O7        1.0  0.48398857834170883  0.4011715925134851  0.08532703022119392  1.0000
  O   O8        1.0  0.016009177377746705  0.9011702224490322  0.5853250827859072  1.0000
  O   O9        1.0  0.9084708937833669  0.46816089754358353  0.9198347167497761  1.0000
  O   O10       1.0  0.591511469519361  0.9681604494439282  0.41983132484686086  1.0000
  O   O11       1.0  0.09151588487607401  0.531834665207846  0.08016736509190281  1.0000
  O   O12       1.0  0.4084858062264018  0.0318395233429314  0.5801657774093556  1.0000
  O   O13       1.0  0.6982175490988141  0.20182233879551598  0.9810290350009584  1.0000
  O   O14       1.0  0.8017816999235023  0.701824986717355  0.481028131895144  1.0000
  O   O15       1.0  0.30177447813161956  0.7981760784854756  0.018971637385391205  1.0000
  O   O16       1.0  0.19822257403270527  0.2981804386538229  0.518971882258846  1.0000
