data_image0
_chemical_formula_structural       Ag2H16C22N6O8
_chemical_formula_sum              "Ag2 H16 C22 N6 O8"
_cell_length_a       7.540897213331145
_cell_length_b       8.720689108062711
_cell_length_c       8.925030223088081
_cell_angle_alpha    90.0004827247779
_cell_angle_beta     90.00006388210917
_cell_angle_gamma    101.71181200547025

_space_group_name_H-M_alt    "P 1"
_space_group_IT_number       1

loop_
  _space_group_symop_operation_xyz
  'x, y, z'

loop_
  _atom_site_type_symbol
  _atom_site_label
  _atom_site_symmetry_multiplicity
  _atom_site_fract_x
  _atom_site_fract_y
  _atom_site_fract_z
  _atom_site_occupancy
  Ag  Ag1       1.0  0.5189453444744316  0.8488361962900868  0.2682314114414694  1.0000
  Ag  Ag2       1.0  0.48105500865192136  0.1511623558631996  0.7682301853058036  1.0000
  H   H1        1.0  0.19111258212886637  0.9119305504677868  0.0687733661241978  1.0000
  H   H2        1.0  0.8088846998700987  0.0880673294343239  0.568774175311205  1.0000
  H   H3        1.0  0.07451902161886184  0.8547800301794836  0.8117621552043701  1.0000
  H   H4        1.0  0.925481482055048  0.14521892318407478  0.31176469293139764  1.0000
  H   H5        1.0  0.4124866692758928  0.5098409650360124  0.780561001049179  1.0000
  H   H6        1.0  0.5875161078515634  0.4901565347724812  0.280566058387997  1.0000
  H   H7        1.0  0.5215310150537391  0.585700118041224  0.038043992557781806  1.0000
  H   H8        1.0  0.47846483398483036  0.4142974761256967  0.5380471743543042  1.0000
  H   H9        1.0  0.6017609745948533  0.7724661213233971  0.6002232894274258  1.0000
  H   H10       1.0  0.3982449203941627  0.22753440576408215  0.1002181566905378  1.0000
  H   H11       1.0  0.839041977000228  0.6771065347061409  0.744373782542148  1.0000
  H   H12       1.0  0.16096067497122846  0.32289063156074593  0.2443725696176386  1.0000
  H   H13       1.0  0.14227057082442235  0.6882000929859159  0.3312376380163329  1.0000
  H   H14       1.0  0.8577252374949751  0.31180137187439527  0.8312380978415703  1.0000
  H   H15       1.0  0.8914683581215143  0.7896209517904962  0.2038898272852023  1.0000
  H   H16       1.0  0.1085291525929506  0.210382855138775  0.7038864909675411  1.0000
  C   C1        1.0  0.2361492446270077  0.8228503016630596  0.0013805316341262  1.0000
  C   C2        1.0  0.7638478043105649  0.1771469571288264  0.5013820320514242  1.0000
  C   C3        1.0  0.17014544906653137  0.7887632704624253  0.8567253621164568  1.0000
  C   C4        1.0  0.8298554821380008  0.21123726836935924  0.3567272319279198  1.0000
  C   C5        1.0  0.23012404584986965  0.6719704803262941  0.7749526373151383  1.0000
  C   C6        1.0  0.7698758199438274  0.3280316444847529  0.274955412511936  1.0000
  C   C7        1.0  0.35993046970224185  0.5992158441744024  0.8412905503872778  1.0000
  C   C8        1.0  0.6400701360939323  0.4007833813456827  0.3412960417314395  1.0000
  C   C9        1.0  0.41982360301761906  0.6405216493386662  0.9853776564424237  1.0000
  C   C10       1.0  0.5801761743739533  0.3594789015915722  0.48538162930115186  1.0000
  C   C11       1.0  0.7235036401148276  0.7522043471042535  0.5446514637108634  1.0000
  C   C12       1.0  0.276497027958456  0.24779682876948778  0.0446497425183523  1.0000
  C   C13       1.0  0.8583199421031295  0.699629207066465  0.6248179869767725  1.0000
  C   C14       1.0  0.141679132436451  0.3003703629507584  0.12481432897199339  1.0000
  C   C15       1.0  0.013513160595486807  0.6776132378182566  0.5486496815082803  1.0000
  C   C16       1.0  0.9864864331555409  0.3223832905945869  0.0486470158331684  1.0000
  C   C17       1.0  0.023931753881519965  0.7056520436030664  0.3938985054073711  1.0000
  C   C18       1.0  0.9760655978319831  0.2943500012990156  0.8939000553688743  1.0000
  C   C19       1.0  0.8862959278862022  0.761211573503836  0.3229626938220065  1.0000
  C   C20       1.0  0.11370835605000448  0.23879217244120096  0.8229607171486323  1.0000
  C   C21       1.0  0.16976194332070094  0.623645068364155  0.6192834684884191  1.0000
  C   C22       1.0  0.8302376226723779  0.37635093997739943  0.11928557958765401  1.0000
  N   N1        1.0  0.3576494552196081  0.7498866457732801  0.06575654174028502  1.0000
  N   N2        1.0  0.6423480883852903  0.2501123774066016  0.5657585271307113  1.0000
  N   N3        1.0  0.7375660410091882  0.7846373939624057  0.3971596666445265  1.0000
  N   N4        1.0  0.26243662875032203  0.21536469111240555  0.897156519122433  1.0000
  N   N5        1.0  0.27860396262351367  0.023318052918447997  0.449808230436723  1.0000
  N   N6        1.0  0.7213943650607888  0.9766821676460469  0.9498095595187409  1.0000
  O   O1        1.0  0.25128439243716383  0.5398025034301599  0.5455904143221844  1.0000
  O   O2        1.0  0.74872056451197  0.46020571267602145  0.045599861171354  1.0000
  O   O3        1.0  0.3125005829504061  0.024882817882144095  0.3092025668262579  1.0000
  O   O4        1.0  0.6874985851736141  0.9751161093458831  0.8092027300245732  1.0000
  O   O5        1.0  0.16673493266870312  0.09968237148558497  0.49931420627069667  1.0000
  O   O6        1.0  0.8332638382546519  0.9003194764102176  0.9993138926677575  1.0000
  O   O7        1.0  0.35911831179147663  0.9442637194314898  0.5369423027889653  1.0000
  O   O8        1.0  0.640879676240928  0.05573738034310341  0.0369449500331527  1.0000
