data_image0
_chemical_formula_structural       Cd5H42C68N4O18
_chemical_formula_sum              "Cd5 H42 C68 N4 O18"
_cell_length_a       7.867703971300402
_cell_length_b       13.515304270605375
_cell_length_c       14.838478624967276
_cell_angle_alpha    66.60392566872532
_cell_angle_beta     78.89813808380026
_cell_angle_gamma    86.89798751233971

_space_group_name_H-M_alt    "P 1"
_space_group_IT_number       1

loop_
  _space_group_symop_operation_xyz
  'x, y, z'

loop_
  _atom_site_type_symbol
  _atom_site_label
  _atom_site_symmetry_multiplicity
  _atom_site_fract_x
  _atom_site_fract_y
  _atom_site_fract_z
  _atom_site_occupancy
  Cd  Cd1       1.0  0.5836641151327414  0.11356309142471592  0.11214101720774748  1.0000
  Cd  Cd2       1.0  0.416334833577416  0.8864367228966402  0.8878548971237022  1.0000
  Cd  Cd3       1.0  0.26494660975897233  0.8601928486296587  0.16651147772016364  1.0000
  Cd  Cd4       1.0  0.7350587794664919  0.13980700508773228  0.8334871535851178  1.0000
  Cd  Cd5       1.0  0.999999869122995  0.9999975649981823  2.610889353977758e-07  1.0000
  H   H1        1.0  0.6567777154757836  0.9747011674131727  0.025884051045856872  1.0000
  H   H2        1.0  0.3432237702975201  0.02529784011199611  0.9741125914018554  1.0000
  H   H3        1.0  0.026770502917486293  0.45188286403440264  0.7124279837174896  1.0000
  H   H4        1.0  0.973218032182267  0.5481180690895613  0.28757865032548596  1.0000
  H   H5        1.0  0.227990893131512  0.6117427531947044  0.6407912480555851  1.0000
  H   H6        1.0  0.7720002585186022  0.3882580977017652  0.3592124614506461  1.0000
  H   H7        1.0  0.6560782946749697  0.3530053262458567  0.8964724261897387  1.0000
  H   H8        1.0  0.3439244847241625  0.6469945933680421  0.10352846109791601  1.0000
  H   H9        1.0  0.8516404657785656  0.5121459724051292  0.8282533959229069  1.0000
  H   H10       1.0  0.14835345226977384  0.48785810281321307  0.17174949229405465  1.0000
  H   H11       1.0  0.7782305051639257  0.6822234067148756  0.697157520520733  1.0000
  H   H12       1.0  0.22176597684372726  0.31777979638334136  0.3028434215949574  1.0000
  H   H13       1.0  0.5060519096724364  0.6927897440244309  0.6317924686269903  1.0000
  H   H14       1.0  0.4939446059554129  0.3072133774188686  0.3682051307167953  1.0000
  H   H15       1.0  0.7111097310413895  0.8856706379527852  0.40919452440702725  1.0000
  H   H16       1.0  0.28889250587885573  0.11431867010627172  0.5908050428999374  1.0000
  H   H17       1.0  0.7761842585516732  0.8203637321795368  0.5806973649879198  1.0000
  H   H18       1.0  0.22381193600706692  0.17963374569848156  0.41930240352360215  1.0000
  H   H19       1.0  0.4556139183790577  0.9584799305724586  0.3948567123733255  1.0000
  H   H20       1.0  0.5443801641664976  0.0415264979927841  0.6051425719827959  1.0000
  H   H21       1.0  0.5201929255865424  0.8886113116559216  0.5649641079026109  1.0000
  H   H22       1.0  0.4798061338285038  0.1113909866602043  0.43503355100305197  1.0000
  H   H23       1.0  0.2880559760751851  0.8063923281924447  0.7133035526928351  1.0000
  H   H24       1.0  0.7119477189681122  0.19360024530224249  0.2866966555932393  1.0000
  H   H25       1.0  0.9858830230447566  0.7913865065986697  0.6915020992426549  1.0000
  H   H26       1.0  0.014120848742564402  0.20860930812145287  0.3084975380733823  1.0000
  H   H27       1.0  0.9670760705143168  0.1769518744826257  0.10710951811989841  1.0000
  H   H28       1.0  0.0329227797377598  0.8230463437224885  0.8928876845281407  1.0000
  H   H29       1.0  0.15733391117233003  0.3351380502636232  0.044595524432907006  1.0000
  H   H30       1.0  0.8426636106324497  0.6648602580481864  0.9554051461466598  1.0000
  H   H31       1.0  0.696398328205241  0.5297009590704532  0.022362926048430206  1.0000
  H   H32       1.0  0.30359783153203074  0.4702975210029905  0.9776445552345548  1.0000
  H   H33       1.0  0.524276108576821  0.35979521839117024  0.08653283072031563  1.0000
  H   H34       1.0  0.4757239570151485  0.6402022667934801  0.9134678994211213  1.0000
  H   H35       1.0  0.11090448688448622  0.633616141313297  0.3522106774742824  1.0000
  H   H36       1.0  0.8891075923634872  0.36638773392523666  0.6477871157361719  1.0000
  H   H37       1.0  0.2143510698894531  0.47287200220503683  0.48114534377359064  1.0000
  H   H38       1.0  0.7856572423061436  0.5271343660526142  0.5188539009355324  1.0000
  H   H39       1.0  0.685378291503632  0.657262120819354  0.4244551315506086  1.0000
  H   H40       1.0  0.3146289093329244  0.3427474807845314  0.5755429987937077  1.0000
  H   H41       1.0  0.5610167039139498  0.8079998728938168  0.29787559752094234  1.0000
  H   H42       1.0  0.438983676023085  0.192003272187101  0.7021236320071438  1.0000
  C   C1        1.0  0.39563156073963773  0.23861610523052695  0.9258272264480636  1.0000
  C   C2        1.0  0.6043684400144543  0.7613797021829569  0.07417144923805812  1.0000
  C   C3        1.0  0.061708098227249805  0.2565847071477094  0.8533080314239143  1.0000
  C   C4        1.0  0.9382920456506697  0.7434144231461347  0.1466934160640747  1.0000
  C   C5        1.0  0.34207878969360184  0.3417855671423524  0.8482495523641944  1.0000
  C   C6        1.0  0.6579227676416155  0.6582151018229966  0.15174847598444782  1.0000
  C   C7        1.0  0.18824641049939572  0.3501806802340468  0.8128552255462083  1.0000
  C   C8        1.0  0.8117522281871956  0.6498152989410642  0.18715026084333883  1.0000
  C   C9        1.0  0.14916032766695517  0.448160281917211  0.737351884586161  1.0000
  C   C10       1.0  0.8508346100063875  0.551838947507683  0.26265273775781145  1.0000
  C   C11       1.0  0.26045105806481667  0.5362237758020713  0.6976997255876327  1.0000
  C   C12       1.0  0.7395503537440435  0.4637754113639333  0.30230427095826673  1.0000
  C   C13       1.0  0.41964404038611763  0.5302229028729784  0.7308207120050055  1.0000
  C   C14       1.0  0.5803506814002333  0.4697722627718833  0.2691841226357283  1.0000
  C   C15       1.0  0.46137082185747863  0.4317185560584563  0.8073206463000844  1.0000
  C   C16       1.0  0.5386295580795561  0.5682845890224613  0.19267858322800183  1.0000
  C   C17       1.0  0.6211340796450032  0.42733673513530585  0.8396404855684594  1.0000
  C   C18       1.0  0.37886620855800873  0.5726647974983905  0.16035936372183807  1.0000
  C   C19       1.0  0.731190965179934  0.5163097421784926  0.8011918533207305  1.0000
  C   C20       1.0  0.26880689666481317  0.483695081246161  0.19880901242751745  1.0000
  C   C21       1.0  0.6899310165855751  0.6128427689705732  0.7260784274780576  1.0000
  C   C22       1.0  0.31006528195401023  0.38715720923320157  0.27392375416205533  1.0000
  C   C23       1.0  0.5384592466201426  0.6190548886211219  0.690556922422452  1.0000
  C   C24       1.0  0.4615342989692977  0.3809418325988077  0.30944474339815997  1.0000
  C   C25       1.0  0.9151832062628886  0.9842140399302154  0.23560328272313308  1.0000
  C   C26       1.0  0.08481795171725542  0.015779340360659  0.7643961974466861  1.0000
  C   C27       1.0  0.27913552393205526  0.0273331581250389  0.2636343653393354  1.0000
  C   C28       1.0  0.7208607623607151  0.9726659322002008  0.7363647834099678  1.0000
  C   C29       1.0  0.13859065295729073  0.95761703981713  0.3465797668204472  1.0000
  C   C30       1.0  0.8614059018135336  0.042386904180766294  0.6534181911966143  1.0000
  C   C31       1.0  0.971061747441574  0.9435449618182332  0.33509148982376746  1.0000
  C   C32       1.0  0.028937004352435704  0.056451660270646194  0.6649070011408611  1.0000
  C   C33       1.0  0.8419167630815212  0.8916448567097248  0.4209025942224899  1.0000
  C   C34       1.0  0.15808448663266012  0.1083501360283705  0.5790962661851254  1.0000
  C   C35       1.0  0.8784863677315188  0.8541827535322072  0.5153500067074502  1.0000
  C   C36       1.0  0.12151112165432211  0.1458147158940335  0.48464963664445543  1.0000
  C   C37       1.0  0.049129956388249206  0.8624651133885736  0.5298768917259338  1.0000
  C   C38       1.0  0.9508677097416228  0.1375355972630956  0.4701221806559275  1.0000
  C   C39       1.0  0.1819336494213744  0.9134798067980014  0.44409840431259784  1.0000
  C   C40       1.0  0.8180666063626916  0.08652088695011169  0.5559004177500384  1.0000
  C   C41       1.0  0.352821325786941  0.9202672003303647  0.4592567947189536  1.0000
  C   C42       1.0  0.6471791067411559  0.07973673464317699  0.5407414563736451  1.0000
  C   C43       1.0  0.38923786735860944  0.8806999239081251  0.5543690331433239  1.0000
  C   C44       1.0  0.6107611461894181  0.11930156818439033  0.44562893564344097  1.0000
  C   C45       1.0  0.25712143385091213  0.8337073276931549  0.6389073277444622  1.0000
  C   C46       1.0  0.7428786127701983  0.1662892859439395  0.3610910380605503  1.0000
  C   C47       1.0  0.09023145202905881  0.8245729439483186  0.626823186598635  1.0000
  C   C48       1.0  0.9097646575196876  0.1754229051514855  0.3731765331207058  1.0000
  C   C49       1.0  0.9111895803081396  0.2563852016537922  0.08828478613611417  1.0000
  C   C50       1.0  0.08880806012683709  0.7436146537813143  0.9117125904637149  1.0000
  C   C51       1.0  0.018171115170901  0.3475666295926062  0.05230911409585553  1.0000
  C   C52       1.0  0.9818290287070185  0.652432500701238  0.9476923333921334  1.0000
  C   C53       1.0  0.9453116092692608  0.4501197990916451  0.02330676391449771  1.0000
  C   C54       1.0  0.05468578718127759  0.549876978427875  0.976697869199178  1.0000
  C   C55       1.0  0.7633611323502905  0.45372193334014815  0.039535695859768856  1.0000
  C   C56       1.0  0.23663765066138615  0.5462764481748152  0.9604681923320797  1.0000
  C   C57       1.0  0.6651368105393232  0.3589612184204043  0.07602048430111098  1.0000
  C   C58       1.0  0.3348581081631679  0.641037139456934  0.9239817737064371  1.0000
  C   C59       1.0  0.23700508696407496  0.6345700762336861  0.3718712927810799  1.0000
  C   C60       1.0  0.762998478898382  0.36544353285064096  0.6281236579734183  1.0000
  C   C61       1.0  0.29715350579667194  0.5450677197694844  0.44365549279957855  1.0000
  C   C62       1.0  0.7028535776109595  0.45493941417061023  0.5563415615249098  1.0000
  C   C63       1.0  0.46350928013221443  0.5479507119883281  0.4641897078951231  1.0000
  C   C64       1.0  0.5364948320357287  0.4520509422688974  0.5358157829057574  1.0000
  C   C65       1.0  0.5568125482829842  0.6463413378103695  0.412393553037262  1.0000
  C   C66       1.0  0.4431869361820162  0.3536691043968078  0.5876043498292559  1.0000
  C   C67       1.0  0.4879363016121588  0.7322742262139528  0.3411445940465612  1.0000
  C   C68       1.0  0.5120632757881439  0.2677369078999376  0.6588483190581869  1.0000
  N   N1        1.0  0.7374425575737721  0.2614132556216262  0.09773214880416951  1.0000
  N   N2        1.0  0.262553696300067  0.7385849958180299  0.9022659727174799  1.0000
  N   N3        1.0  0.331471410222143  0.7265110399002596  0.319416323623436  1.0000
  N   N4        1.0  0.6685355680033781  0.2734945142545796  0.680582687572027  1.0000
  O   O1        1.0  0.4028451607838052  0.23894985301846114  0.010527239000161571  1.0000
  O   O2        1.0  0.597149490641904  0.7610427306457198  0.9894718397400764  1.0000
  O   O3        1.0  0.44391444451629514  0.162344444866342  0.8974297150129686  1.0000
  O   O4        1.0  0.5560935422886787  0.8376544550759988  0.10256362741913704  1.0000
  O   O5        1.0  0.07674707683835891  0.18094435474016274  0.9355058702030091  1.0000
  O   O6        1.0  0.9232569001310724  0.8190530397652155  0.06449181024206031  1.0000
  O   O7        1.0  0.9469963554631563  0.2620341337729712  0.8010844674731955  1.0000
  O   O8        1.0  0.05299731980202438  0.7379659429892839  0.19892130725804688  1.0000
  O   O9        1.0  0.03150510956233888  0.9898180851877497  0.1595136776802022  1.0000
  O   O10       1.0  0.9684948251526179  0.010176964995082497  0.8404873135501701  1.0000
  O   O11       1.0  0.7588589950801534  0.009682488386864902  0.2330299565537786  1.0000
  O   O12       1.0  0.2411367285616137  0.990306039376492  0.766969877877983  1.0000
  O   O13       1.0  0.3792021621202367  0.9828908241394599  0.21011398121073208  1.0000
  O   O14       1.0  0.6207979615855592  0.017108355147342998  0.7898894719403983  1.0000
  O   O15       1.0  0.30571679229858273  0.12148352042898837  0.25409036949763214  1.0000
  O   O16       1.0  0.6942822145254014  0.8785179879945133  0.745908267843518  1.0000
  O   O17       1.0  0.7186862842535576  0.044819989687141494  0.0027501214616947062  1.0000
  O   O18       1.0  0.28131519479570233  0.9551790341690136  0.9972471895403957  1.0000
