data_image0
_chemical_formula_structural       Cu4H20C12S4I4N12
_chemical_formula_sum              "Cu4 H20 C12 S4 I4 N12"
_cell_length_a       5.659702186177399
_cell_length_b       9.988710408350414
_cell_length_c       13.079318588258513
_cell_angle_alpha    90.00063954819376
_cell_angle_beta     89.9998013552833
_cell_angle_gamma    96.35386178926787

_space_group_name_H-M_alt    "P 1"
_space_group_IT_number       1

loop_
  _space_group_symop_operation_xyz
  'x, y, z'

loop_
  _atom_site_type_symbol
  _atom_site_label
  _atom_site_symmetry_multiplicity
  _atom_site_fract_x
  _atom_site_fract_y
  _atom_site_fract_z
  _atom_site_occupancy
  Cu  Cu1       1.0  0.7587129980560762  0.9870234596744325  0.5013451682763944  1.0000
  Cu  Cu2       1.0  0.7412991343825297  0.5129654900546115  0.0013486608102369004  1.0000
  Cu  Cu3       1.0  0.2412995220426168  0.012977409348046398  0.4986566086464352  1.0000
  Cu  Cu4       1.0  0.2587013848422259  0.4870283398438391  0.9986500578299274  1.0000
  H   H1        1.0  0.3949222487930584  0.342789770724913  0.484856597368733  1.0000
  H   H2        1.0  0.10509063608132863  0.15719559726629484  0.9848500073236794  1.0000
  H   H3        1.0  0.6050749377329011  0.6572050705922551  0.5151505315014833  1.0000
  H   H4        1.0  0.8949202456215845  0.8427881453810714  0.015153298666213306  1.0000
  H   H5        1.0  0.0023208439239751706  0.5091002683753061  0.3433394075638675  1.0000
  H   H6        1.0  0.4976927016853949  0.9909021850806072  0.8433272316103386  1.0000
  H   H7        1.0  0.9976636850015058  0.4909197759373074  0.6566570174894012  1.0000
  H   H8        1.0  0.5023038840378149  0.009089634145070101  0.15666154766889664  1.0000
  H   H9        1.0  0.010293572495456291  0.1377170094747626  0.312683477287756  1.0000
  H   H10       1.0  0.48970355029639023  0.36227877209175574  0.812690969039814  1.0000
  H   H11       1.0  0.9897290178123584  0.8622989612290509  0.6873205933840297  1.0000
  H   H12       1.0  0.5102977700578464  0.6377190871119397  0.1873131015760522  1.0000
  H   H13       1.0  0.15890109739380162  0.29722760693574923  0.27267579386404617  1.0000
  H   H14       1.0  0.3410972744139471  0.20277258294246542  0.7726860743809355  1.0000
  H   H15       1.0  0.8411012966240321  0.7027934244842841  0.7273175729183878  1.0000
  H   H16       1.0  0.6588985462243288  0.7972242749767207  0.2273149379712792  1.0000
  H   H17       1.0  0.9130499523605595  0.22043877398422043  0.20035321127327424  1.0000
  H   H18       1.0  0.5869269437130741  0.27956627360314473  0.7003552276015913  1.0000
  H   H19       1.0  0.0869449390525361  0.7795711830532924  0.7996447428664272  1.0000
  H   H20       1.0  0.4130755783720517  0.7204376294653586  0.29964502020754946  1.0000
  C   C1        1.0  0.6232884108159737  0.24571509858272125  0.3851704593625629  1.0000
  C   C2        1.0  0.8767057352324484  0.2542787247913695  0.8851749729662404  1.0000
  C   C3        1.0  0.3767107785821935  0.7542898158744863  0.6148343758475151  1.0000
  C   C4        1.0  0.12329711520412445  0.7457090572474173  0.11483292043917002  1.0000
  C   C5        1.0  0.8560804507396683  0.43743761470823744  0.3685547374225423  1.0000
  C   C6        1.0  0.6439165299798759  0.062551914353655  0.8685496665366588  1.0000
  C   C7        1.0  0.1438947729835576  0.5625622894276391  0.6314523914809912  1.0000
  C   C8        1.0  0.3560977204900269  0.9374398848137205  0.13145516861361986  1.0000
  C   C9        1.0  0.9874156614980266  0.23526909124924344  0.2776095392776341  1.0000
  C   C10       1.0  0.5125805522045823  0.264730094186028  0.7776153589944601  1.0000
  C   C11       1.0  0.012590429650067753  0.7647438756310693  0.7223891794323266  1.0000
  C   C12       1.0  0.487431367027476  0.735267752907042  0.22238871161464868  1.0000
  S   S1        1.0  0.5168398096919732  0.08047741407260392  0.3750799184767289  1.0000
  S   S2        1.0  0.9831598985342608  0.4195172520828337  0.875082505216888  1.0000
  S   S3        1.0  0.4831666459254508  0.9195284995906335  0.6249203293376199  1.0000
  S   S4        1.0  0.016845118966799064  0.5804725425391055  0.12492156536573162  1.0000
  I   I1        1.0  0.016193469814375288  0.19114053313293772  0.591321282767318  1.0000
  I   I2        1.0  0.48379522519062584  0.30885581343609664  0.09132214810699683  1.0000
  I   I3        1.0  0.9838125852465895  0.8088633658566736  0.40867361307879707  1.0000
  I   I4        1.0  0.5162009599500976  0.691133991181978  0.9086696894280666  1.0000
  N   N1        1.0  0.6818967817394964  0.4666876427482338  0.4277996364854746  1.0000
  N   N2        1.0  0.8181084644755146  0.033301799230713414  0.9277857104602351  1.0000
  N   N3        1.0  0.3180951414583433  0.533316272454911  0.5722036695937336  1.0000
  N   N4        1.0  0.1818935848504992  0.9666819534548099  0.07221071444287473  1.0000
  N   N5        1.0  0.5392353055853435  0.3474959761613192  0.43692283415411753  1.0000
  N   N6        1.0  0.9607649852897568  0.152495629812968  0.9369134635994174  1.0000
  N   N7        1.0  0.46078408015485195  0.6525038774475932  0.5630758844971668  1.0000
  N   N8        1.0  0.03919960350162195  0.8474952184587822  0.06307913852549521  1.0000
  N   N9        1.0  0.8286507304322939  0.30471666873305037  0.34066212040404054  1.0000
  N   N10       1.0  0.6713393930835281  0.19528149823334934  0.8406572673403547  1.0000
  N   N11       1.0  0.1713398268494615  0.6952892631441544  0.6593442439470538  1.0000
  N   N12       1.0  0.3286674270150556  0.8047173621828136  0.15934068674926755  1.0000
