data_image0
_chemical_formula_structural       Mo2H8C14N2O8
_chemical_formula_sum              "Mo2 H8 C14 N2 O8"
_cell_length_a       3.9394749105908047
_cell_length_b       9.594955907600273
_cell_length_c       10.297065359665263
_cell_angle_alpha    74.93133460956106
_cell_angle_beta     86.60404332628012
_cell_angle_gamma    80.448241964879

_space_group_name_H-M_alt    "P 1"
_space_group_IT_number       1

loop_
  _space_group_symop_operation_xyz
  'x, y, z'

loop_
  _atom_site_type_symbol
  _atom_site_label
  _atom_site_symmetry_multiplicity
  _atom_site_fract_x
  _atom_site_fract_y
  _atom_site_fract_z
  _atom_site_occupancy
  Mo  Mo1       1.0  0.11264613039011812  0.1685897899237645  0.2642835886357204  1.0000
  Mo  Mo2       1.0  0.8873166833051868  0.8314061914113893  0.7357152443054105  1.0000
  H   H1        1.0  0.7654020259934243  0.44208683650521857  0.5375384415330444  1.0000
  H   H2        1.0  0.23459278487241172  0.5579122174491147  0.46246006004794543  1.0000
  H   H3        1.0  0.5242309638502576  0.5546606229489868  0.7225828136359027  1.0000
  H   H4        1.0  0.47577798327214543  0.4453415988074666  0.2774166338860057  1.0000
  H   H5        1.0  0.4399402920280694  0.39556049355157086  0.9514086010767145  1.0000
  H   H6        1.0  0.5600839182181828  0.6044416281769075  0.04859156050817858  1.0000
  H   H7        1.0  0.6186915772477588  0.1252861253973236  0.9960710117868317  1.0000
  H   H8        1.0  0.38132028520211475  0.8747149887559972  0.003928639789435776  1.0000
  C   C1        1.0  0.9224135800528828  0.1611117910697075  0.5463965031456582  1.0000
  C   C2        1.0  0.07758478121512265  0.8388839303851583  0.45360659332651215  1.0000
  C   C3        1.0  0.8137838176483071  0.22196208633658193  0.6602221013588476  1.0000
  C   C4        1.0  0.18621435055037242  0.778034797219604  0.33977392959978664  1.0000
  C   C5        1.0  0.7296515525155272  0.37449042645594927  0.6385469597658542  1.0000
  C   C6        1.0  0.2703450468104975  0.6255107877253537  0.3614519777474285  1.0000
  C   C7        1.0  0.5964448335181703  0.436911270201648  0.7417935341688207  1.0000
  C   C8        1.0  0.40355980203474207  0.5630888162746998  0.2582045467277752  1.0000
  C   C9        1.0  0.5508188618789447  0.34754175783044877  0.8705342393753313  1.0000
  C   C10       1.0  0.4491947890311109  0.6524615165498348  0.12946584813322196  1.0000
  C   C11       1.0  0.7753071331755522  0.132586257165066  0.7921069998871318  1.0000
  C   C12       1.0  0.22468691814756164  0.8674149720324635  0.20789198095215508  1.0000
  C   C13       1.0  0.645380957699125  0.196615709991292  0.8960807587510545  1.0000
  C   C14       1.0  0.3546228187366438  0.8033865120057158  0.10392169747993311  1.0000
  N   N1        1.0  0.9441319591313758  0.0195905896160227  0.5581394282556218  1.0000
  N   N2        1.0  0.05586681924839361  0.9804040591131905  0.4418619675588574  1.0000
  O   O1        1.0  0.9869253166175871  0.24865968712220615  0.4290291061851904  1.0000
  O   O2        1.0  0.013067213995476815  0.7513382495389251  0.5709735821782618  1.0000
  O   O3        1.0  0.8612226706379006  0.9850217553975114  0.8243584114079354  1.0000
  O   O4        1.0  0.13876951754421188  0.014977283781156802  0.1756430555561295  1.0000
  O   O5        1.0  0.5573987254719553  0.15769963356754602  0.2823303182514749  1.0000
  O   O6        1.0  0.4426120598978472  0.8423047682771382  0.7176676171646793  1.0000
  O   O7        1.0  0.9976349825951943  0.3253203443225843  0.1415878691500723  1.0000
  O   O8        1.0  0.002357230480527123  0.6746787047867142  0.858412623794962  1.0000
