data_image0
_chemical_formula_structural       Zn4H24C48Br8N8O16
_chemical_formula_sum              "Zn4 H24 C48 Br8 N8 O16"
_cell_length_a       7.79469638716001
_cell_length_b       7.754198995124523
_cell_length_c       26.31969265945103
_cell_angle_alpha    89.99957952489063
_cell_angle_beta     97.29235397679417
_cell_angle_gamma    90.00054562392003

_space_group_name_H-M_alt    "P 1"
_space_group_IT_number       1

loop_
  _space_group_symop_operation_xyz
  'x, y, z'

loop_
  _atom_site_type_symbol
  _atom_site_label
  _atom_site_symmetry_multiplicity
  _atom_site_fract_x
  _atom_site_fract_y
  _atom_site_fract_z
  _atom_site_occupancy
  Zn  Zn1       1.0  0.8832464823601  0.11959788109118107  0.9030625098141911  1.0000
  Zn  Zn2       1.0  0.11675112579896307  0.11959414043097638  0.5969376129717219  1.0000
  Zn  Zn3       1.0  0.1167540910615799  0.8803997679186395  0.09693818510879029  1.0000
  Zn  Zn4       1.0  0.8832429855973059  0.8804047981795122  0.4030624519675996  1.0000
  H   H1        1.0  0.8866983642419369  0.506567431614684  0.915800372330075  1.0000
  H   H2        1.0  0.11330777181835572  0.5065613955366786  0.5841988591614893  1.0000
  H   H3        1.0  0.11330997911465349  0.49342505894274075  0.0841998633489212  1.0000
  H   H4        1.0  0.8866915276160154  0.4934336742388368  0.41580026668447795  1.0000
  H   H5        1.0  0.7879320948765384  0.18081340057043596  0.7903978492298477  1.0000
  H   H6        1.0  0.212063446700796  0.18080906160489724  0.7096028203964266  1.0000
  H   H7        1.0  0.21206848826191296  0.8191881173204434  0.2096020861722678  1.0000
  H   H8        1.0  0.7879332466034369  0.8191911666358749  0.2903977243898908  1.0000
  H   H9        1.0  0.7525390443596791  0.7349068602376362  0.7669099642691606  1.0000
  H   H10       1.0  0.24744837902979097  0.7349061456072404  0.7330876667793049  1.0000
  H   H11       1.0  0.24746152422872575  0.265094657639004  0.2330911104089211  1.0000
  H   H12       1.0  0.7525470548539347  0.2650953722850246  0.2669101696504725  1.0000
  H   H13       1.0  0.501144167288814  0.10624475081495888  0.8885916283497366  1.0000
  H   H14       1.0  0.4988584794343252  0.10625076728832279  0.6114102382000367  1.0000
  H   H15       1.0  0.4988577140535284  0.8937516085908397  0.11140797734322659  1.0000
  H   H16       1.0  0.5011395072516933  0.8937507505818871  0.38859035662986235  1.0000
  H   H17       1.0  0.8641103606954202  0.23233100899734174  0.013409044811737688  1.0000
  H   H18       1.0  0.13589663654749273  0.23232807434868613  0.48659262522402  1.0000
  H   H19       1.0  0.13589021758185274  0.7676679296410853  0.9865912703514041  1.0000
  H   H20       1.0  0.8641065284989295  0.7676747331724769  0.5134077900250915  1.0000
  H   H21       1.0  0.3151199045840655  0.2687123500847902  0.0279547539131002  1.0000
  H   H22       1.0  0.684882263190502  0.2687150489092716  0.4720443704736894  1.0000
  H   H23       1.0  0.684879409439425  0.7312917470719568  0.9720432326486019  1.0000
  H   H24       1.0  0.31512089701706714  0.7312903378548581  0.5279564245317019  1.0000
  C   C1        1.0  0.8363544365890263  0.8150935116188192  0.8692155998427182  1.0000
  C   C2        1.0  0.1636427005649779  0.8150919583435652  0.6307848923506469  1.0000
  C   C3        1.0  0.1636512860818016  0.18490284776575547  0.1307871940537737  1.0000
  C   C4        1.0  0.8363527333020003  0.18490569067714088  0.3692129440826903  1.0000
  C   C5        1.0  0.8198546959606078  0.6413607762059002  0.8442121647586518  1.0000
  C   C6        1.0  0.18014225015490135  0.6413574696584731  0.6557871779768263  1.0000
  C   C7        1.0  0.18015234435324598  0.358639452079565  0.1557887803857767  1.0000
  C   C8        1.0  0.8198544722326774  0.3586388897392111  0.3442110882611189  1.0000
  C   C9        1.0  0.8500926780335333  0.4943950087957346  0.8746036178062512  1.0000
  C   C10       1.0  0.1499107756142024  0.49438958884321943  0.6253947764655052  1.0000
  C   C11       1.0  0.1499104869682384  0.5055974817345827  0.1253967974523462  1.0000
  C   C12       1.0  0.8500885189757381  0.5056067705514022  0.37460472913792836  1.0000
  C   C13       1.0  0.7961516896414905  0.31331438141526746  0.8042216987330235  1.0000
  C   C14       1.0  0.2038488983707367  0.313309017886965  0.6957773582972138  1.0000
  C   C15       1.0  0.20384760494845014  0.6866819779793544  0.1957778068704172  1.0000
  C   C16       1.0  0.7961516847621368  0.6866912103800614  0.3042225771060814  1.0000
  C   C17       1.0  0.7663362022170973  0.4545942276605429  0.7715486841742702  1.0000
  C   C18       1.0  0.23366171402469146  0.4545909167352775  0.7284511021529596  1.0000
  C   C19       1.0  0.23366567431430238  0.5454111591074876  0.2284513012690468  1.0000
  C   C20       1.0  0.7663375854320051  0.545409311535657  0.2715480236882613  1.0000
  C   C21       1.0  0.7764774787436721  0.621595161914243  0.7912554713458563  1.0000
  C   C22       1.0  0.2235167192270708  0.6215909542974741  0.708743048136661  1.0000
  C   C23       1.0  0.22352826333838044  0.3784037767370376  0.20874580351365074  1.0000
  C   C24       1.0  0.7764825850796484  0.3784092739782068  0.2912556979459069  1.0000
  C   C25       1.0  0.20651216655311797  0.1625245895662317  0.929664581202637  1.0000
  C   C26       1.0  0.7934910109652051  0.16252929864364773  0.5703337640102006  1.0000
  C   C27       1.0  0.793489724500418  0.8374743490967659  0.07033426497064002  1.0000
  C   C28       1.0  0.20650828850823896  0.837474798498853  0.4296653618274604  1.0000
  C   C29       1.0  0.38758403354402304  0.18830085345280875  0.9551829135268619  1.0000
  C   C30       1.0  0.6124180543147162  0.1883057483358782  0.5448168532678039  1.0000
  C   C31       1.0  0.612416573833343  0.8116980852140968  0.04481512308434789  1.0000
  C   C32       1.0  0.38758252884048267  0.8116996384265674  0.4551830821307519  1.0000
  C   C33       1.0  0.5256021937443052  0.15204149990989174  0.9280337169362767  1.0000
  C   C34       1.0  0.474398277184619  0.1520469732496892  0.57196682601883  1.0000
  C   C35       1.0  0.47439838937182094  0.8479548594855687  0.07196621847057828  1.0000
  C   C36       1.0  0.5256009980331697  0.8479558342452123  0.4280341986132967  1.0000
  C   C37       1.0  0.727699845825306  0.22297091310988995  0.9978975228521633  1.0000
  C   C38       1.0  0.2722960509754414  0.22296973594316677  0.5021038287521478  1.0000
  C   C39       1.0  0.2722955540971483  0.777028025501437  0.0021029718905793953  1.0000
  C   C40       1.0  0.7277032242311847  0.7770304923040284  0.4978971958823522  1.0000
  C   C41       1.0  0.5947062755655352  0.2616388287040934  0.02692952460249389  1.0000
  C   C42       1.0  0.40529710980717953  0.2616413965920188  0.4730708021148118  1.0000
  C   C43       1.0  0.40529301420787783  0.7383652684289074  0.9730703607524801  1.0000
  C   C44       1.0  0.5947060600892582  0.7383614109338907  0.5269292333756397  1.0000
  C   C45       1.0  0.4221418977135798  0.24408261197486064  0.005923953564781894  1.0000
  C   C46       1.0  0.5778535948482216  0.2440876038545098  0.4940745861365984  1.0000
  C   C47       1.0  0.577854814996293  0.7559189059087501  0.99407507218573  1.0000
  C   C48       1.0  0.4221456900863387  0.7559190725214574  0.5059256789746627  1.0000
  Br  Br1       1.0  0.714895183484913  0.40833347751746635  0.7005083968419398  1.0000
  Br  Br2       1.0  0.28509327382995053  0.40832631373410777  0.7994915040172117  1.0000
  Br  Br3       1.0  0.28509892796158437  0.5916770677077139  0.2994916680867021  1.0000
  Br  Br4       1.0  0.7149021406481282  0.5916739145153186  0.20050785144837852  1.0000
  Br  Br5       1.0  0.6500111328464512  0.33689424056937867  0.0955550266956422  1.0000
  Br  Br6       1.0  0.34998773039935577  0.33689153670145794  0.4044449614372283  1.0000
  Br  Br7       1.0  0.3499868538507372  0.6631098565485447  0.9044455681318836  1.0000
  Br  Br8       1.0  0.6500115545128792  0.6631099811790905  0.5955553036787791  1.0000
  N   N1        1.0  0.8367079867566148  0.33468817086645686  0.8549472400067373  1.0000
  N   N2        1.0  0.16329276201236811  0.3346823903335191  0.6450536765063503  1.0000
  N   N3        1.0  0.1632925915150736  0.6653094781481103  0.1450530751575911  1.0000
  N   N4        1.0  0.8367052343513562  0.6653139690507641  0.354946158810975  1.0000
  N   N5        1.0  0.6908676905626051  0.16915405163432945  0.9489874993740344  1.0000
  N   N6        1.0  0.309140664470462  0.16915330090345285  0.5510152111751481  1.0000
  N   N7        1.0  0.3091341810741283  0.8308410181381162  0.05101286583742849  1.0000
  N   N8        1.0  0.6908611975053133  0.8308507962264852  0.44898591354532863  1.0000
  O   O1        1.0  0.8928822006706555  0.8250555398734815  0.9164352021157072  1.0000
  O   O2        1.0  0.1071240860829903  0.8250623564402986  0.5835648625437742  1.0000
  O   O3        1.0  0.10712999371445159  0.17493695067221887  0.0835674622495119  1.0000
  O   O4        1.0  0.8928726411713511  0.17493787183370563  0.41643302393195114  1.0000
  O   O5        1.0  0.7934122572681445  0.9487115725509625  0.8419257485722723  1.0000
  O   O6        1.0  0.20657953562796647  0.948708462958251  0.6580769059581115  1.0000
  O   O7        1.0  0.20658697912719504  0.05128607641054829  0.1580783141338458  1.0000
  O   O8        1.0  0.7934133066477571  0.0512917652942377  0.3419212101419832  1.0000
  O   O9        1.0  0.08291851424345961  0.20051598865320835  0.9558931540910932  1.0000
  O   O10       1.0  0.9170823908232391  0.20052124744364616  0.5441061604336639  1.0000
  O   O11       1.0  0.917084655630653  0.7994816603772817  0.0441068814041046  1.0000
  O   O12       1.0  0.08291302852160239  0.7994828496820926  0.4558928152697135  1.0000
  O   O13       1.0  0.18183157826526036  0.1039322596416383  0.8847460874559516  1.0000
  O   O14       1.0  0.8181736497621515  0.10394253621462468  0.6152547441566156  1.0000
  O   O15       1.0  0.8181689999896874  0.8960615205013694  0.1152542277119295  1.0000
  O   O16       1.0  0.18182692368743864  0.8960615609144752  0.3847459507604328  1.0000
