data_image0
_chemical_formula_structural       Ag4H20C44N4O8F8
_chemical_formula_sum              "Ag4 H20 C44 N4 O8 F8"
_cell_length_a       9.778877647748132
_cell_length_b       10.20135140859782
_cell_length_c       11.10561139446924
_cell_angle_alpha    107.71163390321622
_cell_angle_beta     98.99975407609487
_cell_angle_gamma    91.81022578029534

_space_group_name_H-M_alt    "P 1"
_space_group_IT_number       1

loop_
  _space_group_symop_operation_xyz
  'x, y, z'

loop_
  _atom_site_type_symbol
  _atom_site_label
  _atom_site_symmetry_multiplicity
  _atom_site_fract_x
  _atom_site_fract_y
  _atom_site_fract_z
  _atom_site_occupancy
  Ag  Ag1       1.0  0.5917586222143925  0.4089823142209069  0.6076614947391762  1.0000
  Ag  Ag2       1.0  0.40823947249998577  0.5910193709916243  0.39234147823184184  1.0000
  Ag  Ag3       1.0  0.4528089314178699  0.1645831118994536  0.6182328776965136  1.0000
  Ag  Ag4       1.0  0.5471909652664022  0.8354154772594455  0.38176677133300546  1.0000
  H   H1        1.0  0.0074375497995405075  0.7703190876609298  0.01530097186532951  1.0000
  H   H2        1.0  0.9925632999653331  0.22967847046756873  0.984699417836595  1.0000
  H   H3        1.0  0.25590767014910654  0.7634678504292082  0.10804728762227016  1.0000
  H   H4        1.0  0.7440943726001449  0.23653177348150928  0.8919502383537649  1.0000
  H   H5        1.0  0.38295331343687167  0.5608082483795515  0.015761828248599872  1.0000
  H   H6        1.0  0.6170508038876362  0.4391913786148153  0.9842368785033957  1.0000
  H   H7        1.0  0.2649420676095531  0.36496184694767203  0.8281839993559645  1.0000
  H   H8        1.0  0.7350579974887523  0.6350388073556558  0.17181534910469773  1.0000
  H   H9        1.0  0.015530994314374897  0.3708006403113159  0.737772532500401  1.0000
  H   H10       1.0  0.9844688236131417  0.6291969166628065  0.26222861833283434  1.0000
  H   H11       1.0  0.5973344268229466  0.24854453846635488  0.14737184970650927  1.0000
  H   H12       1.0  0.40266477485203467  0.7514581798270256  0.8526279593166068  1.0000
  H   H13       1.0  0.5363397262305512  0.21382106733685188  0.345413659199565  1.0000
  H   H14       1.0  0.4636615500196868  0.7861816540401775  0.6545873305995189  1.0000
  H   H15       1.0  0.30675545814026606  0.09854967831448389  0.3388795108956231  1.0000
  H   H16       1.0  0.6932465991430377  0.9014499466294197  0.6611216191318621  1.0000
  H   H17       1.0  0.13745071817758256  0.0154123565530497  0.13440735329954384  1.0000
  H   H18       1.0  0.8625523782101042  0.9845872700618231  0.8655948176223449  1.0000
  H   H19       1.0  0.19939638045709526  0.04529440380147069  0.9337624937152358  1.0000
  H   H20       1.0  0.800604817036401  0.9547072853907893  0.06623999788756427  1.0000
  C   C1        1.0  0.26849653455114003  0.38849426042853696  0.5494592844393936  1.0000
  C   C2        1.0  0.7315033621331252  0.611504328730355  0.4505403645901256  1.0000
  C   C3        1.0  0.10692156632151041  0.5810216186166103  0.5906174795412442  1.0000
  C   C4        1.0  0.8930784200200462  0.41897800350194814  0.40938337072313413  1.0000
  C   C5        1.0  0.13238329738027227  0.4477386088934807  0.5208288622777034  1.0000
  C   C6        1.0  0.8676167677180331  0.5522620454098471  0.4791704861829659  1.0000
  C   C7        1.0  0.0225029467119313  0.3687684295856997  0.42877300127585743  1.0000
  C   C8        1.0  0.9774988415995123  0.6312280964792194  0.5712245250470291  1.0000
  C   C9        1.0  0.7516966899080656  0.14672226299300914  0.550242552105516  1.0000
  C   C10       1.0  0.24830371565182222  0.8532825218574799  0.44975709623030025  1.0000
  C   C11       1.0  0.90008425137416  0.005119226908369998  0.39965046789249936  1.0000
  C   C12       1.0  0.0999128975266359  0.9948834898511477  0.6003535664318351  1.0000
  C   C13       1.0  0.8789432157499422  0.0701821682056121  0.5242138268887971  1.0000
  C   C14       1.0  0.12105296553619378  0.929821578551106  0.47578586271167483  1.0000
  C   C15       1.0  0.981573175465513  0.06319722889099211  0.6237222176733043  1.0000
  C   C16       1.0  0.018427674299367414  0.9368003292375066  0.3762781720286201  1.0000
  C   C17       1.0  0.8558969210019638  0.5716253226119151  0.8196949554226551  1.0000
  C   C18       1.0  0.14409979414644877  0.428372230382486  0.18030667677879825  1.0000
  C   C19       1.0  0.9981486527519934  0.5710159315672669  0.871319501534025  1.0000
  C   C20       1.0  0.0018490009429755082  0.42898058936354744  0.12867926728839055  1.0000
  C   C21       1.0  0.0652413521285666  0.6828028754913902  0.975097371757258  1.0000
  C   C22       1.0  0.9347584657989501  0.3171946814827322  0.024903779075984376  1.0000
  C   C23       1.0  0.2036702153955048  0.6784212447670938  0.026317223225056842  1.0000
  C   C24       1.0  0.7963307167596411  0.3215773458044708  0.9736825656860123  1.0000
  C   C25       1.0  0.2750594960490815  0.5639578588828372  0.9738649473533133  1.0000
  C   C26       1.0  0.7249423819196467  0.4360397001417482  0.026133780204439565  1.0000
  C   C27       1.0  0.2087022437309471  0.4533792962994099  0.8698097387683037  1.0000
  C   C28       1.0  0.7912997238950651  0.5466192956848347  0.13019019002431523  1.0000
  C   C29       1.0  0.06993668564503248  0.4558105412694288  0.8182752618032725  1.0000
  C   C30       1.0  0.9300620144213453  0.5441859818489547  0.18172634993927528  1.0000
  C   C31       1.0  0.4359259781014799  0.16841525576641914  0.9162324885538597  1.0000
  C   C32       1.0  0.5640729618686606  0.8315843641645697  0.08376551879038635  1.0000
  C   C33       1.0  0.4016401209087803  0.1488981885193041  0.029397755166222336  1.0000
  C   C34       1.0  0.598360119870584  0.8511045314450452  0.9706030947513116  1.0000
  C   C35       1.0  0.497564641694069  0.1965747486265457  0.14501289752552543  1.0000
  C   C36       1.0  0.5024345527138933  0.8034279691502418  0.8549851094718763  1.0000
  C   C37       1.0  0.4626883718712307  0.1770793271667586  0.2554354297773997  1.0000
  C   C38       1.0  0.5373127323314576  0.8229213288075385  0.744564959577673  1.0000
  C   C39       1.0  0.3335363049313855  0.11194287316524756  0.251461548874893  1.0000
  C   C40       1.0  0.6664668774800759  0.888057786150995  0.7485409222690083  1.0000
  C   C41       1.0  0.23837688805183174  0.0651017402326701  0.13638016823066582  1.0000
  C   C42       1.0  0.7616262047023453  0.9348978861239062  0.8636211016783621  1.0000
  C   C43       1.0  0.2715516371088284  0.08235604494569772  0.02455727495048171  1.0000
  C   C44       1.0  0.7284484388900124  0.9176446101325197  0.9754447765487627  1.0000
  N   N1        1.0  0.7388164701478457  0.5679046803100292  0.7751953535634971  1.0000
  N   N2        1.0  0.26118040978109036  0.43209493757050405  0.22480507705623864  1.0000
  N   N3        1.0  0.4637225214996191  0.1853239096230368  0.8232687594925993  1.0000
  N   N4        1.0  0.5362763324467464  0.8146746776065896  0.17672894762964836  1.0000
  O   O1        1.0  0.3779652394679758  0.4628624449499483  0.5549115395438592  1.0000
  O   O2        1.0  0.6220356890536535  0.537136145363327  0.44508734835434893  1.0000
  O   O3        1.0  0.2602519438235689  0.2724453249879986  0.5671979808396161  1.0000
  O   O4        1.0  0.7397470070471072  0.72755429571788  0.43280272954321236  1.0000
  O   O5        1.0  0.7730576137604572  0.27587659503277  0.6022186296456626  1.0000
  O   O6        1.0  0.2269436806573495  0.724126127635742  0.39778686521772516  1.0000
  O   O7        1.0  0.6355687161705389  0.07509463107590619  0.5184938939795247  1.0000
  O   O8        1.0  0.3644328642061652  0.9249122182653126  0.4814983855660916  1.0000
  F   F1        1.0  0.2074552807020851  0.6637573840826151  0.6828674289582467  1.0000
  F   F2        1.0  0.7925456441860277  0.33624120597236373  0.3171305579270936  1.0000
  F   F3        1.0  0.041077214304479484  0.24094890655688056  0.35291125273971613  1.0000
  F   F4        1.0  0.9589228398932904  0.7590517469715505  0.6470853926823567  1.0000
  F   F5        1.0  0.8054361554045428  0.010931039063571301  0.2984888169475256  1.0000
  F   F6        1.0  0.1945620968233399  0.9890727105184991  0.7015111524160533  1.0000
  F   F7        1.0  0.9655510991177394  0.12214511989648705  0.7478225026996342  1.0000
  F   F8        1.0  0.034446046149547285  0.8778575966047341  0.25218063061183227  1.0000
