data_image0
_chemical_formula_structural       Ag2H22C22Br2N4
_chemical_formula_sum              "Ag2 H22 C22 Br2 N4"
_cell_length_a       5.847544687061849
_cell_length_b       8.199009668441255
_cell_length_c       12.469295191939388
_cell_angle_alpha    103.55621226250736
_cell_angle_beta     99.22152593872815
_cell_angle_gamma    93.8836532142759

_space_group_name_H-M_alt    "P 1"
_space_group_IT_number       1

loop_
  _space_group_symop_operation_xyz
  'x, y, z'

loop_
  _atom_site_type_symbol
  _atom_site_label
  _atom_site_symmetry_multiplicity
  _atom_site_fract_x
  _atom_site_fract_y
  _atom_site_fract_z
  _atom_site_occupancy
  Ag  Ag1       1.0  0.3037957291069162  0.0940771063884256  0.5253345360622461  1.0000
  Ag  Ag2       1.0  0.6962304443038789  0.9058975864507274  0.4746640032276872  1.0000
  H   H1        1.0  0.9950480055482204  0.42863161223259977  0.843616647554917  1.0000
  H   H2        1.0  0.004951970011625025  0.5713842341533351  0.15638777351166774  1.0000
  H   H3        1.0  0.9570352594501302  0.6065093386820308  0.6771989848671751  1.0000
  H   H4        1.0  0.04294349643925702  0.3935023943998885  0.3228043562734726  1.0000
  H   H5        1.0  0.5618226608114015  0.3371353239469598  0.4241015041712686  1.0000
  H   H6        1.0  0.4381369164776388  0.6628712780621697  0.5759071564959655  1.0000
  H   H7        1.0  0.7476069241539918  0.5309745552597391  0.476477098215895  1.0000
  H   H8        1.0  0.2523556339918401  0.46903068368749956  0.5235267346387289  1.0000
  H   H9        1.0  0.5505412605920554  0.033958195508255094  0.7248575710471242  1.0000
  H   H10       1.0  0.4494774659458542  0.9660427330222063  0.2751418519762154  1.0000
  H   H11       1.0  0.8493349486328513  0.0674359593547535  0.7880288747255265  1.0000
  H   H12       1.0  0.1506892480903232  0.9325663731541382  0.21197268767828356  1.0000
  H   H13       1.0  0.31146841650382134  0.28936254101611775  0.8305514895811329  1.0000
  H   H14       1.0  0.6885565202791285  0.7106345872371519  0.16944375728608213  1.0000
  H   H15       1.0  0.1940995440521434  0.3776446003616627  0.01813759435187022  1.0000
  H   H16       1.0  0.8058980911038276  0.6223546577352791  0.9818586977895477  1.0000
  H   H17       1.0  0.4324200279441683  0.3204505402963632  0.1855858490554709  1.0000
  H   H18       1.0  0.5675790083422143  0.6795450161546556  0.8144116051453381  1.0000
  H   H19       1.0  0.7932334647088697  0.1779328815293013  0.16743485500064287  1.0000
  H   H20       1.0  0.20677484769792903  0.8220678693644385  0.8325639070217362  1.0000
  H   H21       1.0  0.91445681927906  0.09822329482979338  0.9810511505393932  1.0000
  H   H22       1.0  0.08555931077277992  0.9017712425223722  0.018945596449675906  1.0000
  C   C1        1.0  0.5976808355252103  0.25720638087111775  0.6191597084883185  1.0000
  C   C2        1.0  0.40232640226371075  0.7427958430261865  0.38084642096320914  1.0000
  C   C3        1.0  0.8826062255599395  0.40152320871933966  0.7623173221762158  1.0000
  C   C4        1.0  0.11738964522583471  0.5984863239962478  0.2376875519555526  1.0000
  C   C5        1.0  0.8648909433385371  0.4890700335926609  0.6813331160200774  1.0000
  C   C6        1.0  0.1350933753054449  0.5109443382921909  0.31867174393133973  1.0000
  C   C7        1.0  0.6061640337108614  0.4511310892990181  0.49343332283083197  1.0000
  C   C8        1.0  0.3937924208526625  0.5488664912116902  0.506569044042152  1.0000
  C   C9        1.0  0.6875403401222755  0.12787257175553887  0.7812049236577109  1.0000
  C   C10       1.0  0.3124731436308821  0.8721270599105678  0.2187955992514219  1.0000
  C   C11       1.0  0.6203048215781451  0.18824556452754138  0.8943216165051169  1.0000
  C   C12       1.0  0.37969393700025483  0.8117462874499423  0.10567769940480792  1.0000
  C   C13       1.0  0.416858046137044  0.26664552892854937  0.9050448173593679  1.0000
  C   C14       1.0  0.5831585462665813  0.7333400996944659  0.09494747580224329  1.0000
  C   C15       1.0  0.351200148106436  0.3149548843335949  0.009596553035585504  1.0000
  C   C16       1.0  0.6487997550253226  0.6850283802569661  0.9904080268456923  1.0000
  C   C17       1.0  0.4861118158535405  0.2834990365397586  0.10426819800337482  1.0000
  C   C18       1.0  0.5138893263986688  0.7165014888154244  0.895726884085427  1.0000
  C   C19       1.0  0.6888425262824073  0.2050330715849427  0.09416839513492903  1.0000
  C   C20       1.0  0.3111646984211589  0.7949762934742423  0.9058259127326664  1.0000
  C   C21       1.0  0.7557284101896472  0.15884439385686022  0.9895522029338721  1.0000
  C   C22       1.0  0.2442826833470235  0.8411501350124906  0.010446643004428295  1.0000
  Br  Br1       1.0  0.05945355700630732  0.8886335913810155  0.6246590687487696  1.0000
  Br  Br2       1.0  0.9405488082751674  0.11137227494997151  0.3753456783097207  1.0000
  N   N1        1.0  0.7182669513571653  0.2612388318817978  0.7228999922974921  1.0000
  N   N2        1.0  0.2817364382347379  0.7387619640861657  0.2771024883072428  1.0000
  N   N3        1.0  0.6903135550613939  0.3988064760816029  0.5950937628111177  1.0000
  N   N4        1.0  0.3096753372511145  0.6012017301635094  0.40491210103962055  1.0000
