data_image0
_chemical_formula_structural       Co2H56C58N8O8
_chemical_formula_sum              "Co2 H56 C58 N8 O8"
_cell_length_a       10.24743700157269
_cell_length_b       11.629634107341834
_cell_length_c       12.68613718944239
_cell_angle_alpha    65.26906515595141
_cell_angle_beta     83.74498550236011
_cell_angle_gamma    70.01472375227728

_space_group_name_H-M_alt    "P 1"
_space_group_IT_number       1

loop_
  _space_group_symop_operation_xyz
  'x, y, z'

loop_
  _atom_site_type_symbol
  _atom_site_label
  _atom_site_symmetry_multiplicity
  _atom_site_fract_x
  _atom_site_fract_y
  _atom_site_fract_z
  _atom_site_occupancy
  Co  Co1       1.0  0.6424507149817416  0.6333843845837563  0.6119030151698933  1.0000
  Co  Co2       1.0  0.3575477916542554  0.3666158412220285  0.38809668489332677  1.0000
  H   H1        1.0  0.9184073723099151  0.7809813496821149  0.8742397404835099  1.0000
  H   H2        1.0  0.0815895083919642  0.21901785371267127  0.1257628486328243  1.0000
  H   H3        1.0  0.9060871450841574  0.9686293359324054  0.9750205954135248  1.0000
  H   H4        1.0  0.0939159767469633  0.0313689081212445  0.024978680807080895  1.0000
  H   H5        1.0  0.9245293901794299  0.11434289387143079  0.8573989053009751  1.0000
  H   H6        1.0  0.07547142595119286  0.8856563428570752  0.1426001878607934  1.0000
  H   H7        1.0  0.04068368598882436  0.9527490813358883  0.8772319172966543  1.0000
  H   H8        1.0  0.9593164465812833  0.0472521668808881  0.12276489371345176  1.0000
  H   H9        1.0  0.7330310502015326  0.21176259729314487  0.7250578801145476  1.0000
  H   H10       1.0  0.2669704042118895  0.7882376499153523  0.2749399879430285  1.0000
  H   H11       1.0  0.5896889763526119  0.974375892326556  0.6118868952611932  1.0000
  H   H12       1.0  0.41031050655231394  0.0256243346175111  0.38811351073395156  1.0000
  H   H13       1.0  0.4390603146595212  0.8447874691737168  0.7080853602319406  1.0000
  H   H14       1.0  0.5609428071715997  0.15521077487993304  0.29191391598866534  1.0000
  H   H15       1.0  0.2820860643566905  0.9190018240994177  0.8490006791544429  1.0000
  H   H16       1.0  0.7179206207698883  0.0809974302515002  0.15100027971801205  1.0000
  H   H17       1.0  0.18942448813003673  0.760148737285256  0.01195854191396967  1.0000
  H   H18       1.0  0.8105795495157865  0.2398525154846496  0.9880410928238202  1.0000
  H   H19       1.0  0.24333504369055708  0.5239883402967608  0.036887348107505595  1.0000
  H   H20       1.0  0.7566627717966697  0.476013889802154  0.9631116497246093  1.0000
  H   H21       1.0  0.5539520338303706  0.37357296545282986  0.7478554525815324  1.0000
  H   H22       1.0  0.4460445164736414  0.6264272544788128  0.25214362557812803  1.0000
  H   H23       1.0  0.2821847679563236  0.32777473553448994  0.9462908324864256  1.0000
  H   H24       1.0  0.7178140804599311  0.6722244845271561  0.05371000865262234  1.0000
  H   H25       1.0  0.4179343804751454  0.29175699604457606  0.04110435611695349  1.0000
  H   H26       1.0  0.5820647530612747  0.7082442294484821  0.9588964887229138  1.0000
  H   H27       1.0  0.4573107593608512  0.2089174007088346  0.835736688059235  1.0000
  H   H28       1.0  0.5426903909617735  0.7910808230803782  0.16426512609893257  1.0000
  H   H29       1.0  0.5909796839659336  0.1770452731138477  0.9308795126023593  1.0000
  H   H30       1.0  0.4090191002019667  0.8229569509282013  0.0691217710822373  1.0000
  H   H31       1.0  0.34362848622770775  0.07214716566352307  0.0015700426214096033  1.0000
  H   H32       1.0  0.6563732947894608  0.9278520614105403  0.9984321263531224  1.0000
  H   H33       1.0  0.4693306272954772  0.04652838740086909  0.09988966939901185  1.0000
  H   H34       1.0  0.5306708043531788  0.9534718382221853  0.9001129384202499  1.0000
  H   H35       1.0  0.9180619005082278  0.44511316610347507  0.7871232846377294  1.0000
  H   H36       1.0  0.08193591118487824  0.5548890603978692  0.21287650315466056  1.0000
  H   H37       1.0  0.16137638728172735  0.2864104973113371  0.8431015698953457  1.0000
  H   H38       1.0  0.838619171576845  0.7135897070917281  0.15689996217351163  1.0000
  H   H39       1.0  0.2893059027024308  0.1659670385882421  0.7218322356253067  1.0000
  H   H40       1.0  0.710691266913742  0.8340341738355262  0.2781695672315648  1.0000
  H   H41       1.0  0.1766434130824238  0.18905536566403214  0.5474608918375522  1.0000
  H   H42       1.0  0.8233569894313321  0.8109478735938683  0.4525390827144944  1.0000
  H   H43       1.0  0.6783648428347818  0.5017709412466402  0.4370575184342015  1.0000
  H   H44       1.0  0.32163400937560044  0.4982282824125761  0.5629425327445715  1.0000
  H   H45       1.0  0.01802790259779395  0.32203105651442593  0.3565354001153906  1.0000
  H   H46       1.0  0.981971580307132  0.6779691704296409  0.6434650058797471  1.0000
  H   H47       1.0  0.840135177590348  0.40314084159480507  0.3145080106441751  1.0000
  H   H48       1.0  0.15986206386243396  0.5968573740437081  0.6854917697465835  1.0000
  H   H49       1.0  0.8997089968573349  0.18019059158224587  0.32717267846176407  1.0000
  H   H50       1.0  0.10029214967116225  0.8198076286093965  0.6728299256566854  1.0000
  H   H51       1.0  0.7905825897834121  0.18962188122772258  0.4426824578824408  1.0000
  H   H52       1.0  0.20941826403667116  0.8103743263373601  0.5573217224557466  1.0000
  H   H53       1.0  0.10945354133802003  0.0704606258113145  0.4670732874838917  1.0000
  H   H54       1.0  0.890547331452702  0.9295355997416407  0.5329269430528993  1.0000
  H   H55       1.0  0.9953253439654617  0.06651768321091817  0.5826815229995288  1.0000
  H   H56       1.0  0.004677830731623183  0.9334775460696105  0.4173196805563678  1.0000
  C   C1        1.0  0.7663826578050392  0.7304844604534892  0.7472130203813093  1.0000
  C   C2        1.0  0.23361653997972814  0.26951376105916586  0.25278738191301636  1.0000
  C   C3        1.0  0.7551357609662193  0.8641600328368925  0.7442145953949503  1.0000
  C   C4        1.0  0.24486176560672132  0.1358401882330398  0.25578518869662753  1.0000
  C   C5        1.0  0.8434360960341751  0.8731650426275337  0.815031296893437  1.0000
  C   C6        1.0  0.15656142674463785  0.1268351748448211  0.18496927715843006  1.0000
  C   C7        1.0  0.8375565591110077  0.9982686585279126  0.8084677112423575  1.0000
  C   C8        1.0  0.16244258201366082  0.0017325741602932001  0.19153155367694544  1.0000
  C   C9        1.0  0.9320848775639874  0.009588428569856  0.8831374770202982  1.0000
  C   C10       1.0  0.06791691862969171  0.990410812894503  0.11686153211311268  1.0000
  C   C11       1.0  0.7388762269913728  0.1131745329106693  0.7326415954680454  1.0000
  C   C12       1.0  0.26112522362792123  0.8868257107002576  0.2673570625498129  1.0000
  C   C13       1.0  0.6466146088049386  0.1053431818871431  0.6643063208594027  1.0000
  C   C14       1.0  0.3533878294656676  0.8946570736547839  0.3356906732095339  1.0000
  C   C15       1.0  0.5390145382255086  0.23117798577869306  0.5875020076084283  1.0000
  C   C16       1.0  0.46098754688245697  0.7688232647146478  0.41249621526552  1.0000
  C   C17       1.0  0.6570836043018604  0.9806690873303623  0.6684342535200897  1.0000
  C   C18       1.0  0.3429165206799922  0.019332153691266295  0.33156413741057367  1.0000
  C   C19       1.0  0.4294560876165223  0.6427398448963757  0.7946396938160942  1.0000
  C   C20       1.0  0.5705443829397155  0.3572603939786916  0.20535904823012868  1.0000
  C   C21       1.0  0.39736502304914023  0.7758643845870382  0.7793613348002068  1.0000
  C   C22       1.0  0.6026374038390898  0.2241358601621642  0.220638029149569  1.0000
  C   C23       1.0  0.3098188808299796  0.8156572763924216  0.8587103370058454  1.0000
  C   C24       1.0  0.6901855023902359  0.18434297423092258  0.14128964884748998  1.0000
  C   C25       1.0  0.2562165625979347  0.7256483682076649  0.9507749947445273  1.0000
  C   C26       1.0  0.7437845348587262  0.27435287035467576  0.049224892078342526  1.0000
  C   C27       1.0  0.2851950462644766  0.5934126343348112  0.9658867414135839  1.0000
  C   C28       1.0  0.7148043799803575  0.4065906037848065  0.034112527206538325  1.0000
  C   C29       1.0  0.37196946575781464  0.55456199375773  0.8854970224436156  1.0000
  C   C30       1.0  0.6280296753668538  0.44543923893047577  0.11450224247568737  1.0000
  C   C31       1.0  0.505391317999191  0.44948623258027004  0.7816304018984962  1.0000
  C   C32       1.0  0.49460557408507105  0.5505129816072412  0.21836981733699895  1.0000
  C   C33       1.0  0.3943281080460751  0.3099071138933311  0.9519552100146311  1.0000
  C   C34       1.0  0.6056703947957945  0.6900931083148831  0.0480452800088714  1.0000
  C   C35       1.0  0.4799141344301321  0.19013137921010068  0.9255068047262892  1.0000
  C   C36       1.0  0.5200866665239804  0.8098678431281027  0.07449544827660048  1.0000
  C   C37       1.0  0.45350353489845224  0.06153268910046711  0.009871547648373289  1.0000
  C   C38       1.0  0.54649887681326  0.9384675412584473  0.9901309761425306  1.0000
  C   C39       1.0  0.9096256869433506  0.39972293374625417  0.6388092496576901  1.0000
  C   C40       1.0  0.09037540671918265  0.600278301218516  0.3611914271254618  1.0000
  C   C41       1.0  0.9726254881483669  0.3864999805026983  0.7375699706134637  1.0000
  C   C42       1.0  0.0273723311329874  0.6135022531937864  0.2624282372583691  1.0000
  C   C43       1.0  0.10888808467036172  0.29935257435130314  0.7666477568729205  1.0000
  C   C44       1.0  0.8911087431655533  0.7006496438166108  0.23335290490812358  1.0000
  C   C45       1.0  0.1811309759444768  0.2292751275780063  0.6989084724150059  1.0000
  C   C46       1.0  0.818867173734752  0.7707260895816218  0.30109324641350094  1.0000
  C   C47       1.0  0.1190313566398444  0.24122289920367726  0.6007033019158072  1.0000
  C   C48       1.0  0.880968756959625  0.7587783310252335  0.3992974588957025  1.0000
  C   C49       1.0  0.9814322409787835  0.3259800566219936  0.5728050782673291  1.0000
  C   C50       1.0  0.018566554571506824  0.6740221782127733  0.4271938355364213  1.0000
  C   C51       1.0  0.7700744130568252  0.4541537727187831  0.4948677266197093  1.0000
  C   C52       1.0  0.22992276794172994  0.5458474504977033  0.5051317063563161  1.0000
  C   C53       1.0  0.9130336255041487  0.3225300104108939  0.38523247769289515  1.0000
  C   C54       1.0  0.08696556848648389  0.6774682075041908  0.6147687145617053  1.0000
  C   C55       1.0  0.8953925464800534  0.1881450640814535  0.4111778070219356  1.0000
  C   C56       1.0  0.10460894941695657  0.8118521575611976  0.5888243582517845  1.0000
  C   C57       1.0  0.0052943860272165015  0.0656914226035141  0.4956763966343372  1.0000
  C   C58       1.0  0.9947057956147349  0.9343068072425641  0.5043231316713486  1.0000
  N   N1        1.0  0.5135933938365654  0.5729246714272378  0.7322100491834926  1.0000
  N   N2        1.0  0.48640609665661577  0.4270755627119698  0.26778877689108777  1.0000
  N   N3        1.0  0.4219363349935038  0.43319650892296124  0.8739685593754414  1.0000
  N   N4        1.0  0.5780611915794367  0.5668037121469709  0.12603122471613656  1.0000
  N   N5        1.0  0.7780072183189192  0.4802435878115503  0.586347274973839  1.0000
  N   N6        1.0  0.22198996267963628  0.5197576354049432  0.4136521580021933  1.0000
  N   N7        1.0  0.8885366222696123  0.3628407195984665  0.4826746849749525  1.0000
  N   N8        1.0  0.11146188057225721  0.637159502609748  0.5173258050485428  1.0000
  O   O1        1.0  0.718831193771578  0.7400019331054254  0.6518242654865741  1.0000
  O   O2        1.0  0.2811659834328496  0.2599992865134979  0.348175957449733  1.0000
  O   O3        1.0  0.8195902989822629  0.6244912895793675  0.8336495645447851  1.0000
  O   O4        1.0  0.18040820385960635  0.37550893262884  0.16635092547871713  1.0000
  O   O5        1.0  0.46737223139047773  0.215960185002011  0.5188288886669595  1.0000
  O   O6        1.0  0.532626905940063  0.7840410440886174  0.4811711662126328  1.0000
  O   O7        1.0  0.5229871721420736  0.3403111847214575  0.5928986828801752  1.0000
  O   O8        1.0  0.47701883701225267  0.6596900883128853  0.40709841392004614  1.0000
