data_image0
_chemical_formula_structural       Zn4H72C84N16O16
_chemical_formula_sum              "Zn4 H72 C84 N16 O16"
_cell_length_a       21.582238439624728
_cell_length_b       21.75926700619014
_cell_length_c       21.678393965843387
_cell_angle_alpha    60.11694512200841
_cell_angle_beta     63.33193975619275
_cell_angle_gamma    90.04846412580757

_space_group_name_H-M_alt    "P 1"
_space_group_IT_number       1

loop_
  _space_group_symop_operation_xyz
  'x, y, z'

loop_
  _atom_site_type_symbol
  _atom_site_label
  _atom_site_symmetry_multiplicity
  _atom_site_fract_x
  _atom_site_fract_y
  _atom_site_fract_z
  _atom_site_occupancy
  Zn  Zn1       1.0  0.5474042998139269  0.046183420486869416  0.9061606156943964  1.0000
  Zn  Zn2       1.0  0.4569847155851719  0.9538994760070311  0.09332286349768995  1.0000
  Zn  Zn3       1.0  0.9654975262105268  0.4557894367339088  0.08702069170077932  1.0000
  Zn  Zn4       1.0  0.0383820141390032  0.543160882840837  0.9122214909269316  1.0000
  H   H1        1.0  0.8212247951762209  0.38233429947505476  0.21931658535655166  1.0000
  H   H2        1.0  0.7449530329457943  0.30210775838852294  0.37608659322339116  1.0000
  H   H3        1.0  0.5944614045885501  0.2024847775076637  0.6034625889521265  1.0000
  H   H4        1.0  0.787433781695789  0.1945158439200867  0.6163694668879812  1.0000
  H   H5        1.0  0.18227982811441026  0.6175878038504409  0.7813076229336886  1.0000
  H   H6        1.0  0.25881930593786256  0.698379998364686  0.624283078842751  1.0000
  H   H7        1.0  0.4070468152409887  0.7799569845735732  0.3956055978551306  1.0000
  H   H8        1.0  0.21809243265224157  0.827321038495981  0.3837110713701505  1.0000
  H   H9        1.0  0.7321485011755088  0.3012688900046356  0.9026026284942857  1.0000
  H   H10       1.0  0.701053325600256  0.2106059019551338  0.1534950736169236  1.0000
  H   H11       1.0  0.9222341342027462  0.40405525857195096  0.8926169163791614  1.0000
  H   H12       1.0  0.8419843348440139  0.32630422078679533  0.8877923676875099  1.0000
  H   H13       1.0  0.6093113915920371  0.03811165491815419  0.13681330488248017  1.0000
  H   H14       1.0  0.6908023989111812  0.11665809466221325  0.1391011433784968  1.0000
  H   H15       1.0  0.3533034267110224  0.8300502839570072  0.8725121679280575  1.0000
  H   H16       1.0  0.13091232306370426  0.7089595687946115  0.1077790896328635  1.0000
  H   H17       1.0  0.22725192640937314  0.654110986956219  0.8919268466084773  1.0000
  H   H18       1.0  0.31222061580611893  0.7264485827947523  0.8965292372904938  1.0000
  H   H19       1.0  0.2907190520853149  0.805811018549157  0.13430999626037735  1.0000
  H   H20       1.0  0.21025773228201666  0.7220081195369586  0.1370102971346726  1.0000
  H   H21       1.0  0.3866590739575884  0.3328328458849584  0.8688362130630836  1.0000
  H   H22       1.0  0.16943699625360154  0.21561320616195448  0.10404703616876532  1.0000
  H   H23       1.0  0.2174324019792948  0.4499007897564482  0.8483564037996059  1.0000
  H   H24       1.0  0.30162892338967856  0.37258703868864274  0.8385534230600482  1.0000
  H   H25       1.0  0.29151654024018825  0.06111576631330712  0.0727688310138532  1.0000
  H   H26       1.0  0.205731665828587  0.13697379186796613  0.06960400358997278  1.0000
  H   H27       1.0  0.732060908807192  0.7876174827067924  0.8862484150612248  1.0000
  H   H28       1.0  0.6959146939315771  0.6344424824732895  0.1342083631266887  1.0000
  H   H29       1.0  0.9279957604626432  0.7031989885460064  0.8814913302738956  1.0000
  H   H30       1.0  0.8501333750682181  0.7884026726382202  0.8727256943726118  1.0000
  H   H31       1.0  0.6184365435411436  0.8386510448776717  0.10475379094749118  1.0000
  H   H32       1.0  0.697105756021493  0.7548532919113597  0.11373055509060487  1.0000
  H   H33       1.0  0.060071209988684905  0.36500029704183856  0.2067683706587643  1.0000
  H   H34       1.0  0.053291077625864554  0.45429430580006147  0.1463160165720865  1.0000
  H   H35       1.0  0.051149555269532195  0.42617877072015625  0.2398864817345227  1.0000
  H   H36       1.0  0.9783445570617034  0.35932309541956897  0.38604949984271997  1.0000
  H   H37       1.0  0.9194506541789736  0.2673056247205635  0.4575006759493974  1.0000
  H   H38       1.0  0.0009168483973524964  0.2917852909235847  0.3641521001251604  1.0000
  H   H39       1.0  0.47279352890943466  0.05902887699223668  0.8140816447580762  1.0000
  H   H40       1.0  0.4774357236675614  0.14347460494705902  0.8057877016026112  1.0000
  H   H41       1.0  0.4815277889745602  0.1392606513723891  0.7237046956750105  1.0000
  H   H42       1.0  0.7007093361979387  0.1245649304098677  0.8290159398352444  1.0000
  H   H43       1.0  0.7069777101158509  0.048125860575879593  0.820833427197897  1.0000
  H   H44       1.0  0.7794627058482747  0.1325630451186086  0.7436458933375147  1.0000
  H   H45       1.0  0.9519320772708753  0.5751119010925905  0.7629514010889127  1.0000
  H   H46       1.0  0.9484250207653064  0.5544443843856895  0.8551412053278399  1.0000
  H   H47       1.0  0.9450394995459916  0.6428087176071459  0.7863872944649444  1.0000
  H   H48       1.0  0.005297085250361909  0.7146201059503736  0.6328182368750673  1.0000
  H   H49       1.0  0.0851935426126929  0.7324646704354691  0.5418118802238325  1.0000
  H   H50       1.0  0.022308890405767605  0.6424836386176195  0.6176770889201605  1.0000
  H   H51       1.0  0.5194407367163905  0.8302014724059746  0.27359902913796197  1.0000
  H   H52       1.0  0.5186282337785855  0.8482322536762934  0.18369353645891826  1.0000
  H   H53       1.0  0.5326141004865904  0.9221593043225556  0.19250739122605143  1.0000
  H   H54       1.0  0.22805021854849622  0.9050289740915145  0.2555586720809162  1.0000
  H   H55       1.0  0.3116950224341722  0.9776071789559355  0.1769032517041679  1.0000
  H   H56       1.0  0.2966051430812159  0.9012727954776736  0.1720611318101178  1.0000
  H   H57       1.0  0.6185812754305573  0.1968597647939134  0.8846621485508379  1.0000
  H   H58       1.0  0.6602813788380572  0.2835310181976638  0.8513204881353783  1.0000
  H   H59       1.0  0.819887292753819  0.30279552283365524  0.17600330162515826  1.0000
  H   H60       1.0  0.7416261479455528  0.23270993322998376  0.22694378855293715  1.0000
  H   H61       1.0  0.4838753030688424  0.9474306530880413  0.8575297095789765  1.0000
  H   H62       1.0  0.46812332441459137  0.9086940339211436  0.8107715660559764  1.0000
  H   H63       1.0  0.9995206118682065  0.5930225779146099  0.12117817713917849  1.0000
  H   H64       1.0  0.013238122738293591  0.6470622375686119  0.154907750817287  1.0000
  H   H65       1.0  0.5163745370487192  0.23027778029351245  0.8443507509921062  1.0000
  H   H66       1.0  0.5012375824047267  0.31633294251595606  0.8042189248120336  1.0000
  H   H67       1.0  0.03793240781614321  0.3162542283260947  0.13049754914725742  1.0000
  H   H68       1.0  0.05486024385179181  0.23103039361441086  0.17426437408587248  1.0000
  H   H69       1.0  0.632544466581031  0.9221696606467588  0.8521175102561712  1.0000
  H   H70       1.0  0.6846282936529421  0.8747600494391393  0.8136655555955981  1.0000
  H   H71       1.0  0.7979033581501865  0.5010219424309524  0.1582702940309489  1.0000
  H   H72       1.0  0.7156279982438534  0.5182096265485399  0.2047656135607951  1.0000
  C   C1        1.0  0.4112828792657482  0.9138456383643146  0.007428488314289385  1.0000
  C   C2        1.0  0.43393980139445193  0.10264915500192728  0.9769489793758978  1.0000
  C   C3        1.0  0.5805270650789539  0.07226130821580772  0.01841379336686807  1.0000
  C   C4        1.0  0.5858446977460047  0.9133094139038886  0.9884775866980818  1.0000
  C   C5        1.0  0.0990190325129419  0.4271097272967238  0.9800878507176306  1.0000
  C   C6        1.0  0.08580776923768245  0.5925483425105612  0.9928831286010078  1.0000
  C   C7        1.0  0.90635579027434  0.5738928701071161  0.00985878333866439  1.0000
  C   C8        1.0  0.9108702698827997  0.39817855533998164  0.021911402836280888  1.0000
  C   C9        1.0  0.845242730182811  0.36686839637345503  0.2578574683998268  1.0000
  C   C10       1.0  0.8036054757239627  0.3227352597369091  0.3433920530044218  1.0000
  C   C11       1.0  0.8389244072040611  0.30410388238211544  0.3884732563508989  1.0000
  C   C12       1.0  0.9148389432161892  0.33003259398929424  0.34633826928929784  1.0000
  C   C13       1.0  0.9531758716571658  0.37671872748895646  0.25821695634371633  1.0000
  C   C14       1.0  0.6206261538520224  0.1831077447653584  0.6397960750246625  1.0000
  C   C15       1.0  0.6959663723876587  0.20306166119737407  0.5991927411609624  1.0000
  C   C16       1.0  0.7287177377060559  0.1787186498197357  0.6466826293387058  1.0000
  C   C17       1.0  0.6855060515231984  0.13456813054884256  0.7331853007465412  1.0000
  C   C18       1.0  0.5791804782723773  0.13861716052281986  0.7267644428294773  1.0000
  C   C19       1.0  0.15848769168717783  0.6341928752769874  0.7424769250165254  1.0000
  C   C20       1.0  0.20012411879285708  0.6783083329735431  0.6568341589801179  1.0000
  C   C21       1.0  0.16491130049952574  0.6975572673929449  0.6116346519567272  1.0000
  C   C22       1.0  0.08888777734907194  0.6726014380833831  0.6538183299721181  1.0000
  C   C23       1.0  0.050461436544104295  0.6267076737309195  0.7418598536563579  1.0000
  C   C24       1.0  0.3818077978889889  0.8076921376250041  0.3595079587513369  1.0000
  C   C25       1.0  0.3074758514810512  0.7978731952486979  0.40046207540977  1.0000
  C   C26       1.0  0.27596757441467906  0.8338394253404501  0.3531935430919119  1.0000
  C   C27       1.0  0.31942302866163175  0.8782082497658408  0.26676795066118325  1.0000
  C   C28       1.0  0.4233011241610996  0.852780624363973  0.2725978151441879  1.0000
  C   C29       1.0  0.6280042846393529  0.12287045769218712  0.017200742628609947  1.0000
  C   C30       1.0  0.8592781010335032  0.3506160163783249  0.024380743345425174  1.0000
  C   C31       1.0  0.6633093795706486  0.19822474779925867  0.9494284163914982  1.0000
  C   C32       1.0  0.7065412549832004  0.2428615845872386  0.95353231663735  1.0000
  C   C33       1.0  0.7963630548137034  0.2941981035552459  0.09988018297062955  1.0000
  C   C34       1.0  0.7504354159699885  0.2522090209371441  0.09581862049878251  1.0000
  C   C35       1.0  0.8731218958733751  0.36138019436494756  0.9493253611897358  1.0000
  C   C36       1.0  0.8279996128191344  0.31868913265503096  0.9465933308359948  1.0000
  C   C37       1.0  0.6374086943932867  0.0959125484484531  0.08522265555267701  1.0000
  C   C38       1.0  0.681778674077954  0.14008626475548874  0.08724312004756025  1.0000
  C   C39       1.0  0.7170798722623175  0.21500839745513636  0.020570681909283964  1.0000
  C   C40       1.0  0.7653658742951421  0.26279933743352046  0.020995022826540026  1.0000
  C   C41       1.0  0.36682333707561554  0.8653472873415566  0.003506415862737624  1.0000
  C   C42       1.0  0.1326176072331364  0.6368596732996038  0.9988003182784906  1.0000
  C   C43       1.0  0.3861623892096588  0.8706755554439739  0.92863149989445  1.0000
  C   C44       1.0  0.33941888309934853  0.8232751458426719  0.9309877240634489  1.0000
  C   C45       1.0  0.10483295685218505  0.6504483516027688  0.06276905887718005  1.0000
  C   C46       1.0  0.1531348351490465  0.6957732469802521  0.06107665502786132  1.0000
  C   C47       1.0  0.2071856212645287  0.6661873740258952  0.9394677505724544  1.0000
  C   C48       1.0  0.2543082968768999  0.7076639548266711  0.9412423990945128  1.0000
  C   C49       1.0  0.3033056841050836  0.8108620611638313  0.07706311534283838  1.0000
  C   C50       1.0  0.25822654412362317  0.7643720182958376  0.07836418551944736  1.0000
  C   C51       1.0  0.27553879923681995  0.770776350681551  0.00393378927847709  1.0000
  C   C52       1.0  0.22721514338466164  0.7240899772491077  0.0022563796445069263  1.0000
  C   C53       1.0  0.38656394294378776  0.15236447401047573  0.9719601086443815  1.0000
  C   C54       1.0  0.1469144809504286  0.37808481183880355  0.9801741904182676  1.0000
  C   C55       1.0  0.4139398126224094  0.23003440321449625  0.9110172198108728  1.0000
  C   C56       1.0  0.36496766198111175  0.27274851992401483  0.9126090011419234  1.0000
  C   C57       1.0  0.1322221686870577  0.31018057978869956  0.053811368564410614  1.0000
  C   C58       1.0  0.17988750916388344  0.26663597372512987  0.04710133142347674  1.0000
  C   C59       1.0  0.20820847120790384  0.398472189232173  0.9040965744908719  1.0000
  C   C60       1.0  0.2551620611204867  0.3554428049101546  0.8987893870684258  1.0000
  C   C61       1.0  0.3116089892859152  0.12101574570966275  0.028419162642997306  1.0000
  C   C62       1.0  0.26385372861920336  0.1634759500783787  0.027220334634051827  1.0000
  C   C63       1.0  0.2905549945849941  0.24103973662864323  0.9697504854338631  1.0000
  C   C64       1.0  0.2411985768154139  0.28805059386623805  0.9714458922084571  1.0000
  C   C65       1.0  0.6311891536286894  0.8616930081449609  0.9909455071690725  1.0000
  C   C66       1.0  0.8570070222075543  0.6213126229251599  0.011095869731150386  1.0000
  C   C67       1.0  0.6642735038229264  0.8479434911329876  0.9273315098327752  1.0000
  C   C68       1.0  0.7079914107932199  0.7997222767588711  0.9338337429971233  1.0000
  C   C69       1.0  0.7906260779740748  0.6013740119591019  0.08440467417894157  1.0000
  C   C70       1.0  0.7472554835655317  0.6501070805113469  0.07837685359933037  1.0000
  C   C71       1.0  0.8763755676789272  0.6887259320834644  0.9361821783381857  1.0000
  C   C72       1.0  0.8329398617600106  0.7356961711397146  0.9312147376564327  1.0000
  C   C73       1.0  0.6431822519877956  0.8263768050812388  0.05753292830828356  1.0000
  C   C74       1.0  0.6865447136137279  0.7792501526938551  0.06296200216108602  1.0000
  C   C75       1.0  0.7198240597741759  0.7655820375020355  7.032577520503405e-05  1.0000
  C   C76       1.0  0.7670737310318785  0.7163336746473375  0.003445752863186189  1.0000
  C   C77       1.0  0.033769709200271315  0.4075997260490282  0.2099589774286769  1.0000
  C   C78       1.0  0.9552109761137331  0.3105535908724518  0.39143433821872264  1.0000
  C   C79       1.0  0.49836732818786805  0.11896872605650803  0.7694867027110277  1.0000
  C   C80       1.0  0.7205304887310504  0.10885149140236192  0.7840837749482361  1.0000
  C   C81       1.0  0.9696352541062083  0.5977442197000045  0.7897075393364263  1.0000
  C   C82       1.0  0.048631181607745995  0.6920748678898931  0.6085721851472313  1.0000
  C   C83       1.0  0.503008680215622  0.8633843224714111  0.22883508561309895  1.0000
  C   C84       1.0  0.2864971600324965  0.9175040371503513  0.21552917762288357  1.0000
  N   N1        1.0  0.9182031052781242  0.3935486937968236  0.21618563689589368  1.0000
  N   N2        1.0  0.8012408339000816  0.2581203762341388  0.47644973927985007  1.0000
  N   N3        1.0  0.7336846053312199  0.24903284177482732  0.5110533846854323  1.0000
  N   N4        1.0  0.6116071474762848  0.11452465604144627  0.7724613085365916  1.0000
  N   N5        1.0  0.08542366572733331  0.6085744075126769  0.7839804661971285  1.0000
  N   N6        1.0  0.20255655817172166  0.7435004298370343  0.5236518522904349  1.0000
  N   N7        1.0  0.2697502959459826  0.7506492398528479  0.48865354593272753  1.0000
  N   N8        1.0  0.3921700259645249  0.8871975772953673  0.22711104258803538  1.0000
  N   N9        1.0  0.6567022495880793  0.22888225466076761  0.8801820875764576  1.0000
  N   N10       1.0  0.7778982156512413  0.2818073915877903  0.1756033747494072  1.0000
  N   N11       1.0  0.4479522499324132  0.921288886251794  0.85378185134271  1.0000
  N   N12       1.0  0.03336030591059824  0.6211815774653361  0.12547909040203103  1.0000
  N   N13       1.0  0.4871657549493591  0.26452175513797727  0.854233152139443  1.0000
  N   N14       1.0  0.07423432706340802  0.2863939609342481  0.13132084060526236  1.0000
  N   N15       1.0  0.6517226901457606  0.8774005550810812  0.8627505695711691  1.0000
  N   N16       1.0  0.768677759300232  0.5374709807604034  0.16020597097312364  1.0000
  O   O1        1.0  0.4599802230126997  0.9725814070401099  0.9386931711339768  1.0000
  O   O2        1.0  0.39816367351321696  0.894715699282855  0.07915100286322038  1.0000
  O   O3        1.0  0.41279745197091705  0.042124143351607295  0.046149662796096946  1.0000
  O   O4        1.0  0.4939534882296358  0.12374580673935749  0.9091282479294591  1.0000
  O   O5        1.0  0.5259913242143385  0.021902876421705696  0.08853928636614938  1.0000
  O   O6        1.0  0.5977541735772077  0.08259316796603848  0.9485400578743395  1.0000
  O   O7        1.0  0.5954531448124031  0.9632457292644216  0.916743765527592  1.0000
  O   O8        1.0  0.5414142951336913  0.9068601947481837  0.055849931945132936  1.0000
  O   O9        1.0  0.05248370331585051  0.41616284047992014  0.05064927476781383  1.0000
  O   O10       1.0  0.10626900106388598  0.4769706492855831  0.910900371825221  1.0000
  O   O11       1.0  0.10738651033020831  0.5995449660642862  0.9241117237753186  1.0000
  O   O12       1.0  0.024726119819369795  0.5478316680598992  0.06004959436572924  1.0000
  O   O13       1.0  0.9641438464346097  0.5972806259472349  0.9404607631615958  1.0000
  O   O14       1.0  0.8887168477357646  0.5118781304464975  0.07809666364443052  1.0000
  O   O15       1.0  0.9066204740501361  0.3781792317963593  0.09084790265935533  1.0000
  O   O16       1.0  0.9567623038890292  0.4564346071836241  0.9518658386923773  1.0000
