data_image0
_chemical_formula_structural       Zn2H16C12Br4N4
_chemical_formula_sum              "Zn2 H16 C12 Br4 N4"
_cell_length_a       6.4184483025146175
_cell_length_b       8.615534781437637
_cell_length_c       9.891364946294242
_cell_angle_alpha    113.2249173550552
_cell_angle_beta     89.97059187307217
_cell_angle_gamma    111.89896809813006

_space_group_name_H-M_alt    "P 1"
_space_group_IT_number       1

loop_
  _space_group_symop_operation_xyz
  'x, y, z'

loop_
  _atom_site_type_symbol
  _atom_site_label
  _atom_site_symmetry_multiplicity
  _atom_site_fract_x
  _atom_site_fract_y
  _atom_site_fract_z
  _atom_site_occupancy
  Zn  Zn1       1.0  0.11616793142727752  0.9997309487010781  0.7500137581196851  1.0000
  Zn  Zn2       1.0  0.8838440175195215  0.0002647436241645002  0.2499913970613291  1.0000
  H   H1        1.0  0.1595147281237743  0.7334982726901343  0.47108268873317616  1.0000
  H   H2        1.0  0.4264053046485543  0.2663899417664695  0.02847888638427779  1.0000
  H   H3        1.0  0.8404707224980825  0.2665347628584342  0.528921197574263  1.0000
  H   H4        1.0  0.5735864232762539  0.7335808935657228  0.9715116329454785  1.0000
  H   H5        1.0  0.4192027138778514  0.3549117685162385  0.7768877902070057  1.0000
  H   H6        1.0  0.06441774597379171  0.6448301055508805  0.7231890786475784  1.0000
  H   H7        1.0  0.5808100754736147  0.6451198634245758  0.22312470598647144  1.0000
  H   H8        1.0  0.9356034014403747  0.35514348312280936  0.2768074400498505  1.0000
  H   H9        1.0  0.6703263747739642  0.4599954423299906  0.7124374218851696  1.0000
  H   H10       1.0  0.21030368578144024  0.5397916672277602  0.7875521983671374  1.0000
  H   H11       1.0  0.32967480675924327  0.5400223362651957  0.2875824299729429  1.0000
  H   H12       1.0  0.7897389851404881  0.46018754868332934  0.21241188393238278  1.0000
  H   H13       1.0  0.686620035905342  0.36693083005168603  0.841010051389375  1.0000
  H   H14       1.0  0.319902635526603  0.6329887156211029  0.6590271560819116  1.0000
  H   H15       1.0  0.31336665326712426  0.6330704199703873  0.15898489338604796  1.0000
  H   H16       1.0  0.6800799253857193  0.367016727650295  0.34095204899297454  1.0000
  C   C1        1.0  0.5350365130384134  0.16542106420570238  0.6178353430574716  1.0000
  C   C2        1.0  0.3696386342200881  0.8344757513402071  0.8822201980428727  1.0000
  C   C3        1.0  0.4649570461914934  0.8346188468633499  0.3821830450954379  1.0000
  C   C4        1.0  0.6303410271813447  0.1654896296884729  0.11774215655211147  1.0000
  C   C5        1.0  0.3137595679927402  0.8524582977835705  0.48343196218468854  1.0000
  C   C6        1.0  0.4614697977317803  0.14744631251934953  0.016359452444000097  1.0000
  C   C7        1.0  0.6862032357697672  0.1475388065023395  0.5165605459235818  1.0000
  C   C8        1.0  0.5385227826961841  0.8525231183158015  0.9836386701833743  1.0000
  C   C9        1.0  0.5790597356637691  0.3466674402009673  0.7437378266893189  1.0000
  C   C10       1.0  0.232520746956908  0.6531691955374441  0.7563215768109542  1.0000
  C   C11       1.0  0.4209374371829143  0.6533765879954385  0.2562920907280527  1.0000
  C   C12       1.0  0.7674871201129747  0.34679340026784905  0.24364891097715707  1.0000
  Br  Br1       1.0  0.7782537964635169  0.7373683853803996  0.607356061436789  1.0000
  Br  Br2       1.0  0.039794265612386026  0.2614974438522637  0.892983038417057  1.0000
  Br  Br3       1.0  0.22173556204145234  0.2626133319279376  0.3926988707634392  1.0000
  Br  Br4       1.0  0.9602467574998242  0.7385189929633142  0.1070242117470457  1.0000
  N   N1        1.0  0.3479548209428103  0.013172852845123402  0.5989742661325079  1.0000
  N   N2        1.0  0.33499773535086064  0.9866724631618382  0.9008865338996656  1.0000
  N   N3        1.0  0.6520403399599319  0.9868422186195361  0.4010244333664943  1.0000
  N   N4        1.0  0.665005213565685  0.013330150880754796  0.09911595535366757  1.0000
