data_image0
_chemical_formula_structural       Cd2H8C12S4N8
_chemical_formula_sum              "Cd2 H8 C12 S4 N8"
_cell_length_a       7.291362329909771
_cell_length_b       7.293237009444316
_cell_length_c       10.242504396881325
_cell_angle_alpha    98.80284635813908
_cell_angle_beta     103.85863686850244
_cell_angle_gamma    116.64839585176732

_space_group_name_H-M_alt    "P 1"
_space_group_IT_number       1

loop_
  _space_group_symop_operation_xyz
  'x, y, z'

loop_
  _atom_site_type_symbol
  _atom_site_label
  _atom_site_symmetry_multiplicity
  _atom_site_fract_x
  _atom_site_fract_y
  _atom_site_fract_z
  _atom_site_occupancy
  Cd  Cd1       1.0  0.6588750124855665  0.9087426024648906  0.7500137969024296  1.0000
  Cd  Cd2       1.0  0.341127344037261  0.09126143243403109  0.24999164233108223  1.0000
  H   H1        1.0  0.4416505153707603  0.6822643437173425  0.9685230796809994  1.0000
  H   H2        1.0  0.7860495624176025  0.5267410714346781  0.4684893232650254  1.0000
  H   H3        1.0  0.5583546431106471  0.3177396420367985  0.0314769745724988  1.0000
  H   H4        1.0  0.21394943385720927  0.47325648677297505  0.5315070399910696  1.0000
  H   H5        1.0  0.11090283206229404  0.3552508594884217  0.969591882568537  1.0000
  H   H6        1.0  0.11413199655338968  0.8586730046276687  0.46963811153369067  1.0000
  H   H7        1.0  0.8891034705076423  0.6447498880658599  0.03040704474425138  1.0000
  H   H8        1.0  0.8858700857700442  0.1413277783066889  0.5303620518940024  1.0000
  C   C1        1.0  0.9085662218110427  0.12987963410836298  0.09853670797517111  1.0000
  C   C2        1.0  0.4685877430751901  0.1897941687793292  0.5985223429798696  1.0000
  C   C3        1.0  0.09141899204487199  0.8701131426719401  0.9014528868161097  1.0000
  C   C4        1.0  0.5314180010501275  0.8102082279968883  0.4014825231537318  1.0000
  C   C5        1.0  0.31590073179469164  0.5605571077265881  0.8708374330054911  1.0000
  C   C6        1.0  0.8101958510182857  0.5548694764591603  0.3708140528095144  1.0000
  C   C7        1.0  0.684097693672186  0.4394420723193591  0.129159982389183  1.0000
  C   C8        1.0  0.1898048154898859  0.4451312981872206  0.6291829390895034  1.0000
  C   C9        1.0  0.1329074121984206  0.3794314818485418  0.870818905502411  1.0000
  C   C10       1.0  0.9913020722272069  0.7378616753468422  0.3708270222785047  1.0000
  C   C11       1.0  0.8670938275903454  0.6205676764362664  0.12917801159447612  1.0000
  C   C12       1.0  0.008696931465586063  0.26213589929099623  0.629172272986928  1.0000
  S   S1        1.0  0.10791749064632236  0.29743043407668074  0.24440787648806156  1.0000
  S   S2        1.0  0.44703119267132513  0.1363307667604658  0.7444077642594993  1.0000
  S   S3        1.0  0.8921112370173462  0.7025944674002106  0.7556130796651035  1.0000
  S   S4        1.0  0.5529602799801907  0.8636604761007477  0.2556032378723644  1.0000
  N   N1        1.0  0.7624634475619131  0.010271813317253005  0.9918406042981548  1.0000
  N   N2        1.0  0.48142750355494707  0.2292469876323011  0.4918056023650126  1.0000
  N   N3        1.0  0.2375124733756878  0.9897193876667391  0.008144307046343705  1.0000
  N   N4        1.0  0.5185869255908174  0.7707585246275955  0.508190339307241  1.0000
  N   N5        1.0  0.3432145058876798  0.5932332926137036  0.7500175800937827  1.0000
  N   N6        1.0  0.6567861655658122  0.4067674929861268  0.24998136647812438  1.0000
  N   N7        1.0  0.9796950337719323  0.2296497816943841  0.7499847824084114  1.0000
  N   N8        1.0  0.020304805037547155  0.7703494011628179  0.25001482717848234  1.0000
