data_image0
_chemical_formula_structural       Hg2H28C28I4N8
_chemical_formula_sum              "Hg2 H28 C28 I4 N8"
_cell_length_a       8.660520221097816
_cell_length_b       8.932473998401147
_cell_length_c       11.519338524005942
_cell_angle_alpha    74.55990047183352
_cell_angle_beta     88.19077364144918
_cell_angle_gamma    84.62469278960083

_space_group_name_H-M_alt    "P 1"
_space_group_IT_number       1

loop_
  _space_group_symop_operation_xyz
  'x, y, z'

loop_
  _atom_site_type_symbol
  _atom_site_label
  _atom_site_symmetry_multiplicity
  _atom_site_fract_x
  _atom_site_fract_y
  _atom_site_fract_z
  _atom_site_occupancy
  Hg  Hg1       1.0  0.7866426547928287  0.48840452066517065  0.3342767029695892  1.0000
  Hg  Hg2       1.0  0.21335689889546927  0.5115956515602635  0.6657218073121101  1.0000
  H   H1        1.0  0.6548259540339884  0.10925874184932383  0.4052578124924864  1.0000
  H   H2        1.0  0.34517960098546757  0.8907391073408776  0.5947453625776404  1.0000
  H   H3        1.0  0.784692530301008  0.4108308867058811  0.04777917472400619  1.0000
  H   H4        1.0  0.21530576541064758  0.5891704465920073  0.9522199970962646  1.0000
  H   H5        1.0  0.4319438917570935  0.335516777399505  0.3135417274773857  1.0000
  H   H6        1.0  0.5680547218875488  0.6644810579049506  0.686458155419146  1.0000
  H   H7        1.0  0.3483695338957489  0.22529506754640502  0.1208116627284852  1.0000
  H   H8        1.0  0.6516302346859603  0.7747027711167648  0.8791881899598124  1.0000
  H   H9        1.0  0.8342652473964448  0.7774235110055374  0.13838212707276645  1.0000
  H   H10       1.0  0.16573420912847328  0.22257782251778482  0.8616187512507737  1.0000
  H   H11       1.0  0.6172810542613903  0.36006906394755595  0.8673408669623939  1.0000
  H   H12       1.0  0.38271850236499466  0.639931106711238  0.13265851167505363  1.0000
  H   H13       1.0  0.4624557389263018  0.24208697719731026  0.9159464754091431  1.0000
  H   H14       1.0  0.5375438177000831  0.7579131934614839  0.08405290322831147  1.0000
  H   H15       1.0  0.7593867372388774  0.20076596815623302  0.7608828461466999  1.0000
  H   H16       1.0  0.240612822325609  0.7992342009359209  0.23911740084650288  1.0000
  H   H17       1.0  0.9842033019363963  0.7576429421848235  0.9561427807484364  1.0000
  H   H18       1.0  0.01579625762808939  0.24235722690733044  0.0438574662447664  1.0000
  H   H19       1.0  0.6461615931377837  0.005536888865357502  0.1339162950477686  1.0000
  H   H20       1.0  0.3538379664266955  0.9944632802267961  0.8660839519454413  1.0000
  H   H21       1.0  0.08992451567075932  0.02364877123871171  0.7375387065253564  1.0000
  H   H22       1.0  0.9100772507282998  0.9763525690020529  0.26246211138170855  1.0000
  H   H23       1.0  0.0116937703584981  0.8474054864113469  0.7362681707207274  1.0000
  H   H24       1.0  0.9883056832283259  0.15259584867862228  0.2637318392470576  1.0000
  H   H25       1.0  0.7691937795936852  0.8688189741731023  0.5985444494145966  1.0000
  H   H26       1.0  0.23080997580844817  0.13118587234517076  0.40145472864399073  1.0000
  H   H27       1.0  0.9888598602137363  0.27603928207469863  0.5880070528687895  1.0000
  H   H28       1.0  0.011138335396445584  0.7239632140877177  0.41199361863755973  1.0000
  C   C1        1.0  0.7395561316297545  0.10950296735893522  0.47237792521566047  1.0000
  C   C2        1.0  0.260439615809581  0.8905007053169174  0.5276130177684591  1.0000
  C   C3        1.0  0.6789317335615195  0.37476146202730126  0.09614274304093581  1.0000
  C   C4        1.0  0.3210677170872032  0.6252398746293083  0.9038563985710938  1.0000
  C   C5        1.0  0.49362866157518676  0.3328196146174278  0.23048781238061622  1.0000
  C   C6        1.0  0.5063710010288675  0.6671793900435575  0.7695118032822565  1.0000
  C   C7        1.0  0.45049085176671616  0.278884241305093  0.13601426816215678  1.0000
  C   C8        1.0  0.5495089138769059  0.7211135989247168  0.8639847161703786  1.0000
  C   C9        1.0  0.8172208820090177  0.8702624005282901  0.0552613246795204  1.0000
  C   C10       1.0  0.1827786775554685  0.12973776856386374  0.9447389223136897  1.0000
  C   C11       1.0  0.5798316913324156  0.2615567351970397  0.9386059470350646  1.0000
  C   C12       1.0  0.42016660437924014  0.7384445981008485  0.06139322478519916  1.0000
  C   C13       1.0  0.6908710479154152  0.11849958790691062  0.9460280824623342  1.0000
  C   C14       1.0  0.30912724779624073  0.8815017453909777  0.053971089357929686  1.0000
  C   C15       1.0  0.7756743739473393  0.10645042797452221  0.8431728778516003  1.0000
  C   C16       1.0  0.22432644946997016  0.8935485769118973  0.15682844431454157  1.0000
  C   C17       1.0  0.8821413638050687  0.9779816947706622  0.8455226649069872  1.0000
  C   C18       1.0  0.11785924471882944  0.022019643678021308  0.1544773148525636  1.0000
  C   C19       1.0  0.9022042226388222  0.8591767859531176  0.9525433368400584  1.0000
  C   C20       1.0  0.0977953398637581  0.140823381572396  0.0474577785088997  1.0000
  C   C21       1.0  0.7117024674027731  0.9991404288905485  0.05257703355890441  1.0000
  C   C22       1.0  0.2882970921617058  0.0008597402016051003  0.9474232134342984  1.0000
  C   C23       1.0  0.9810784530507916  0.9695203312033845  0.7364501972933793  1.0000
  C   C24       1.0  0.018922261450761396  0.0304798412474909  0.26355001949158924  1.0000
  C   C25       1.0  0.794213902755601  0.9896456078607231  0.5677115113038055  1.0000
  C   C26       1.0  0.2057893561450186  0.010339403710752003  0.43229523002640496  1.0000
  C   C27       1.0  0.9114269981801401  0.2011083070409755  0.563184739643205  1.0000
  C   C28       1.0  0.08857361328185219  0.798893029841068  0.4368161084720938  1.0000
  I   I1        1.0  0.617867277672886  0.7297009957172095  0.3916021526895507  1.0000
  I   I2        1.0  0.38213238493116825  0.27029800894377604  0.608397462973322  1.0000
  I   I3        1.0  0.07663449916228868  0.4835730336094812  0.22433377361806353  1.0000
  I   I4        1.0  0.9233641027299766  0.516424807961542  0.7756626358554541  1.0000
  N   N1        1.0  0.6361863087920554  0.3917960055681108  0.20420142286354093  1.0000
  N   N2        1.0  0.36381220181301194  0.6082029941675133  0.7957990913633142  1.0000
  N   N3        1.0  0.5685390421938835  0.3070061330392165  0.05163595419088549  1.0000
  N   N4        1.0  0.4314593594954347  0.6929940342608635  0.9483634546548032  1.0000
  N   N5        1.0  0.9032027756619029  0.049338239765120306  0.6237488421795945  1.0000
  N   N6        1.0  0.0967999337189056  0.9506654358299829  0.3762514714684002  1.0000
  N   N7        1.0  0.8135939304072651  0.24045576480909164  0.47097264489703144  1.0000
  N   N8        1.0  0.18640804794711843  0.7595432434360418  0.5290286470608763  1.0000
