data_image0
_chemical_formula_structural       Cd4B4H192C180I8N12
_chemical_formula_sum              "Cd4 B4 H192 C180 I8 N12"
_cell_length_a       18.299956762357034
_cell_length_b       18.29988252914274
_cell_length_c       19.099222347774187
_cell_angle_alpha    61.37026068781661
_cell_angle_beta     61.36998411772495
_cell_angle_gamma    59.985927645854105

_space_group_name_H-M_alt    "P 1"
_space_group_IT_number       1

loop_
  _space_group_symop_operation_xyz
  'x, y, z'

loop_
  _atom_site_type_symbol
  _atom_site_label
  _atom_site_symmetry_multiplicity
  _atom_site_fract_x
  _atom_site_fract_y
  _atom_site_fract_z
  _atom_site_occupancy
  Cd  Cd1       1.0  0.8997055592038736  0.10030007042666239  0.499996761866896  1.0000
  Cd  Cd2       1.0  0.5000588387026427  0.8997031258904683  0.5000374246975242  1.0000
  Cd  Cd3       1.0  0.1002946808589087  0.4999369207628562  0.499966153588602  1.0000
  Cd  Cd4       1.0  6.851452319299647e-06  0.9999936061804743  0.9999991875869229  1.0000
  B   B1        1.0  0.599999138826455  0.4000004270890541  3.5375624987668523e-06  1.0000
  B   B2        1.0  3.404246143649896e-05  0.5999293506912551  0.9999350047365926  1.0000
  B   B3        1.0  0.400068106898118  0.9999624449713804  6.794569049632745e-05  1.0000
  B   B4        1.0  0.5000340779420611  0.4999629234896544  0.5000050252263294  1.0000
  H   H1        1.0  0.9438487201597499  0.07152109775112328  0.3255036067411083  1.0000
  H   H2        1.0  0.659011518523741  0.9441789460636156  0.3251533098077459  1.0000
  H   H3        1.0  0.0714493515437553  0.6592180407608764  0.32547173755351394  1.0000
  H   H4        1.0  0.0558244146402558  0.3409848106146497  0.6748523695956197  1.0000
  H   H5        1.0  0.34077252804259234  0.9285633684542701  0.6745242926090926  1.0000
  H   H6        1.0  0.9284840120652904  0.05615396308905911  0.6744912840250239  1.0000
  H   H7        1.0  0.8769975857366248  0.13309532230952925  0.21300684519437865  1.0000
  H   H8        1.0  0.7768185349201602  0.8771910847317769  0.21272834565825605  1.0000
  H   H9        1.0  0.13302862727291404  0.7769718900814195  0.2129967917915325  1.0000
  H   H10       1.0  0.1228132961198654  0.22317829755889557  0.7872766151180601  1.0000
  H   H11       1.0  0.22302219591389877  0.8669812372061401  0.7870048618123138  1.0000
  H   H12       1.0  0.8669016521069325  0.12300050628388705  0.7869942365842489  1.0000
  H   H13       1.0  0.6470544544506254  0.30269914467915265  0.35412848559506926  1.0000
  H   H14       1.0  0.6961482740008267  0.6472035859115333  0.35419159003634354  1.0000
  H   H15       1.0  0.30276442890117033  0.6959036124685056  0.354078817042975  1.0000
  H   H16       1.0  0.3527954575848753  0.30385460958517285  0.6458110324601164  1.0000
  H   H17       1.0  0.30409116325615326  0.6972397189315344  0.6459264844576114  1.0000
  H   H18       1.0  0.6972989016368845  0.35294619252385184  0.6458763105216506  1.0000
  H   H19       1.0  0.7190678564405532  0.2271163901218641  0.4651349726173564  1.0000
  H   H20       1.0  0.5888869811627728  0.7192747351726323  0.46517147669293735  1.0000
  H   H21       1.0  0.22708688804958402  0.5885711058794455  0.465098556866842  1.0000
  H   H22       1.0  0.280728319540323  0.4111091873637419  0.5348292457156845  1.0000
  H   H23       1.0  0.41142057562676365  0.7729171671286533  0.5349033939220506  1.0000
  H   H24       1.0  0.7728836754573367  0.2809375929261291  0.5348647013382364  1.0000
  H   H25       1.0  0.7735111859666193  0.37095060756075054  0.21742998153017362  1.0000
  H   H26       1.0  0.6381400808434564  0.7735170814455969  0.21749034738837028  1.0000
  H   H27       1.0  0.3710721007696591  0.6380202687184563  0.21742926205254787  1.0000
  H   H28       1.0  0.22648552379251904  0.36185718022623076  0.7825132376540511  1.0000
  H   H29       1.0  0.36198161357611985  0.6289252274651601  0.7825755351592889  1.0000
  H   H30       1.0  0.6290472214000644  0.22648304364172123  0.7825781955214879  1.0000
  H   H31       1.0  0.6822939730142252  0.4679999263389332  0.19358141842225507  1.0000
  H   H32       1.0  0.6561372048587658  0.682339970901992  0.19361039906947064  1.0000
  H   H33       1.0  0.46805209400901054  0.6561451528872266  0.19356929530987804  1.0000
  H   H34       1.0  0.31766283893831826  0.34386093098866866  0.8063928937957175  1.0000
  H   H35       1.0  0.3438518559674791  0.5319478471683466  0.806435777276491  1.0000
  H   H36       1.0  0.5319972189191162  0.3177006466261857  0.8064269259723887  1.0000
  H   H37       1.0  0.7826982236806828  0.4417989995364022  0.11251604483599213  1.0000
  H   H38       1.0  0.663010453340469  0.7827499294705617  0.1125585786450713  1.0000
  H   H39       1.0  0.44189541230796453  0.6629629253153976  0.11251124290813419  1.0000
  H   H40       1.0  0.2172520363505868  0.33698975907606876  0.8874439044905745  1.0000
  H   H41       1.0  0.3370363248324111  0.5581024651317887  0.8874938461252455  1.0000
  H   H42       1.0  0.5581984212719604  0.21729754658674233  0.8874933682285049  1.0000
  H   H43       1.0  0.6205417658569701  0.526574000920597  0.9993078829727298  1.0000
  H   H44       1.0  0.8535303544250112  0.6204288420672764  0.9994747605612565  1.0000
  H   H45       1.0  0.5266142731394368  0.8535026424054875  0.9995432367510304  1.0000
  H   H46       1.0  0.37956869077554967  0.14646961053423968  0.0005319576556886778  1.0000
  H   H47       1.0  0.14649008855612783  0.47338764270296013  0.0004601565350270765  1.0000
  H   H48       1.0  0.4734241192237505  0.3794620953079501  0.000695105186864019  1.0000
  H   H49       1.0  0.7210113943979479  0.5067680317851212  0.009335770911377505  1.0000
  H   H50       1.0  0.762825514020335  0.7208865316422857  0.009585220421151116  1.0000
  H   H51       1.0  0.5069127440458701  0.7627654880334303  0.00955236229587808  1.0000
  H   H52       1.0  0.2791111199517005  0.23717494845909193  0.9904191638705984  1.0000
  H   H53       1.0  0.23723071215271574  0.49308109239507997  0.9904550202869732  1.0000
  H   H54       1.0  0.49322531172572337  0.2789909508500159  0.990671305542577  1.0000
  H   H55       1.0  0.6185553673209937  0.5399175186253939  0.08596563395560981  1.0000
  H   H56       1.0  0.7555713690361615  0.6184212739972208  0.08621619597131774  1.0000
  H   H57       1.0  0.5398543101988905  0.7555341854642063  0.08626757417627577  1.0000
  H   H58       1.0  0.38157734659771597  0.2444271447342529  0.9137883540613887  1.0000
  H   H59       1.0  0.24446049735747982  0.4601427080010935  0.9137373588532544  1.0000
  H   H60       1.0  0.4600806273380655  0.3814470479290291  0.9140390951492778  1.0000
  H   H61       1.0  0.6054078837256895  0.24182348801816284  0.05200055503531322  1.0000
  H   H62       1.0  0.10087360229135099  0.6053817682065414  0.05190350533229088  1.0000
  H   H63       1.0  0.24203968172301427  0.10076419361063663  0.05203162739380934  1.0000
  H   H64       1.0  0.3946153987692824  0.8991233596028607  0.9480964610992545  1.0000
  H   H65       1.0  0.8992322384458052  0.7579587647865154  0.9479666102830963  1.0000
  H   H66       1.0  0.7581746210243027  0.39459369934268546  0.9480005866237281  1.0000
  H   H67       1.0  0.5639964259288279  0.19584402883686636  0.16260367661837447  1.0000
  H   H68       1.0  0.07780758815506772  0.5639052801577121  0.1625024471331217  1.0000
  H   H69       1.0  0.19596818855796272  0.07766557346361214  0.16263518952807493  1.0000
  H   H70       1.0  0.4360918989770184  0.9221929352622168  0.8374958330554706  1.0000
  H   H71       1.0  0.9223381436139351  0.8040264098042083  0.8373615467514669  1.0000
  H   H72       1.0  0.8041524829633959  0.43600271113963607  0.8373982505629485  1.0000
  H   H73       1.0  0.6744996842875254  0.14364332910679417  0.10723838684295826  1.0000
  H   H74       1.0  0.0747516862191446  0.6744491870591743  0.10714998211857832  1.0000
  H   H75       1.0  0.14373710236856144  0.07486533419842083  0.10720931711757944  1.0000
  H   H76       1.0  0.3255471652117734  0.9252519373739149  0.8928481196246666  1.0000
  H   H77       1.0  0.9251308402802751  0.8562617155803732  0.892789606301186  1.0000
  H   H78       1.0  0.8563533374595594  0.3255012781533605  0.8927642492939327  1.0000
  H   H79       1.0  0.7079824371637714  0.10900148346966167  0.30104891189279953  1.0000
  H   H80       1.0  0.8820764642614307  0.708038002639817  0.30097530553168667  1.0000
  H   H81       1.0  0.10893987686520032  0.8820411223623238  0.30105217443089327  1.0000
  H   H82       1.0  0.2919636647850723  0.11792820604545533  0.6990238858389406  1.0000
  H   H83       1.0  0.11795183270381673  0.8910614924182592  0.6989521622609093  1.0000
  H   H84       1.0  0.8909925498349267  0.29201383155616856  0.698957391943715  1.0000
  H   H85       1.0  0.7436223365545944  0.07938564605717581  0.21145791853003704  1.0000
  H   H86       1.0  0.9655672281593867  0.7437245541155656  0.21134131673780876  1.0000
  H   H87       1.0  0.0793350496544676  0.9655248093573757  0.21140288868630833  1.0000
  H   H88       1.0  0.2562759668420895  0.03443531163897256  0.7886571352177472  1.0000
  H   H89       1.0  0.03446900921616702  0.9206632335170538  0.7886033209380872  1.0000
  H   H90       1.0  0.9206106578945922  0.2563730273568507  0.7885465214643688  1.0000
  H   H91       1.0  0.6283501149039097  0.12072064896971559  0.26507645645524763  1.0000
  H   H92       1.0  0.9860355992414115  0.6284458136773308  0.26495226477457134  1.0000
  H   H93       1.0  0.12059527313778058  0.9859877811779039  0.26494864501156495  1.0000
  H   H94       1.0  0.3715565036186987  0.013966012543960463  0.7350427712659028  1.0000
  H   H95       1.0  0.014007459481064199  0.8794014187378847  0.7350581039456686  1.0000
  H   H96       1.0  0.8792761669928809  0.37164620877040005  0.7349272511151811  1.0000
  H   H97       1.0  0.094890800951184  0.8312805242503173  0.9379382131514691  1.0000
  H   H98       1.0  0.1357822050664836  0.09486035241233275  0.9380228317867536  1.0000
  H   H99       1.0  0.831380450134269  0.1360257598641039  0.9377545915917622  1.0000
  H   H100      1.0  0.905136435536953  0.8642189776566976  0.061976908730535664  1.0000
  H   H101      1.0  0.8639768086560693  0.168618523892782  0.06224524743520734  1.0000
  H   H102      1.0  0.16871888680027783  0.9051099150385223  0.06206179460000537  1.0000
  H   H103      1.0  0.2266668857436116  0.691803656902202  0.9393084520485148  1.0000
  H   H104      1.0  0.1420398589599046  0.22666109208234533  0.9393718944005659  1.0000
  H   H105      1.0  0.6918290929162653  0.14247035973877326  0.9392493695815605  1.0000
  H   H106      1.0  0.7733331921882823  0.8579653936781421  0.06062854944580942  1.0000
  H   H107      1.0  0.857532764313959  0.3081704436687216  0.06074986713303312  1.0000
  H   H108      1.0  0.3081974037827635  0.7733357251761745  0.06068808775399512  1.0000
  H   H109      1.0  0.5897472168068846  0.6260722611860244  0.8024369951500463  1.0000
  H   H110      1.0  0.9821098719435355  0.5896455867075827  0.8021356675085798  1.0000
  H   H111      1.0  0.6261095695975597  0.9819597259122832  0.8024791751072159  1.0000
  H   H112      1.0  0.4103535600477671  0.017894158648047657  0.1978627501550605  1.0000
  H   H113      1.0  0.0180421230314707  0.37388931793690716  0.19751733450620185  1.0000
  H   H114      1.0  0.37392659332093814  0.41025568295747644  0.197567529209998  1.0000
  H   H115      1.0  0.6055226097449948  0.5161996395899705  0.8197729881154745  1.0000
  H   H116      1.0  0.0588951965111306  0.6051960724493524  0.8196544464278334  1.0000
  H   H117      1.0  0.5162549446193054  0.05878268736055495  0.8198498605794529  1.0000
  H   H118      1.0  0.3948037488779619  0.9411065803397559  0.18034589811429694  1.0000
  H   H119      1.0  0.9412172946266397  0.4837419489772966  0.18015281303245692  1.0000
  H   H120      1.0  0.4838011178330747  0.39447779194756544  0.18022986561376794  1.0000
  H   H121      1.0  0.6539326524774866  0.5361343399647395  0.8663526423137359  1.0000
  H   H122      1.0  0.9439446469708771  0.653876890113089  0.8659937803571796  1.0000
  H   H123      1.0  0.5361585194908259  0.9438329467936197  0.866255969381008  1.0000
  H   H124      1.0  0.3461208547388353  0.056057329975359865  0.13400704160100926  1.0000
  H   H125      1.0  0.056164599808497015  0.463842552029483  0.13374166079407254  1.0000
  H   H126      1.0  0.46386466411567534  0.3460699687419434  0.1336488671640623  1.0000
  H   H127      1.0  0.4893200450172587  0.7219378120210249  0.7994115709888948  1.0000
  H   H128      1.0  0.9891307919197274  0.48934110614750614  0.799362574631353  1.0000
  H   H129      1.0  0.7218935895443863  0.9894919199089284  0.7994483504151123  1.0000
  H   H130      1.0  0.5106584573494429  0.01087542394048311  0.20063486106947434  1.0000
  H   H131      1.0  0.010510933063336801  0.2781043444652268  0.20054892228395726  1.0000
  H   H132      1.0  0.278056817768956  0.5106785980555271  0.20058641139527122  1.0000
  H   H133      1.0  0.4092208862948255  0.7813202962035672  0.871346514400287  1.0000
  H   H134      1.0  0.938052613628557  0.4091606880228083  0.8712710070784769  1.0000
  H   H135      1.0  0.7813329999306192  0.9383259973485563  0.8713074652838061  1.0000
  H   H136      1.0  0.5908394994296771  0.06195206355296529  0.12872571305036476  1.0000
  H   H137      1.0  0.061676622175788495  0.21866603514198593  0.128688036946528  1.0000
  H   H138      1.0  0.21867860271230916  0.5907778604109237  0.12864988385338463  1.0000
  H   H139      1.0  0.3761257781390981  0.7396756008572322  0.8295984928883444  1.0000
  H   H140      1.0  0.054557722077767316  0.376171327565096  0.8295009509563517  1.0000
  H   H141      1.0  0.7395469050098386  0.05482842802362592  0.8296217726889666  1.0000
  H   H142      1.0  0.623827391160539  0.9454468063695528  0.17049640532865593  1.0000
  H   H143      1.0  0.9451737919470631  0.26045011384294264  0.17037810253859223  1.0000
  H   H144      1.0  0.26031709938101244  0.6238727343650081  0.17040448252915766  1.0000
  H   H145      1.0  0.10055811870427082  0.041439448816561274  0.481193762470916  1.0000
  H   H146      1.0  0.3768504313538443  0.10056086590525834  0.48116517557325983  1.0000
  H   H147      1.0  0.041491074776764905  0.37672102473329966  0.481207029148223  1.0000
  H   H148      1.0  0.899436796503025  0.6231505549119942  0.5188288469506832  1.0000
  H   H149      1.0  0.6232745548655886  0.9585069246337806  0.5187932112759913  1.0000
  H   H150      1.0  0.9585676793242756  0.8994452772377738  0.518801239311358  1.0000
  H   H151      1.0  0.23901848739562584  0.9074242922774685  0.4843673985089226  1.0000
  H   H152      1.0  0.3691850322415958  0.23899914406446485  0.4844120788460914  1.0000
  H   H153      1.0  0.9075101692873633  0.369178663220161  0.48426577760088224  1.0000
  H   H154      1.0  0.7609991386190489  0.6308133215555213  0.5155843417678342  1.0000
  H   H155      1.0  0.6308150953043069  0.0924875656778069  0.5157359729000036  1.0000
  H   H156      1.0  0.09258358772068219  0.7609845652712579  0.5156358515096076  1.0000
  H   H157      1.0  0.259664905083504  0.49387826356922204  0.653172111907594  1.0000
  H   H158      1.0  0.593073982494346  0.25977786126430397  0.6532307487114152  1.0000
  H   H159      1.0  0.49407512989610314  0.5931556614795566  0.6533668641591607  1.0000
  H   H160      1.0  0.7402175364220014  0.40692544821844456  0.34677375054380394  1.0000
  H   H161      1.0  0.40684647869218793  0.5059245925250477  0.34664041426517417  1.0000
  H   H162      1.0  0.5061198038861577  0.7403348105638441  0.3468353346180639  1.0000
  H   H163      1.0  0.32510765923776574  0.499458258921983  0.6933092845449239  1.0000
  H   H164      1.0  0.48184047403178454  0.32519703658241617  0.6933053407196684  1.0000
  H   H165      1.0  0.4996719671855344  0.4819712709039121  0.6935435455401591  1.0000
  H   H166      1.0  0.6747985126613898  0.518160030251927  0.3067048810410213  1.0000
  H   H167      1.0  0.5180298806755134  0.5003230396557895  0.3064649449166979  1.0000
  H   H168      1.0  0.5005346942736679  0.6748902688270417  0.3067032307534918  1.0000
  H   H169      1.0  0.3766900015054092  0.4408207853040764  0.6203516131885182  1.0000
  H   H170      1.0  0.5618022013988553  0.3768147171103777  0.6203665247463235  1.0000
  H   H171      1.0  0.4409573628427665  0.5619930580813699  0.620635157071469  1.0000
  H   H172      1.0  0.6231808069535987  0.4381970537678369  0.37963895919369867  1.0000
  H   H173      1.0  0.4380120081799532  0.5590381567266856  0.37937224568217726  1.0000
  H   H174      1.0  0.559179364361917  0.6233100586249948  0.37965474580570197  1.0000
  H   H175      1.0  0.1317494506893198  0.7263131639527242  0.6503653484324946  1.0000
  H   H176      1.0  0.4914373642058721  0.13178642427744322  0.6505379297311153  1.0000
  H   H177      1.0  0.7264190172186389  0.4914094988271742  0.6505225872945319  1.0000
  H   H178      1.0  0.8682053360861917  0.5085646376670493  0.34947011991916827  1.0000
  H   H179      1.0  0.5085864570822168  0.273577360260269  0.3494864834237106  1.0000
  H   H180      1.0  0.27368524471812355  0.8682396508065648  0.3496462838970305  1.0000
  H   H181      1.0  0.19338121385120394  0.617999229504626  0.701866058732165  1.0000
  H   H182      1.0  0.4865262606727613  0.19359889963137528  0.7018884652369409  1.0000
  H   H183      1.0  0.6181027180891265  0.48666206246821275  0.701935688121168  1.0000
  H   H184      1.0  0.8063972207794521  0.513472244266161  0.2981167697139002  1.0000
  H   H185      1.0  0.5133320038086778  0.3818943697041419  0.29807160949390277  1.0000
  H   H186      1.0  0.38200058997641423  0.8066106941003354  0.2981436688737206  1.0000
  H   H187      1.0  0.13334898051768107  0.6326696498492195  0.643086811775952  1.0000
  H   H188      1.0  0.5907359858328506  0.13346509037901905  0.6432476030266587  1.0000
  H   H189      1.0  0.6327826464685984  0.5907806975308671  0.6432197515121701  1.0000
  H   H190      1.0  0.8665342448475287  0.40926329418190455  0.35675584758671885  1.0000
  H   H191      1.0  0.4092137830552716  0.3672124076038016  0.35678855007748944  1.0000
  H   H192      1.0  0.3673283829687364  0.8666518694808898  0.35691672802892077  1.0000
  C   C1        1.0  0.8775715399299246  0.12227182126773052  0.32987912495616456  1.0000
  C   C2        1.0  0.6702496567425273  0.8778461806946108  0.32963018206552186  1.0000
  C   C3        1.0  0.12222381269260302  0.670321625033381  0.3298454905024145  1.0000
  C   C4        1.0  0.12215736354475842  0.32974734260018573  0.670374354493653  1.0000
  C   C5        1.0  0.3296683765240189  0.8777865513903576  0.6701533278370564  1.0000
  C   C6        1.0  0.8777291018717436  0.1224322828637126  0.6701180268991892  1.0000
  C   C7        1.0  0.8405317486900685  0.1580989392280471  0.2665262783139186  1.0000
  C   C8        1.0  0.7348122108126418  0.8407369323459121  0.2663109002304227  1.0000
  C   C9        1.0  0.15805994203845586  0.7348755100246718  0.2664951972970686  1.0000
  C   C10       1.0  0.15926644292177636  0.2651854623010194  0.7336931051186684  1.0000
  C   C11       1.0  0.2651174472837496  0.8419488733426305  0.7335046342489308  1.0000
  C   C12       1.0  0.8418997637148778  0.15946755774581306  0.7334741650650755  1.0000
  C   C13       1.0  0.7568920683404913  0.2260827152589825  0.27267255442518484  1.0000
  C   C14       1.0  0.7443845197302891  0.75702786471561  0.2725776298642586  1.0000
  C   C15       1.0  0.22605458944209295  0.7443374689948923  0.27264704032347004  1.0000
  C   C16       1.0  0.24297453507494282  0.2556150331703293  0.7274246395016919  1.0000
  C   C17       1.0  0.2556580990173885  0.7739484753147677  0.7273582405024754  1.0000
  C   C18       1.0  0.7739137716451269  0.243106524821705  0.7273312457315342  1.0000
  C   C19       1.0  0.7128556695215097  0.2515821937616065  0.34526242606325747  1.0000
  C   C20       1.0  0.6903386896212638  0.7130342933583261  0.3452326322371493  1.0000
  C   C21       1.0  0.2515875626221984  0.6901796862394672  0.3452280930649324  1.0000
  C   C22       1.0  0.2869678936671747  0.30966111320237383  0.6547696498939574  1.0000
  C   C23       1.0  0.3098132908702951  0.7484163910734976  0.6547766820384384  1.0000
  C   C24       1.0  0.7484168120609527  0.2871436173171061  0.6547406364222182  1.0000
  C   C25       1.0  0.7531669045959859  0.21031856305793176  0.4068885509384757  1.0000
  C   C26       1.0  0.6297273332223058  0.7533883109911057  0.4068332179268028  1.0000
  C   C27       1.0  0.21029729034970052  0.629541222156838  0.4068599467180435  1.0000
  C   C28       1.0  0.24661463782269524  0.3702703810594697  0.5931699686384918  1.0000
  C   C29       1.0  0.37045032413067963  0.7897099463986166  0.5931423546561306  1.0000
  C   C30       1.0  0.7896842405940915  0.24683443872135766  0.5931089791841446  1.0000
  C   C31       1.0  0.7157558507961284  0.27044114325010316  0.20516579687898695  1.0000
  C   C32       1.0  0.8087112090741257  0.7157903214058549  0.20513299240445093  1.0000
  C   C33       1.0  0.2704071408958059  0.8086225431217212  0.20515900782676522  1.0000
  C   C34       1.0  0.28421275137793595  0.19128760463654262  0.7948689949607158  1.0000
  C   C35       1.0  0.1913760293317779  0.7295939460160168  0.794846910356654  1.0000
  C   C36       1.0  0.7295574657780861  0.2842400638744633  0.794838510181947  1.0000
  C   C37       1.0  0.6878843494546559  0.2220628319999135  0.18961107074440517  1.0000
  C   C38       1.0  0.9005430946323119  0.6878753065131133  0.1895606363153846  1.0000
  C   C39       1.0  0.22203092793932203  0.9004582127865034  0.189598433927877  1.0000
  C   C40       1.0  0.3121260803993522  0.09945677428803626  0.8104418084352931  1.0000
  C   C41       1.0  0.0995386116624033  0.7779700043996198  0.810405102610247  1.0000
  C   C42       1.0  0.7779332676949124  0.31211184753248483  0.8103947161417512  1.0000
  C   C43       1.0  0.652886540036768  0.26319950273604303  0.12278622105878867  1.0000
  C   C44       1.0  0.9612554996038581  0.6527982885246428  0.12278276776526562  1.0000
  C   C45       1.0  0.26319024693961524  0.9611589376084592  0.1228678617054655  1.0000
  C   C46       1.0  0.34720320400436594  0.03874319447290716  0.8772193583091198  1.0000
  C   C47       1.0  0.0388398374278935  0.7368078243780188  0.8771345775855723  1.0000
  C   C48       1.0  0.7367966293725914  0.3471124249268127  0.877219559483038  1.0000
  C   C49       1.0  0.6410379135137135  0.35365092566881606  0.07419038775238813  1.0000
  C   C50       1.0  0.9312340295118631  0.6408937077527384  0.074235173977179  1.0000
  C   C51       1.0  0.3536603556349291  0.9311193787468071  0.07428839606038203  1.0000
  C   C52       1.0  0.359105902785153  0.06876331038940714  0.9257679597784619  1.0000
  C   C53       1.0  0.06887977550557885  0.6463384665170221  0.9257147415593611  1.0000
  C   C54       1.0  0.646346343929352  0.3589608417885727  0.9258142245282528  1.0000
  C   C55       1.0  0.6654518597358889  0.4023647991385742  0.09383047883828499  1.0000
  C   C56       1.0  0.8384544924162969  0.6653424291730797  0.09392205065346103  1.0000
  C   C57       1.0  0.4023450402474822  0.838348693815007  0.09392371753806118  1.0000
  C   C58       1.0  0.3346573220734399  0.16154340438954046  0.9060837292103514  1.0000
  C   C59       1.0  0.16164999954846587  0.5976558951819512  0.9060808651254463  1.0000
  C   C60       1.0  0.5976344887906181  0.3345456120200793  0.9061764877198332  1.0000
  C   C61       1.0  0.7047739575130694  0.36054317506061984  0.1577322310036919  1.0000
  C   C62       1.0  0.7770082611055571  0.7047539985227899  0.15777247591437774  1.0000
  C   C63       1.0  0.3605222774756528  0.776921548810584  0.15776519566438219  1.0000
  C   C64       1.0  0.29524659385355534  0.22299059266104845  0.842232257634983  1.0000
  C   C65       1.0  0.2230793333943666  0.639477902053997  0.842239721878784  1.0000
  C   C66       1.0  0.6394617855369802  0.2952195420388364  0.84227162474636  1.0000
  C   C67       1.0  0.7375644191907754  0.41225073815721186  0.17141084087106853  1.0000
  C   C68       1.0  0.6787963738687  0.737584014648675  0.17145031784699666  1.0000
  C   C69       1.0  0.41232069696027923  0.6787427195553802  0.17141432617111726  1.0000
  C   C70       1.0  0.2624175302411729  0.321202412712246  0.8285523046873354  1.0000
  C   C71       1.0  0.321255311011072  0.5876801513774553  0.8285900973355143  1.0000
  C   C72       1.0  0.5877465088816793  0.26243123142876346  0.8285987522692225  1.0000
  C   C73       1.0  0.6557089473250244  0.4985548889502166  0.04431888509648733  1.0000
  C   C74       1.0  0.8014135434574499  0.6555728773966645  0.04452557948873476  1.0000
  C   C75       1.0  0.4985805718640536  0.801356925370541  0.044537382680751185  1.0000
  C   C76       1.0  0.3444247635519134  0.19858521157981804  0.9554798055817461  1.0000
  C   C77       1.0  0.19863962005101143  0.5014189863143483  0.9554663212558626  1.0000
  C   C78       1.0  0.5014430471441784  0.3442921799782112  0.9556842013662891  1.0000
  C   C79       1.0  0.6227094970236635  0.20893070470566485  0.10988747850333881  1.0000
  C   C80       1.0  0.05864043104383401  0.6226335890130199  0.10982101712264859  1.0000
  C   C81       1.0  0.20902491009959331  0.05857965652034371  0.10993685527862601  1.0000
  C   C82       1.0  0.37736369334411535  0.9413594929055547  0.8901792908023937  1.0000
  C   C83       1.0  0.9414190228910402  0.7909730204987181  0.8900626590098355  1.0000
  C   C84       1.0  0.79106824680958  0.37728928657639943  0.8901154554542573  1.0000
  C   C85       1.0  0.6922641112281624  0.12822759487057306  0.24467085157636606  1.0000
  C   C86       1.0  0.9349332061814266  0.6923203110562142  0.24458055071874438  1.0000
  C   C87       1.0  0.12815371398991002  0.9348835269802647  0.2446188044267147  1.0000
  C   C88       1.0  0.30768274452244543  0.0650678889489383  0.7554194364502608  1.0000
  C   C89       1.0  0.06511125304293593  0.8718447232326766  0.7553866608254015  1.0000
  C   C90       1.0  0.871769109979219  0.3077312993432813  0.7553321096611256  1.0000
  C   C91       1.0  0.14296302359719704  0.8150892397701665  0.9661325657240456  1.0000
  C   C92       1.0  0.07569023986046372  0.14291817925126077  0.9662363058505365  1.0000
  C   C93       1.0  0.8151402282911847  0.07597564618061617  0.9659978860281914  1.0000
  C   C94       1.0  0.8570766212231292  0.9243131678600842  0.033762598919260506  1.0000
  C   C95       1.0  0.9240258215643918  0.1848601894613963  0.03400061966095076  1.0000
  C   C96       1.0  0.1849112492180822  0.8570387903696993  0.03386678198672397  1.0000
  C   C97       1.0  0.217427409225067  0.7377680422048201  0.966105327342952  1.0000
  C   C98       1.0  0.07851545235885032  0.21741655344161603  0.9661770566291498  1.0000
  C   C99       1.0  0.7377876910693929  0.07890736275859205  0.966009461316091  1.0000
  C   C100      1.0  0.7825790329219161  0.9214874338964589  0.03382508089446649  1.0000
  C   C101      1.0  0.9210968007225446  0.26220959138035477  0.03398948253210676  1.0000
  C   C102      1.0  0.262232674254733  0.782575004428935  0.033892670157733625  1.0000
  C   C103      1.0  0.27964271197473783  0.7203575389259026  0.9999995020803284  1.0000
  C   C104      1.0  0.9997756006827105  0.2796664571964482  3.949414413996719e-05  1.0000
  C   C105      1.0  0.7203320849107158  0.00022657434465855113  0.9999590778187085  1.0000
  C   C106      1.0  0.3609652228491456  0.6390343793837585  5.628707101478375e-07  1.0000
  C   C107      1.0  0.9997877675247083  0.36101055952236266  0.9999698953186995  1.0000
  C   C108      1.0  0.6389891280802472  0.0002160854821724304  2.710437343720325e-05  1.0000
  C   C109      1.0  0.43546068898525897  0.6399067745010855  0.9269835505262238  1.0000
  C   C110      1.0  0.9974864959122485  0.4354721398644369  0.926929650854611  1.0000
  C   C111      1.0  0.6398959546486509  0.9977669450606111  0.9270414000019831  1.0000
  C   C112      1.0  0.5645253428067178  0.002517277637551228  0.0730691425509491  1.0000
  C   C113      1.0  0.0022336794428526  0.3601035198187644  0.07295593027124883  1.0000
  C   C114      1.0  0.36009272457222613  0.5645403283443781  0.07301627687314749  1.0000
  C   C115      1.0  0.512081607137965  0.5624653851604575  0.9267490327042016  1.0000
  C   C116      1.0  0.9987162114400406  0.51203549669934  0.9266062923929469  1.0000
  C   C117      1.0  0.5624824034620064  0.9987436648287581  0.9268614184286154  1.0000
  C   C118      1.0  0.48796455136339745  0.001284646168691833  0.07339340746818833  1.0000
  C   C119      1.0  0.0012541630055907002  0.43751944863228676  0.07313738221618857  1.0000
  C   C120      1.0  0.43753615328223816  0.48792059887914246  0.07325514806753128  1.0000
  C   C121      1.0  0.5134520658280124  0.4865498729646376  2.710053720943879e-06  1.0000
  C   C122      1.0  7.999018322398343e-06  0.5134190936344039  0.9998645629828576  1.0000
  C   C123      1.0  0.4865814251269995  0.9999903850823484  0.00013639141202760746  1.0000
  C   C124      1.0  0.5938878534232828  0.5607703107862035  0.8500204754222341  1.0000
  C   C125      1.0  0.9956324327499504  0.5937433856021667  0.8497799983119095  1.0000
  C   C126      1.0  0.5607939271768387  0.9955137048079405  0.8500595396143994  1.0000
  C   C127      1.0  0.4062568531600519  0.004371080639273753  0.15021812900971557  1.0000
  C   C128      1.0  0.004484927336733298  0.43920637199370555  0.14994064546544197  1.0000
  C   C129      1.0  0.43922895111497706  0.40611577130493964  0.1499817557432906  1.0000
  C   C130      1.0  0.42835554130800096  0.7240917987458599  0.8530001830876801  1.0000
  C   C131      1.0  0.9944425566664918  0.42835826889282197  0.8529348229990176  1.0000
  C   C132      1.0  0.7240420157653489  0.994725555938615  0.8530247847911955  1.0000
  C   C133      1.0  0.5716399772574263  0.00556275537546462  0.14706290725608528  1.0000
  C   C134      1.0  0.0052765981399929  0.2759572474194483  0.14697116207027258  1.0000
  C   C135      1.0  0.2759029841785932  0.5716436939780463  0.1470002635690977  1.0000
  C   C136      1.0  0.10177033357782513  0.9770646469179309  0.49069485746397856  1.0000
  C   C137      1.0  0.43049239084061247  0.10175116577362071  0.4907111855541048  1.0000
  C   C138      1.0  0.977123244966137  0.43040565066836906  0.4906709308096996  1.0000
  C   C139      1.0  0.898248026954697  0.5695078886296513  0.5092849237224611  1.0000
  C   C140      1.0  0.5695912671649169  0.02287401072388205  0.509328523969721  1.0000
  C   C141      1.0  0.022940092065447  0.8982334982457018  0.5093027527407373  1.0000
  C   C142      1.0  0.1787264406443185  0.9023214089997749  0.4914649166676884  1.0000
  C   C143      1.0  0.42748959208536524  0.17868685212048518  0.4915022531304133  1.0000
  C   C144      1.0  0.902410060603053  0.42746485141800866  0.49137918551880944  1.0000
  C   C145      1.0  0.8213114831644219  0.5725080520649256  0.5084941166684731  1.0000
  C   C146      1.0  0.5725324078442001  0.09758792989229184  0.5086210372862183  1.0000
  C   C147      1.0  0.09768206393722073  0.821277415412517  0.5085385713251187  1.0000
  C   C148      1.0  0.17787389818297336  0.8221295232649977  0.5000040937777686  1.0000
  C   C149      1.0  0.5000033957089728  0.17778242037931583  0.5000501728059846  1.0000
  C   C150      1.0  0.8222143288696275  0.49999179228581137  0.49995253783247784  1.0000
  C   C151      1.0  0.2587441892881657  0.7412575438501037  0.5000072434185798  1.0000
  C   C152      1.0  0.49998669838203114  0.2586643189186829  0.5000016092295073  1.0000
  C   C153      1.0  0.7413328066496235  0.500007872342266  0.5000056393806106  1.0000
  C   C154      1.0  0.25564678958908627  0.6620470476439306  0.5675815977203061  1.0000
  C   C155      1.0  0.5146145770800814  0.25564537697375295  0.5675895492058987  1.0000
  C   C156      1.0  0.6621719768127933  0.5146681894370387  0.5676599894689359  1.0000
  C   C157      1.0  0.7443499129260404  0.4853807168542158  0.4324176315944471  1.0000
  C   C158      1.0  0.4853262273199874  0.337826992267857  0.4323493830902479  1.0000
  C   C159      1.0  0.3379561076334525  0.7443484055696244  0.43243081127601385  1.0000
  C   C160      1.0  0.33139644001647645  0.583979921107719  0.5646571772723377  1.0000
  C   C161      1.0  0.5198622544105407  0.3313960575111919  0.5646208718067384  1.0000
  C   C162      1.0  0.5840963378737456  0.5198624283973955  0.5648214252893381  1.0000
  C   C163      1.0  0.6686007051846874  0.48013389404266577  0.4353870255862661  1.0000
  C   C164      1.0  0.4801340753564888  0.4159036692080418  0.43518624304874026  1.0000
  C   C165      1.0  0.4160189744546727  0.6686025081605179  0.4353544845755126  1.0000
  C   C166      1.0  0.41333748930581043  0.5866602775088904  0.5000059793327553  1.0000
  C   C167      1.0  0.500038822690108  0.4132941313941529  0.4998562586288883  1.0000
  C   C168      1.0  0.5867033307009137  0.499957261557263  0.5001521731687646  1.0000
  C   C169      1.0  0.3232215001209938  0.5000469815709466  0.6361508256312334  1.0000
  C   C170      1.0  0.5403319362968801  0.3232975083293397  0.6361740581423662  1.0000
  C   C171      1.0  0.5002212673001907  0.5404320807564673  0.6363732347754766  1.0000
  C   C172      1.0  0.6766976393908595  0.45966554306104246  0.36383336088542967  1.0000
  C   C173      1.0  0.45956856535943313  0.49977646640639517  0.36363441264499125  1.0000
  C   C174      1.0  0.4999555834530015  0.6767722943345901  0.36385971911597903  1.0000
  C   C175      1.0  0.17448092486253597  0.6598834725968246  0.6443041946960619  1.0000
  C   C176      1.0  0.5211678018224006  0.17456492348763658  0.644400727436569  1.0000
  C   C177      1.0  0.6600172294303946  0.5212175701840206  0.6444088946534169  1.0000
  C   C178      1.0  0.8254295487008035  0.4788320338388201  0.35560554090876934  1.0000
  C   C179      1.0  0.4787774287312487  0.33997908539353006  0.3555998790410301  1.0000
  C   C180      1.0  0.34011758684877696  0.8255152879187759  0.35570318086054453  1.0000
  I   I1        1.0  0.7755766792225104  0.007016286562823262  0.6130545346921041  1.0000
  I   I2        1.0  0.6045941739853262  0.7751577762443557  0.6128741325191741  1.0000
  I   I3        1.0  0.006919359178475301  0.6043056312327265  0.613010385807229  1.0000
  I   I4        1.0  0.22484248805130855  0.3954152220251925  0.38711984868207605  1.0000
  I   I5        1.0  0.3956879300366793  0.9930770922299242  0.38699435277113303  1.0000
  I   I6        1.0  0.9929787097837137  0.22443007694818085  0.38691305328413256  1.0000
  I   I7        1.0  0.06081553060196399  0.060843205408325184  0.8176690664526661  1.0000
  I   I8        1.0  0.9391456709045231  0.9391863468662434  0.18232990185281023  1.0000
  N   N1        1.0  0.8349528739720354  0.14805277747145598  0.3986500348368409  1.0000
  N   N2        1.0  0.6184040059484134  0.8352107774437555  0.39849065340587264  1.0000
  N   N3        1.0  0.14799157373819585  0.6183480533054322  0.39862396252575394  1.0000
  N   N4        1.0  0.1647924614860301  0.3815908828909329  0.6015123955629137  1.0000
  N   N5        1.0  0.3816424687759438  0.8520158091539468  0.6013773202061544  1.0000
  N   N6        1.0  0.8519520318624674  0.1650501212939232  0.60134330475875  1.0000
  N   N7        1.0  0.02505149611726411  0.974953233320569  0.4999976655129717  1.0000
  N   N8        1.0  0.5000605064522006  0.025029193923287996  0.4999872330716288  1.0000
  N   N9        1.0  0.9749703545174527  0.49993892968705445  0.5000070954232071  1.0000
  N   N10       1.0  0.1264618231120807  0.8735379040232443  1.52254521949271e-07  1.0000
  N   N11       1.0  0.9998722307141535  0.12641388362010983  0.0001367772217335617  1.0000
  N   N12       1.0  0.8735834842327961  0.00012978550856938755  0.9998635206340086  1.0000
