data_image0
_chemical_formula_structural       Na2Ca2P4H34C24O42
_chemical_formula_sum              "Na2 Ca2 P4 H34 C24 O42"
_cell_length_a       7.916412254
_cell_length_b       11.795362657182013
_cell_length_c       13.2329
_cell_angle_alpha    106.89292927049617
_cell_angle_beta     90.0
_cell_angle_gamma    109.60706216947432

_space_group_name_H-M_alt    "P 1"
_space_group_IT_number       1

loop_
  _space_group_symop_operation_xyz
  'x, y, z'

loop_
  _atom_site_type_symbol
  _atom_site_label
  _atom_site_symmetry_multiplicity
  _atom_site_fract_x
  _atom_site_fract_y
  _atom_site_fract_z
  _atom_site_occupancy
  Na  Na1       1.0  4.7304893509999993e-07  9.461130759e-07  0.5000002450592973  1.0000
  Na  Na2       1.0  0.9999995055999731  0.9999989434755321  0.999998592803905  1.0000
  Ca  Ca1       1.0  0.37387406562305603  2.8383392205e-06  0.2500955745554947  1.0000
  Ca  Ca2       1.0  0.6261225964793198  0.9999979973624563  0.7499050197515088  1.0000
  P   P1        1.0  0.24382815441145303  0.8246151247236568  0.40619557675724116  1.0000
  P   P2        1.0  0.5806967370264073  0.8247390655362707  0.9061490875305861  1.0000
  P   P3        1.0  0.7561722972863903  0.1753857109780199  0.593805017549755  1.0000
  P   P4        1.0  0.4193027685735656  0.1752598779392613  0.09385101665782258  1.0000
  H   H1        1.0  0.4631553905462908  0.6912179119422817  0.339963310989141  1.0000
  H   H2        1.0  0.22786708046280774  0.6915414826133812  0.8399398129679837  1.0000
  H   H3        1.0  0.5368447440509312  0.3087848159855398  0.66003777343645  1.0000
  H   H4        1.0  0.7721333712350429  0.3084593530882955  0.1600607813390127  1.0000
  H   H5        1.0  0.3519418607088197  0.6371844482084157  0.969754805789698  1.0000
  H   H6        1.0  0.2845400534397271  0.6370453695866303  0.46976336791631457  1.0000
  H   H7        1.0  0.648059537086894  0.3628182797194057  0.030245522943637592  1.0000
  H   H8        1.0  0.7154575547605189  0.36295735834119824  0.5302362051247725  1.0000
  H   H9        1.0  0.7500516004348723  0.7768941274153819  0.05361860075659307  1.0000
  H   H10       1.0  0.026843735524295226  0.7767295037406186  0.553702916737727  1.0000
  H   H11       1.0  0.24994616891768112  0.2231038699470744  0.9463805026802701  1.0000
  H   H12       1.0  0.973159398518838  0.2232741703002787  0.446297657054906  1.0000
  H   H13       1.0  0.5000017524352671  0.0  0.49999924430774456  1.0000
  H   H14       1.0  0.4999990163631977  0.9999989434755321  1.0418840899876699e-07  1.0000
  H   H15       1.0  0.7257805376367299  0.9628677897976132  0.2927017266496249  1.0000
  H   H16       1.0  0.23705136070316965  0.9627107350274358  0.7929104252499142  1.0000
  H   H17       1.0  0.2742147053188403  0.037130207564843  0.7072973767872384  1.0000
  H   H18       1.0  0.7629430921028444  0.0372882084480963  0.2070896789384946  1.0000
  H   H19       1.0  0.7673863433134895  0.5676366222972433  0.21463247410407146  1.0000
  H   H20       1.0  0.7999284313780348  0.5675751249474743  0.7147193193962095  1.0000
  H   H21       1.0  0.23261079183782127  0.4323651595175093  0.7853676095699667  1.0000
  H   H22       1.0  0.20007328351830006  0.43242571075420244  0.2852782521417864  1.0000
  H   H23       1.0  0.8989672149003379  0.6324595595199511  0.3385723160406896  1.0000
  H   H24       1.0  0.7331650834363828  0.6325560630534356  0.8386290511632736  1.0000
  H   H25       1.0  0.10103102750114347  0.3675393839555809  0.6614270324554707  1.0000
  H   H26       1.0  0.2668350563648261  0.3674390959698002  0.1613678057112082  1.0000
  H   H27       1.0  0.1283276225778991  0.5857404959563937  0.20765152825252636  1.0000
  H   H28       1.0  0.45695372593767997  0.585793478288501  0.7075806140407861  1.0000
  H   H29       1.0  0.8716744094190498  0.4142584475191384  0.7923515987048899  1.0000
  H   H30       1.0  0.5430483060592763  0.41420546518703116  0.29241722307087054  1.0000
  H   H31       1.0  0.9778314104713599  0.5552520021666822  0.09674079179669087  1.0000
  H   H32       1.0  0.5769857074688431  0.5552217265483392  0.5967155689774798  1.0000
  H   H33       1.0  0.022171094574524392  0.4447478874219186  0.9032603131432708  1.0000
  H   H34       1.0  0.42301695352535507  0.44478100137948934  0.40328249267909644  1.0000
  C   C1        1.0  0.722851874612189  0.7287568403548264  0.3172711094600587  1.0000
  C   C2        1.0  0.005474127995448419  0.7288457749837249  0.8172699628816529  1.0000
  C   C3        1.0  0.2771507863820162  0.2712458875729951  0.6827284635810286  1.0000
  C   C4        1.0  0.9945219051096783  0.2711512762656625  0.18272662841916798  1.0000
  C   C5        1.0  0.8474066519080096  0.6572023086150126  0.27372915134867526  1.0000
  C   C6        1.0  0.8094094906052618  0.6571919013712062  0.7737287227731925  1.0000
  C   C7        1.0  0.15259332674090587  0.3427975809735884  0.7262696865145271  1.0000
  C   C8        1.0  0.19058701554880025  0.34280609599125  0.22627113635592616  1.0000
  C   C9        1.0  0.007625901784017177  0.7275912290484214  0.2231605830293261  1.0000
  C   C10       1.0  0.7196478271424451  0.7275278394725078  0.7230806859074548  1.0000
  C   C11       1.0  0.9923724965657852  0.2724105527663312  0.7768387449524636  1.0000
  C   C12       1.0  0.2803491520605518  0.2724711040030243  0.2769194182809542  1.0000
  C   C13       1.0  0.0851724194698633  0.6304093324899327  0.15526047620168268  1.0000
  C   C14       1.0  0.5448803337805685  0.6304339314298417  0.6552154606701988  1.0000
  C   C15       1.0  0.9148300855760282  0.3695905570986682  0.8447406287382788  1.0000
  C   C16       1.0  0.45512264431425814  0.369566904271835  0.3447858893290529  1.0000
  C   C17       1.0  0.24300013184714683  0.6831409446348289  0.09797220027948579  1.0000
  C   C18       1.0  0.4398547282888146  0.6832071725499702  0.5978722221310377  1.0000
  C   C19       1.0  0.7570085280388809  0.3168636755191443  0.9020308856491963  1.0000
  C   C20       1.0  0.5601435141126669  0.31679177092556193  0.402129393441882  1.0000
  C   C21       1.0  0.9490648296085878  0.7935182802277653  0.1515223128568408  1.0000
  C   C22       1.0  0.8442590029813102  0.793266614150248  0.651376268013635  1.0000
  C   C23       1.0  0.050935310192627994  0.20647687879547053  0.8484752997098892  1.0000
  C   C24       1.0  0.1557447652630657  0.20673327543836004  0.34862408123407107  1.0000
  O   O1        1.0  0.7731676818901646  0.8448392377802493  0.35722135777172775  1.0000
  O   O2        1.0  0.07106213493754851  0.8449688552713042  0.8573063179681595  1.0000
  O   O3        1.0  0.22683324285661396  0.1551625440345035  0.6427787259023174  1.0000
  O   O4        1.0  0.9289397359071002  0.1550348187695931  0.14268972167096183  1.0000
  O   O5        1.0  0.5543183766438273  0.6503335277022657  0.3080849572813448  1.0000
  O   O6        1.0  0.09582201505340748  0.6505568103875846  0.808012812207444  1.0000
  O   O7        1.0  0.4456863376984187  0.3496682541124869  0.6919143707004521  1.0000
  O   O8        1.0  0.9041776464948794  0.3494449714271681  0.19198878285109794  1.0000
  O   O9        1.0  0.34234443915420326  0.7951228880002219  0.12176994303219148  1.0000
  O   O10       1.0  0.45293802823861984  0.7952250682121403  0.62142687592479  1.0000
  O   O11       1.0  0.6576536472989641  0.2048732171360896  0.8782332044395955  1.0000
  O   O12       1.0  0.5470583167631347  0.2047776597156812  0.3785749641930493  1.0000
  O   O13       1.0  0.264799760376512  0.5940625065498537  0.016154129027832132  1.0000
  O   O14       1.0  0.32851932340462037  0.5940019553131535  0.516277492607351  1.0000
  O   O15       1.0  0.7352032177183146  0.40593832915182304  0.9838472209714195  1.0000
  O   O16       1.0  0.6714793920457964  0.4059979342754474  0.48372361233260347  1.0000
  O   O17       1.0  0.051028793710543086  0.8949766078779363  0.14203179933718243  1.0000
  O   O18       1.0  0.8435178042675557  0.8945697792563791  0.6416037432491207  1.0000
  O   O19       1.0  0.9489710289900513  0.1050204433714512  0.8579655476558867  1.0000
  O   O20       1.0  0.1564805940822467  0.1054320025583735  0.3583955847326692  1.0000
  O   O21       1.0  0.7873121715378204  0.727969674277773  0.10180374802366991  1.0000
  O   O22       1.0  0.9407509531738609  0.7278041044899339  0.6019104897130558  1.0000
  O   O23       1.0  0.21269065060868533  0.2720283230846832  0.8981953554131933  1.0000
  O   O24       1.0  0.05925249796989359  0.2721976773248187  0.3980895939609822  1.0000
  O   O25       1.0  0.14538550755303697  0.82876288443736  0.2994333880509074  1.0000
  O   O26       1.0  0.6831804121330265  0.8287770761334556  0.7993335341018122  1.0000
  O   O27       1.0  0.8546144710958712  0.171237005151248  0.7005669611967987  1.0000
  O   O28       1.0  0.3168195665158819  0.1712228134551452  0.20066681514589385  1.0000
  O   O29       1.0  0.4157832395509827  0.9401610760364676  0.41426553479308825  1.0000
  O   O30       1.0  0.5245162099451689  0.9403871970610069  0.914234932278674  1.0000
  O   O31       1.0  0.5842180022964172  0.0598388135521333  0.5857333030701142  1.0000
  O   O32       1.0  0.47547982315995785  0.0596098541883734  0.08576392609889888  1.0000
  O   O33       1.0  0.275341073483922  0.6991293094618953  0.3817074994143041  1.0000
  O   O34       1.0  0.4234815532841977  0.6993847599917089  0.8817540174251872  1.0000
  O   O35       1.0  0.7246581150154296  0.3008715262397815  0.6182930948926922  1.0000
  O   O36       1.0  0.5765192155142669  0.3006141834838232  0.11824608676322157  1.0000
  O   O37       1.0  0.1276172334152434  0.8489236079180387  0.49484042558331237  1.0000
  O   O38       1.0  0.7211883241701215  0.8489775363632148  0.9947931828906815  1.0000
  O   O39       1.0  0.8723854275789547  0.1510791200097898  0.5051599031500231  1.0000
  O   O40       1.0  0.2788099182313672  0.1510214071123102  0.005206921297734396  1.0000
  O   O41       1.0  0.6729694992809241  0.00018543816238290002  0.24998266424186968  1.0000
  O   O42       1.0  0.32702858196825696  0.9998182358785145  0.7500201766275152  1.0000
