data_image0
_chemical_formula_structural       Cu2P6H38C28N2O20
_chemical_formula_sum              "Cu2 P6 H38 C28 N2 O20"
_cell_length_a       9.689704655852607
_cell_length_b       9.837135027657785
_cell_length_c       10.330959595378225
_cell_angle_alpha    81.37250179432115
_cell_angle_beta     71.42225754648295
_cell_angle_gamma    87.80051122993115

_space_group_name_H-M_alt    "P 1"
_space_group_IT_number       1

loop_
  _space_group_symop_operation_xyz
  'x, y, z'

loop_
  _atom_site_type_symbol
  _atom_site_label
  _atom_site_symmetry_multiplicity
  _atom_site_fract_x
  _atom_site_fract_y
  _atom_site_fract_z
  _atom_site_occupancy
  Cu  Cu1       1.0  0.27003409777783816  0.8400591795350397  0.017981645012198965  1.0000
  Cu  Cu2       1.0  0.7299655453306144  0.15994163592205274  0.9820182289840673  1.0000
  P   P1        1.0  0.33660188935844093  0.011805319567287106  0.6912882744050394  1.0000
  P   P2        1.0  0.6633966105722279  0.9881996569152278  0.30871514964543695  1.0000
  P   P3        1.0  0.14548191106944589  0.1409648162427644  0.08493401155291741  1.0000
  P   P4        1.0  0.8545241820765951  0.8590329420758565  0.9150664722674053  1.0000
  P   P5        1.0  0.6782135293995992  0.4126067082092888  0.17283683095529065  1.0000
  P   P6        1.0  0.3217839581493465  0.5873961626034969  0.8271633269973293  1.0000
  H   H1        1.0  0.2276855552093124  0.37265447211219543  0.9297933007690632  1.0000
  H   H2        1.0  0.7723228035179516  0.6273494440003589  0.0702046333972533  1.0000
  H   H3        1.0  0.9217656406368915  0.08734048150117253  0.0892683130159498  1.0000
  H   H4        1.0  0.07823746475755657  0.9126674715738688  0.9107246534557378  1.0000
  H   H5        1.0  0.5651490444536762  0.06662055416540372  0.5668288129032819  1.0000
  H   H6        1.0  0.4348494798555436  0.933384410107628  0.4331736379557328  1.0000
  H   H7        1.0  0.3077980151321142  0.40115010343314594  0.1389012201020776  1.0000
  H   H8        1.0  0.6921993213756252  0.5988476753681127  0.861103638432759  1.0000
  H   H9        1.0  0.9062796433397152  0.4838883568249629  0.3159121966924446  1.0000
  H   H10       1.0  0.0937319772387752  0.5161010931284126  0.6840812495865835  1.0000
  H   H11       1.0  0.0258519572319997  0.31568098380741116  0.20723823148301077  1.0000
  H   H12       1.0  0.9741520856063917  0.6843218777481398  0.7927591320294455  1.0000
  H   H13       1.0  0.9872820954197792  0.15454947322461982  0.3131877580840553  1.0000
  H   H14       1.0  0.012713375103359691  0.8454522829678622  0.6868063561744934  1.0000
  H   H15       1.0  0.11722046646482906  0.1324790767355424  0.7109905506296458  1.0000
  H   H16       1.0  0.8827747905868363  0.8675186522437247  0.28901102222224034  1.0000
  H   H17       1.0  0.2546000775688952  0.23663473699636486  0.7244918989905287  1.0000
  H   H18       1.0  0.7453940743567031  0.763366100419482  0.27551143909591513  1.0000
  H   H19       1.0  0.18442220217097116  0.6440036855779  0.5157329350821414  1.0000
  H   H20       1.0  0.8155872307318289  0.35598473522151153  0.4842612798430608  1.0000
  H   H21       1.0  0.040619333989908996  0.6324113067129746  0.10282307898751948  1.0000
  H   H22       1.0  0.9593826371300409  0.3675946017397322  0.8971714873436271  1.0000
  H   H23       1.0  0.29944810328474597  0.7948260481916236  0.29447618381705365  1.0000
  H   H24       1.0  0.7005483522737991  0.20517989442930684  0.7055228197957248  1.0000
  H   H25       1.0  0.6934027233510773  0.23460428577281797  0.3378885310231895  1.0000
  H   H26       1.0  0.30658923496329743  0.7653996595875654  0.6621168758392528  1.0000
  H   H27       1.0  0.5175395439009733  0.5627143939333906  0.31353021078530935  1.0000
  H   H28       1.0  0.48245474539267247  0.4372925758733572  0.6864692383471009  1.0000
  H   H29       1.0  0.48173896127335064  0.5607396239862299  0.1556763291395384  1.0000
  H   H30       1.0  0.5182519067537683  0.4392570870644691  0.8443275926328796  1.0000
  H   H31       1.0  0.08390766528044218  0.11237446488071612  0.49395313787270123  1.0000
  H   H32       1.0  0.9160919243010212  0.8876212097269303  0.5060475439399356  1.0000
  H   H33       1.0  0.4358300389046689  0.35871077877875024  0.5050184993737973  1.0000
  H   H34       1.0  0.5641673190138619  0.6412890563622755  0.49498603603449726  1.0000
  H   H35       1.0  0.47427475095111027  0.9382596457281807  0.11392632631680044  1.0000
  H   H36       1.0  0.5257296867140439  0.06174818574412912  0.8860566046988156  1.0000
  H   H37       1.0  0.5710646750515592  0.8187198226160818  0.04845369348365836  1.0000
  H   H38       1.0  0.4289379391675538  0.18127390701319973  0.951555159554346  1.0000
  C   C1        1.0  0.185411228274873  0.25108542121616045  0.30785036903834145  1.0000
  C   C2        1.0  0.8145895033187286  0.7489153947329684  0.6921492014164772  1.0000
  C   C3        1.0  0.295455973800955  0.35029264725517356  0.24331214476950447  1.0000
  C   C4        1.0  0.7045381596816044  0.649704065271635  0.7566908663785696  1.0000
  C   C5        1.0  0.9943863052908734  0.5479913649804048  0.31765382676471904  1.0000
  C   C6        1.0  0.005618862282268796  0.45200321066069915  0.6823396597551722  1.0000
  C   C7        1.0  0.03557286920389659  0.5467049691071255  0.4361158810796653  1.0000
  C   C8        1.0  0.9644365821419355  0.45328757658131025  0.5638786607839066  1.0000
  C   C9        1.0  0.38638316845396037  0.38894188850109407  0.3130610978940283  1.0000
  C   C10       1.0  0.613615250603402  0.6110600278907087  0.686944757229192  1.0000
  C   C11       1.0  0.07618394952002211  0.22019080817545242  0.2403167706398435  1.0000
  C   C12       1.0  0.9238145807247234  0.7798100189990791  0.7596843800893397  1.0000
  C   C13       1.0  0.2320719974511576  0.16394470720594972  0.6624824819268156  1.0000
  C   C14       1.0  0.7679232215487913  0.8360540743621604  0.33752087574472267  1.0000
  C   C15       1.0  0.1471746100934794  0.6376963712390094  0.42793372388499057  1.0000
  C   C16       1.0  0.8528293821856892  0.36229928091785274  0.5720637973789238  1.0000
  C   C17       1.0  0.06788262743039299  0.6323819515877035  0.19709631902793492  1.0000
  C   C18       1.0  0.9321214290811568  0.3676198695884808  0.8029002328563309  1.0000
  C   C19       1.0  0.21284193135485907  0.7225861574128914  0.3051682706509808  1.0000
  C   C20       1.0  0.7871577712161011  0.27741566179513905  0.6948294953990911  1.0000
  C   C21       1.0  0.5046955263797982  0.4951473434540788  0.24235957264753702  1.0000
  C   C22       1.0  0.4953008025160912  0.5048534949458414  0.7576431583560038  1.0000
  C   C23       1.0  0.2591524703686119  0.22641689131354786  0.514784974185787  1.0000
  C   C24       1.0  0.7408525390621462  0.7735860317814274  0.4852169517425367  1.0000
  C   C25       1.0  0.1707934211355209  0.18813552978812714  0.4421185566558351  1.0000
  C   C26       1.0  0.8291974070377748  0.8118550000337591  0.5578853613047702  1.0000
  C   C27       1.0  0.3669290150021993  0.32695589400935904  0.44914964121878154  1.0000
  C   C28       1.0  0.6330618666980784  0.673039776661966  0.5508534689254532  1.0000
  N   N1        1.0  0.17507260696488197  0.7178836416403983  0.19144787115798323  1.0000
  N   N2        1.0  0.8249237920989144  0.2821192286803438  0.8085525903360847  1.0000
  O   O1        1.0  0.19681237879290592  0.9971437340514697  0.12346606562154962  1.0000
  O   O2        1.0  0.8031947969027511  0.0028581618576951034  0.8765354147871565  1.0000
  O   O3        1.0  0.2585496465655481  0.23694983754322863  0.9750489271697234  1.0000
  O   O4        1.0  0.7414639732321715  0.7630531383259723  0.02495446319286304  1.0000
  O   O5        1.0  0.33500659811375033  0.9111649574222013  0.5913689720612824  1.0000
  O   O6        1.0  0.6649918774383606  0.08884003126978261  0.40863542518064855  1.0000
  O   O7        1.0  0.009881276940546996  0.1412332446167568  0.028661309309399002  1.0000
  O   O8        1.0  0.9901304263133567  0.8587664992449788  0.97133149452835  1.0000
  O   O9        1.0  0.26611612228786896  0.9553172674270913  0.843446334839719  1.0000
  O   O10       1.0  0.7338867529941878  0.0446897673633586  0.1565555519184089  1.0000
  O   O11       1.0  0.4987109321526547  0.05923264409874921  0.6669529338511566  1.0000
  O   O12       1.0  0.501287715851454  0.9407794929445431  0.3330464396820077  1.0000
  O   O13       1.0  0.7254748084459165  0.3358623674723731  0.296968533694603  1.0000
  O   O14       1.0  0.2745193999744302  0.6641415422436552  0.7030333465105515  1.0000
  O   O15       1.0  0.6577865474794037  0.3217164891839276  0.07479690219456364  1.0000
  O   O16       1.0  0.34220974930029513  0.678281264706328  0.9252063134987979  1.0000
  O   O17       1.0  0.7991097029251008  0.5257080458527312  0.10767058164469034  1.0000
  O   O18       1.0  0.20089120822166953  0.4742864789823003  0.892320226275146  1.0000
  O   O19       1.0  0.47192795406887456  0.858830057671  0.06860781931438008  1.0000
  O   O20       1.0  0.5280734937595496  0.1411585428262826  0.931403118272904  1.0000
