data_image0
_chemical_formula_structural       Cd3H46C62N6O16
_chemical_formula_sum              "Cd3 H46 C62 N6 O16"
_cell_length_a       8.241273713918831
_cell_length_b       12.6472126102846
_cell_length_c       14.299
_cell_angle_alpha    98.71073018559672
_cell_angle_beta     97.47256124265358
_cell_angle_gamma    93.32706314127378

_space_group_name_H-M_alt    "P 1"
_space_group_IT_number       1

loop_
  _space_group_symop_operation_xyz
  'x, y, z'

loop_
  _atom_site_type_symbol
  _atom_site_label
  _atom_site_symmetry_multiplicity
  _atom_site_fract_x
  _atom_site_fract_y
  _atom_site_fract_z
  _atom_site_occupancy
  Cd  Cd1       1.0  0.5000011566881568  8.024424574e-07  0.999999809546054  1.0000
  Cd  Cd2       1.0  0.5024502776766298  0.6888246320713591  0.44410546383429755  1.0000
  Cd  Cd3       1.0  0.4975512360724252  0.3111751493433133  0.55589448047985  1.0000
  H   H1        1.0  0.4999387017704038  0.34532389067021546  0.2079377212658855  1.0000
  H   H2        1.0  0.500060364382513  0.654675890744457  0.7920620395874209  1.0000
  H   H3        1.0  0.2628212776083814  0.6119755201215469  0.1138259944266267  1.0000
  H   H4        1.0  0.7371777885445355  0.3880242612931327  0.8861744657762856  1.0000
  H   H5        1.0  0.26437143204180563  0.3174301883188591  0.9169142132419594  1.0000
  H   H6        1.0  0.7356289552777326  0.6825703955382778  0.08308575412825552  1.0000
  H   H7        1.0  0.2756596004046585  0.6678255153361476  0.9584608166264772  1.0000
  H   H8        1.0  0.7243406895463309  0.3321742660785247  0.04153833660764406  1.0000
  H   H9        1.0  0.0832354498576606  0.6434866330824961  1.7846596833213427e-05  1.0000
  H   H10       1.0  0.91676474272478  0.3565123458897191  0.999981891200413  1.0000
  H   H11       1.0  0.962224558904559  0.7832624803014809  0.9206188105039742  1.0000
  H   H12       1.0  0.03777705221305179  0.2167381035556559  0.079381947946267  1.0000
  H   H13       1.0  0.7937164585424625  0.8181414442669636  0.7711140170185969  1.0000
  H   H14       1.0  0.20628392877707574  0.18185913959016636  0.2288859503516179  1.0000
  H   H15       1.0  0.9751906842069433  0.5453816228102681  0.61183129601622  1.0000
  H   H16       1.0  0.024808381945973696  0.4546181586044042  0.3881691641866851  1.0000
  H   H17       1.0  0.1485172711361216  0.5129741816215231  0.7598750977545237  1.0000
  H   H18       1.0  0.8514816976482464  0.487024797350692  0.2401245483122949  1.0000
  H   H19       1.0  0.14518091644784906  0.0526313985076214  0.04909517157751251  1.0000
  H   H20       1.0  0.8548206946697547  0.9473691853495084  0.9509041881735172  1.0000
  H   H21       1.0  0.9217238362758026  0.9912363073092365  0.1342483225017688  1.0000
  H   H22       1.0  0.07827890127133229  0.008763474105443  0.8657510141932008  1.0000
  H   H23       1.0  0.24006478958786912  0.753326561889466  0.2265268301480674  1.0000
  H   H24       1.0  0.7599368215297418  0.24667402196766375  0.7734732289525682  1.0000
  H   H25       1.0  0.44192228985394166  0.8210767787855744  0.13150027679040477  1.0000
  H   H26       1.0  0.5580793212636692  0.1789238050715625  0.8684997823102307  1.0000
  H   H27       1.0  0.04070860384273801  0.6801189338230389  0.2691034167397532  1.0000
  H   H28       1.0  0.9592929099063242  0.3198808475916337  0.7308944295255841  1.0000
  H   H29       1.0  0.8290334309206813  0.6306940953854934  0.3675432429314966  1.0000
  H   H30       1.0  0.1709704330559774  0.3693048835867145  0.6324553713578068  1.0000
  H   H31       1.0  0.591572601253354  0.9051358362383084  0.33602070971709  1.0000
  H   H32       1.0  0.4084276886976355  0.094863945176364  0.6639826396146589  1.0000
  H   H33       1.0  0.7918455345195242  0.9692068544554078  0.2410364429126872  1.0000
  H   H34       1.0  0.2081545606943678  0.030791322074350102  0.758963879447677  1.0000
  H   H35       1.0  0.41663050114039624  0.9301872873964214  0.396984536167558  1.0000
  H   H36       1.0  0.5833673412144478  0.06981249401825101  0.6030151329553207  1.0000
  H   H37       1.0  0.2115255770375057  0.05986381239942061  0.4151438616112415  1.0000
  H   H38       1.0  0.7884746155449348  0.9401351665727945  0.5848565755356105  1.0000
  H   H39       1.0  0.9685972020731269  0.8447071043470586  0.5728923441051066  1.0000
  H   H40       1.0  0.0314032826149599  0.1552942819525356  0.42710913675080064  1.0000
  H   H41       1.0  0.1906072701810686  0.7234917512274138  0.5478197389717323  1.0000
  H   H42       1.0  0.8093943409365423  0.2765088326297231  0.4521817188281148  1.0000
  H   H43       1.0  0.3025406649632814  0.5148286261465387  0.49542811018910266  1.0000
  H   H44       1.0  0.6974596249877084  0.4851711552681409  0.5045724417442301  1.0000
  H   H45       1.0  0.40359223556196616  0.5703512248374665  0.5899229857840709  1.0000
  H   H46       1.0  0.5964068305909508  0.4296485565772059  0.4100774744188413  1.0000
  C   C1        1.0  0.4238856596146476  0.20540440625089934  0.0412687054639562  1.0000
  C   C2        1.0  0.5761110563106797  0.7945961776062377  0.9587309867149898  1.0000
  C   C3        1.0  0.3855357248835248  0.319908933077734  0.060612392634261894  1.0000
  C   C4        1.0  0.6144609910417955  0.680091650779403  0.9393859008454725  1.0000
  C   C5        1.0  0.43153784853380733  0.3805302511593781  0.1516933607787294  1.0000
  C   C6        1.0  0.5684572541192523  0.6194671229279152  0.8483050811742457  1.0000
  C   C7        1.0  0.4206172187691806  0.5481989982872619  0.268838119829212  1.0000
  C   C8        1.0  0.579383071181809  0.4518007831274105  0.7311624321041208  1.0000
  C   C9        1.0  0.3833712678850247  0.48472258993300704  0.1702731470866894  1.0000
  C   C10       1.0  0.6166250585661004  0.5152747841542863  0.829726785295918  1.0000
  C   C11       1.0  0.2981430670051708  0.5306086571220376  0.09702551455525568  1.0000
  C   C12       1.0  0.7018547753496736  0.4693911242926347  0.9029748539172359  1.0000
  C   C13       1.0  0.2593796046584202  0.4713177886390483  0.005218385104207397  1.0000
  C   C14       1.0  0.7406170138983511  0.5286819927756312  0.9947825909874624  1.0000
  C   C15       1.0  0.2996848235207068  0.3648890427294518  0.9876184389258071  1.0000
  C   C16       1.0  0.7003118924046208  0.6351115411276852  0.012380553903533114  1.0000
  C   C17       1.0  0.154870894591042  0.6214226752028865  0.9409030456132257  1.0000
  C   C18       1.0  0.8451292006228499  0.37857550132686413  0.059095878047926875  1.0000
  C   C19       1.0  0.06399735985134208  0.6451508987444967  0.8495414852853359  1.0000
  C   C20       1.0  0.9360053776957856  0.35484888267018283  0.1504578514096266  1.0000
  C   C21       1.0  0.9684873723912804  0.7332125391876119  0.8520894244589883  1.0000
  C   C22       1.0  0.0315129175597093  0.2667872422270605  0.1479111274743445  1.0000
  C   C23       1.0  0.8743408898524194  0.7527913327686591  0.7693952115705897  1.0000
  C   C24       1.0  0.12565940009856294  0.2472084486460133  0.23060534036274297  1.0000
  C   C25       1.0  0.8729574227094616  0.6834274040855348  0.6829248077952457  1.0000
  C   C26       1.0  0.1270404196453825  0.3165723773291376  0.3170755606772389  1.0000
  C   C27       1.0  0.9742199169074794  0.5979255550897592  0.6796011093817073  1.0000
  C   C28       1.0  0.0257791492454373  0.40207422632492046  0.3203986514715993  1.0000
  C   C29       1.0  0.0703203863533091  0.5795407958891587  0.7621143500420047  1.0000
  C   C30       1.0  0.9296799035976804  0.42045898552552075  0.23788550254172242  1.0000
  C   C31       1.0  0.7555386293681252  0.6962239539948385  0.5975812134114946  1.0000
  C   C32       1.0  0.24446043678479162  0.303775827419841  0.4024192467914176  1.0000
  C   C33       1.0  0.1588329960453265  0.9858639550396691  0.0888802514650564  1.0000
  C   C34       1.0  0.841167683379858  0.014139036144847203  0.9111214589638266  1.0000
  C   C35       1.0  0.035660303416598524  0.9516847208992802  0.13765002679367203  1.0000
  C   C36       1.0  0.9643399865343911  0.0483150605153924  0.8623491264404493  1.0000
  C   C37       1.0  0.0603960632175244  0.8667662475719099  0.1894586360616444  1.0000
  C   C38       1.0  0.9396053531629889  0.1332327314003052  0.8105404941164167  1.0000
  C   C39       1.0  0.20988869178954417  0.8191180167407595  0.18755085304504596  1.0000
  C   C40       1.0  0.7901128219595179  0.1808817646739129  0.8124483919194957  1.0000
  C   C41       1.0  0.3251989538746116  0.8569924984093548  0.1353361442240839  1.0000
  C   C42       1.0  0.6748038810410719  0.1430080854477822  0.8646626079077677  1.0000
  C   C43       1.0  0.9360778130612957  0.8303096817300998  0.24563027680039798  1.0000
  C   C44       1.0  0.06392247688969381  0.16969009968457271  0.7543688764337304  1.0000
  C   C45       1.0  0.9437761265407474  0.7333914838561881  0.28218436141905556  1.0000
  C   C46       1.0  0.0562253872083147  0.2666082975584914  0.7178155828950921  1.0000
  C   C47       1.0  0.8253921797550062  0.70438639869775  0.3367526492086697  1.0000
  C   C48       1.0  0.174605565231289  0.2956125802744651  0.6632462057781225  1.0000
  C   C49       1.0  0.6925961063578114  0.8568472563240946  0.32009480108646227  1.0000
  C   C50       1.0  0.307404183593178  0.14315252509057794  0.6799071495460751  1.0000
  C   C51       1.0  0.8057695062617755  0.8926129192078636  0.2658729986570449  1.0000
  C   C52       1.0  0.1942320074872868  0.107386862206809  0.7341297430555258  1.0000
  C   C53       1.0  0.31521491053770495  0.9131369900067696  0.43547228177932606  1.0000
  C   C54       1.0  0.6847829318171392  0.08686279140790283  0.5645280866931657  1.0000
  C   C55       1.0  0.1968791882308381  0.9861223415117808  0.44521652642939097  1.0000
  C   C56       1.0  0.8031197805535302  0.0138766374604344  0.5547831196374347  1.0000
  C   C57       1.0  0.0656460072633536  0.9631941531027763  0.4944346381084729  1.0000
  C   C58       1.0  0.9343555064857085  0.036805628311896  0.5055667049048864  1.0000
  C   C59       1.0  0.06515654726990759  0.8675622704922078  0.5329740505708287  1.0000
  C   C60       1.0  0.9348437426810821  0.1324375109224647  0.4670272007121099  1.0000
  C   C61       1.0  0.18892553384413446  0.7989911549595448  0.519757409502553  1.0000
  C   C62       1.0  0.8110735323087824  0.2010086264551276  0.48024375004996506  1.0000
  N   N1        1.0  0.3012112595695342  0.9394426587298312  0.08713296457734288  1.0000
  N   N2        1.0  0.6987879039519314  0.0605579251273056  0.9128662117128385  1.0000
  N   N3        1.0  0.7008043269243843  0.7647364912279218  0.355884113379723  1.0000
  N   N4        1.0  0.2991971868246707  0.23526329018675096  0.6441186283328477  1.0000
  N   N5        1.0  0.3128111603988372  0.8204781567104291  0.47085991938828187  1.0000
  N   N6        1.0  0.6871891295521522  0.17952162470425043  0.5291413318946567  1.0000
  O   O1        1.0  0.5332756962080579  0.17126128202121296  0.0982619466848575  1.0000
  O   O2        1.0  0.46672111708581104  0.8287401042783813  0.901738559630175  1.0000
  O   O3        1.0  0.34443376090300154  0.14499734030606962  0.9667671674151492  1.0000
  O   O4        1.0  0.6555664316794392  0.8550016386661455  0.033231871032491304  1.0000
  O   O5        1.0  0.5243966432692703  0.5162385175487216  0.3302825237437403  1.0000
  O   O6        1.0  0.4756037440502681  0.48376206630841523  0.6697174436264746  1.0000
  O   O7        1.0  0.3487125609587167  0.6344382919037629  0.28814880227447753  1.0000
  O   O8        1.0  0.6512890501588868  0.3655622919533741  0.7118519561757566  1.0000
  O   O9        1.0  0.178492965430614  0.509181838555655  0.9290865029623349  1.0000
  O   O10       1.0  0.8215084509498993  0.49081714041656005  0.07091332656533211  1.0000
  O   O11       1.0  0.7361409312185715  0.6202141968581572  0.5252330092000719  1.0000
  O   O12       1.0  0.263859358732411  0.3797855845565153  0.4747675427332609  1.0000
  O   O13       1.0  0.6757318949522713  0.7793265000352747  0.598009639205891  1.0000
  O   O14       1.0  0.324268492367267  0.220674083821855  0.4019910275139225  1.0000
  O   O15       1.0  0.34371795454043763  0.5878300265007469  0.5302499848106592  1.0000
  O   O16       1.0  0.656282335410552  0.4121697549139257  0.4697498677730678  1.0000
