data_image0
_chemical_formula_structural       Na4H24C24S4Br4N4Cl8O14
_chemical_formula_sum              "Na4 H24 C24 S4 Br4 N4 Cl8 O14"
_cell_length_a       6.390694358979337
_cell_length_b       6.391207576668422
_cell_length_c       30.275743953607435
_cell_angle_alpha    93.50335795133564
_cell_angle_beta     93.17910867267649
_cell_angle_gamma    116.74985984737533

_space_group_name_H-M_alt    "P 1"
_space_group_IT_number       1

loop_
  _space_group_symop_operation_xyz
  'x, y, z'

loop_
  _atom_site_type_symbol
  _atom_site_label
  _atom_site_symmetry_multiplicity
  _atom_site_fract_x
  _atom_site_fract_y
  _atom_site_fract_z
  _atom_site_occupancy
  Na  Na1       1.0  0.6056001506917282  0.6547994532203346  0.2356690311220717  1.0000
  Na  Na2       1.0  0.9187424233041595  0.3706782186414514  0.2643786802848211  1.0000
  Na  Na3       1.0  0.3944022825593621  0.3452054684881105  0.7643312498888194  1.0000
  Na  Na4       1.0  0.08126394482717088  0.6293284463779399  0.7356216749943485  1.0000
  H   H1        1.0  0.584340910083526  0.43744692748373376  0.027790105777761205  1.0000
  H   H2        1.0  0.9098638864252068  0.5566758823870758  0.472308149215543  1.0000
  H   H3        1.0  0.4156501228027666  0.5625226945069813  0.9722076584154707  1.0000
  H   H4        1.0  0.09013040908910593  0.44331862949668016  0.5276958702147709  1.0000
  H   H5        1.0  0.8994999696272858  0.9696278961903674  0.041425618000566516  1.0000
  H   H6        1.0  0.4286762723859708  0.8585889839030473  0.4587771452087993  1.0000
  H   H7        1.0  0.10046745397756499  0.0303312659346631  0.9585717005830079  1.0000
  H   H8        1.0  0.5713307836230115  0.1414159685841057  0.5412248533699825  1.0000
  H   H9        1.0  0.7778838798856924  0.9154434818677615  0.11809862883277591  1.0000
  H   H10       1.0  0.29760969332959053  0.660493844163561  0.38206398393452196  1.0000
  H   H11       1.0  0.22210495651167153  0.084538538774062  0.8819002262020845  1.0000
  H   H12       1.0  0.7023856794205302  0.33951649969105807  0.6179388967929782  1.0000
  H   H13       1.0  0.13787610187177524  0.8974087026783691  0.275652382826955  1.0000
  H   H14       1.0  0.1208245779958402  0.8624647785057603  0.2243034961163346  1.0000
  H   H15       1.0  0.862126479105932  0.10260324358834788  0.724346983536897  1.0000
  H   H16       1.0  0.879173138592428  0.1375366170374122  0.7756960200350065  1.0000
  H   H17       1.0  0.144444881649946  0.4622282634166767  0.1863138393172363  1.0000
  H   H18       1.0  0.7757510761792402  0.9589655828167596  0.3136704027119706  1.0000
  H   H19       1.0  0.8555605836943415  0.5377695716666863  0.8136860795046061  1.0000
  H   H20       1.0  0.22425302752560586  0.0410428145065538  0.6863286174290835  1.0000
  H   H21       1.0  0.1912013780284525  0.2473019918012369  0.19473572554814922  1.0000
  H   H22       1.0  0.5524799815059254  0.9975863089942437  0.30528241033161413  1.0000
  H   H23       1.0  0.8088056772257415  0.7526958122487242  0.8052635548556495  1.0000
  H   H24       1.0  0.4475256720255985  0.002422091080830998  0.6947169621610314  1.0000
  C   C1        1.0  0.6112490018840333  0.14079576535718266  0.11627357149757243  1.0000
  C   C2        1.0  0.5246859874995521  0.49561811806520956  0.3838216970037181  1.0000
  C   C3        1.0  0.38875247438092936  0.8591932230249243  0.8837248759071984  1.0000
  C   C4        1.0  0.4753158391725166  0.5043991712609426  0.6161790364307506  1.0000
  C   C5        1.0  0.5564930170657973  0.28813941793434594  0.0903562723682683  1.0000
  C   C6        1.0  0.6980061153650325  0.46661839773483393  0.4097189184040388  1.0000
  C   C7        1.0  0.4435099681878326  0.7118424585474796  0.9096407999827536  1.0000
  C   C8        1.0  0.3019977600693409  0.5333794683819377  0.5902816388358474  1.0000
  C   C9        1.0  0.626691449650778  0.3220479768781388  0.047380330966412  1.0000
  C   C10       1.0  0.7749931979271238  0.5796301055704519  0.4527216699388106  1.0000
  C   C11       1.0  0.373297453551963  0.6779339874550842  0.9526168727857043  1.0000
  C   C12       1.0  0.22499584115072935  0.42037319145714497  0.5472803857727868  1.0000
  C   C13       1.0  0.7466218478138131  0.204578324009411  0.0298579320727441  1.0000
  C   C14       1.0  0.6751602717276556  0.7171158649517791  0.4702869623974452  1.0000
  C   C15       1.0  0.25335995442734566  0.7954055220365532  0.9701415030781322  1.0000
  C   C16       1.0  0.3248374864534185  0.2828997936806275  0.5297169993342337  1.0000
  C   C17       1.0  0.8037267793215364  0.058955139754956996  0.05505378473423411  1.0000
  C   C18       1.0  0.504284278252932  0.7491492184795944  0.4451115276909974  1.0000
  C   C19       1.0  0.1962563975427471  0.9410145585707425  0.9449448597533917  1.0000
  C   C20       1.0  0.49572060836666765  0.2508716843538252  0.5548922603038163  1.0000
  C   C21       1.0  0.7357625401917505  0.029231493463179  0.09801746432641073  1.0000
  C   C22       1.0  0.4314771675095415  0.6383591781018013  0.4021301373877507  1.0000
  C   C23       1.0  0.2642278193101433  0.9707505524538435  0.9019824035731432  1.0000
  C   C24       1.0  0.5685300366034481  0.36165637316221927  0.5978723056314834  1.0000
  S   S1        1.0  0.5299481332754894  0.08567747268742208  0.17189688792424826  1.0000
  S   S2        1.0  0.41388363105482995  0.3590177903335104  0.3281589857509318  1.0000
  S   S3        1.0  0.47005657738576173  0.9143221312367799  0.8281030388807126  1.0000
  S   S4        1.0  0.5861236803241567  0.6410012450553425  0.6718421743034143  1.0000
  Br  Br1       1.0  0.07103822421137103  0.7188324494535295  0.13564523375010404  1.0000
  Br  Br2       1.0  0.08312593219983445  0.9355242013609271  0.3641368425451291  1.0000
  Br  Br3       1.0  0.9289736145110227  0.28116882445309704  0.8643531602305005  1.0000
  Br  Br4       1.0  0.9168657728915549  0.0644841739483368  0.6358593587831296  1.0000
  N   N1        1.0  0.25474353326739424  0.004455777870170198  0.17318105686015173  1.0000
  N   N2        1.0  0.3315221888084992  0.0825486780563978  0.3267485575772682  1.0000
  N   N3        1.0  0.7452714993906682  0.9955525711451187  0.8268184482028006  1.0000
  N   N4        1.0  0.6684858367929039  0.9174650480581832  0.6732522261761035  1.0000
  Cl  Cl1       1.0  0.4007263066491121  0.4306806004147106  0.1091165586558418  1.0000
  Cl  Cl2       1.0  0.8215856540020071  0.2919693107535863  0.3909179583470603  1.0000
  Cl  Cl3       1.0  0.5992744153102124  0.5693137310268314  0.8908832558195457  1.0000
  Cl  Cl4       1.0  0.17840345263601165  0.7080410784026014  0.6090851642567972  1.0000
  Cl  Cl5       1.0  0.8177177628244792  0.2355092251330787  0.975628883491986  1.0000
  Cl  Cl6       1.0  0.760432228453041  0.8422225335652413  0.524541948682895  1.0000
  Cl  Cl7       1.0  0.1822797113774754  0.7644745020280864  0.024369781839752108  1.0000
  Cl  Cl8       1.0  0.23956938330964314  0.1577842132926435  0.4754599915938655  1.0000
  O   O1        1.0  0.6405826060681505  0.3108172633411144  0.19968675155703156  1.0000
  O   O2        1.0  0.6112910026194811  0.4421907877344395  0.3004046966301885  1.0000
  O   O3        1.0  0.35942928647592953  0.689187539737226  0.8003116804848674  1.0000
  O   O4        1.0  0.3887162682988856  0.5578247072209804  0.6995960951063083  1.0000
  O   O5        1.0  0.6084475068896537  0.9126465122446562  0.1834657038355374  1.0000
  O   O6        1.0  0.229187176265377  0.42591205225360085  0.3166278933024245  1.0000
  O   O7        1.0  0.39156669054153076  0.08736009896319531  0.8165344316623406  1.0000
  O   O8        1.0  0.7708161464116755  0.5741017106525915  0.6833731544223411  1.0000
  O   O9        1.0  0.036837096501663676  0.7874748653240217  0.24999745786662694  1.0000
  O   O10       1.0  0.9631630589618608  0.21253179995006374  0.7500018182626962  1.0000
  O   O11       1.0  0.18694321975821274  0.3871913338217112  0.2100799525225483  1.0000
  O   O12       1.0  0.6769107221019794  0.9778256449301351  0.2899234586281878  1.0000
  O   O13       1.0  0.8130614504424257  0.6128047296690581  0.7899196059645633  1.0000
  O   O14       1.0  0.3230917378712591  0.0221792542548656  0.7100761618696084  1.0000
