data_image0
_chemical_formula_structural       Cd2H46C58N10O14
_chemical_formula_sum              "Cd2 H46 C58 N10 O14"
_cell_length_a       9.03875728699307
_cell_length_b       11.034570657562055
_cell_length_c       15.638151688429968
_cell_angle_alpha    89.99921081727425
_cell_angle_beta     89.9998645837109
_cell_angle_gamma    102.74709818333821

_space_group_name_H-M_alt    "P 1"
_space_group_IT_number       1

loop_
  _space_group_symop_operation_xyz
  'x, y, z'

loop_
  _atom_site_type_symbol
  _atom_site_label
  _atom_site_symmetry_multiplicity
  _atom_site_fract_x
  _atom_site_fract_y
  _atom_site_fract_z
  _atom_site_occupancy
  Cd  Cd1       1.0  0.9617580127914351  0.9624917873640587  0.1993065646623577  1.0000
  Cd  Cd2       1.0  0.0382461098454385  0.03750927897129941  0.6992998243942665  1.0000
  H   H1        1.0  0.5851150007487291  0.13812925798221443  0.2637097471224052  1.0000
  H   H2        1.0  0.41488654287269355  0.8618713728858651  0.7637200502406785  1.0000
  H   H3        1.0  0.9765329951599211  0.30772499619509835  0.8261274140796431  1.0000
  H   H4        1.0  0.023473472034027106  0.692274287995204  0.3261246793573065  1.0000
  H   H5        1.0  0.8022754860654118  0.22569375887356105  0.5794434121066274  1.0000
  H   H6        1.0  0.19771228407896044  0.774302476164131  0.0794421918952821  1.0000
  H   H7        1.0  0.7704415871308044  0.5320344975940757  0.3199547605634905  1.0000
  H   H8        1.0  0.22954291939968394  0.4679612684038973  0.8199589182488296  1.0000
  H   H9        1.0  0.6704814038801102  0.608536456652935  0.0587547940878963  1.0000
  H   H10       1.0  0.3295349564322692  0.391475007471776  0.5587633891101049  1.0000
  H   H11       1.0  0.6507892147754504  0.3127998253351479  0.3002227588671857  1.0000
  H   H12       1.0  0.3491845956109145  0.6872010452860096  0.8002297347244891  1.0000
  H   H13       1.0  0.5536257690177351  0.3833430849864569  0.0366325112648838  1.0000
  H   H14       1.0  0.44638145309368576  0.6166670201546298  0.5366419522404371  1.0000
  H   H15       1.0  0.46789471086182016  0.9511774369089565  0.1356568646964647  1.0000
  H   H16       1.0  0.5320976133056375  0.04882409436665109  0.6356621032110256  1.0000
  H   H17       1.0  0.4146063089138678  0.8079397349628439  0.2602010883275909  1.0000
  H   H18       1.0  0.5853983303500525  0.1920600309802296  0.7602048610667467  1.0000
  H   H19       1.0  0.45992245005894006  0.9355869407659512  0.3323541044292568  1.0000
  H   H20       1.0  0.5400831934760503  0.06440942335495242  0.8323572619523532  1.0000
  H   H21       1.0  0.6020587088117679  0.8981308376452835  0.26346049374041053  1.0000
  H   H22       1.0  0.39794530247669263  0.1018707206194165  0.7634705234437007  1.0000
  H   H23       1.0  0.1748252072201737  0.1364380366363989  0.057669072712904806  1.0000
  H   H24       1.0  0.8251887858435295  0.8635688085228496  0.55767110375497  1.0000
  H   H25       1.0  0.7104130431674632  0.05452339458399542  0.101406995750537  1.0000
  H   H26       1.0  0.2895970518874194  0.9454657912902679  0.6014000392485102  1.0000
  H   H27       1.0  0.1446304391361295  0.25946972846697497  0.9276952286098847  1.0000
  H   H28       1.0  0.8553791177612239  0.7405422589892441  0.4276940425690725  1.0000
  H   H29       1.0  0.6625432625287216  0.18209186563329646  0.9786008690365477  1.0000
  H   H30       1.0  0.3374684504229678  0.8179004304292196  0.4785951906449171  1.0000
  H   H31       1.0  0.8577053245507499  0.3000705984009785  0.6949975886445259  1.0000
  H   H32       1.0  0.14230938467254362  0.6999286661504842  0.1949926926604277  1.0000
  H   H33       1.0  0.7711185029639224  0.6209039111756667  0.5643636475415263  1.0000
  H   H34       1.0  0.22888701964226496  0.3790842192333557  0.0643694161225312  1.0000
  H   H35       1.0  0.7203450374664231  0.7129580559045082  0.704618303032575  1.0000
  H   H36       1.0  0.2796396536560763  0.28703272954075504  0.2046261719254261  1.0000
  H   H37       1.0  0.7155787008878534  0.5872177883146464  0.8378610056547445  1.0000
  H   H38       1.0  0.2844091236502208  0.4127701456394632  0.3378663685182133  1.0000
  H   H39       1.0  0.9641329353988011  0.37174325733766284  0.3741689690145904  1.0000
  H   H40       1.0  0.03586745291188013  0.628258741486711  0.8741673695326284  1.0000
  H   H41       1.0  0.7328738280448661  0.0388838382545131  0.5066294967283369  1.0000
  H   H42       1.0  0.2671071628001441  0.9611149011822919  0.0066276439135251  1.0000
  H   H43       1.0  0.9923877459496352  0.2381920832265294  0.2506243061171745  1.0000
  H   H44       1.0  0.007616643975332231  0.7618106776595256  0.7506214505509093  1.0000
  H   H45       1.0  0.7724155324714843  0.9191946030253819  0.3775888477411797  1.0000
  H   H46       1.0  0.22756654012745509  0.08080924120103111  0.8775846159469438  1.0000
  C   C1        1.0  0.8007216452913751  0.7190902537293198  0.2014794721815178  1.0000
  C   C2        1.0  0.19928381615589066  0.280911691836188  0.701482930378333  1.0000
  C   C3        1.0  0.728170435274336  0.5845927735973434  0.1902032681839216  1.0000
  C   C4        1.0  0.2718290992844389  0.41540757144417045  0.6902072365014789  1.0000
  C   C5        1.0  0.7231989158373509  0.5000245090779458  0.2577007892362957  1.0000
  C   C6        1.0  0.27677760390033507  0.49997353993928334  0.7577071270709368  1.0000
  C   C7        1.0  0.6657997749961095  0.541996330560963  0.1107318510752364  1.0000
  C   C8        1.0  0.3342006073981095  0.45801407612786693  0.6107340385198654  1.0000
  C   C9        1.0  0.6557551983696399  0.37507433181542654  0.245648228709122  1.0000
  C   C10       1.0  0.34421999055854974  0.6249267683557137  0.7456513397742413  1.0000
  C   C11       1.0  0.5999602721147496  0.41698152180107684  0.098571220686317  1.0000
  C   C12       1.0  0.40003163919026713  0.5830301011468181  0.5985772171033902  1.0000
  C   C13       1.0  0.5940674631996075  0.3321437219736368  0.1659459670422763  1.0000
  C   C14       1.0  0.40592167345901237  0.6678627532317024  0.6659492133588572  1.0000
  C   C15       1.0  0.5149083252447041  0.20041444046478327  0.1490802190555698  1.0000
  C   C16       1.0  0.485077061853552  0.7995942662455493  0.6490859113496867  1.0000
  C   C17       1.0  0.44253899037681066  0.9866393508276519  0.1985560876863275  1.0000
  C   C18       1.0  0.5574596124944193  0.013361748950274002  0.6985648317058022  1.0000
  C   C19       1.0  0.4823604717512849  0.9025680169944651  0.268328140033077  1.0000
  C   C20       1.0  0.5176409397528516  0.0974362356192131  0.7683361245872506  1.0000
  C   C21       1.0  0.2717449005935179  0.9824887150406028  0.1993101543965992  1.0000
  C   C22       1.0  0.7282480010753075  0.0175077371701704  0.6993122212343722  1.0000
  C   C23       1.0  0.062493349276628904  0.14571934385588045  0.036903865627564904  1.0000
  C   C24       1.0  0.937523142806583  0.8542842164013111  0.5369039090106966  1.0000
  C   C25       1.0  0.8042280904980074  0.1024535830334372  0.0618054692834562  1.0000
  C   C26       1.0  0.19578561609603176  0.8975401556407264  0.5617997504949344  1.0000
  C   C27       1.0  0.04593459120610532  0.21453840349960987  0.9648866126135828  1.0000
  C   C28       1.0  0.9540742721382143  0.7854634935490309  0.4648854899882195  1.0000
  C   C29       1.0  0.7770783868599124  0.1722549387627055  0.9922424732499451  1.0000
  C   C30       1.0  0.22293098342354506  0.827737073836495  0.4922381408059948  1.0000
  C   C31       1.0  0.9009636172107776  0.2295627293221899  0.9413083386369436  1.0000
  C   C32       1.0  0.09904300882536889  0.7704387477415369  0.4413072959463804  1.0000
  C   C33       1.0  0.7781800515267532  0.3665515149362123  0.8560598348349941  1.0000
  C   C34       1.0  0.22182756568889053  0.6334564267584357  0.3560541922886955  1.0000
  C   C35       1.0  0.7884234256352655  0.43765235709990685  0.7740600221433597  1.0000
  C   C36       1.0  0.2115805707252107  0.5623452555224449  0.27405636316541404  1.0000
  C   C37       1.0  0.8255576979552118  0.38968523163585916  0.6960497306339519  1.0000
  C   C38       1.0  0.1744515616345055  0.610310308077672  0.19604374042125272  1.0000
  C   C39       1.0  0.8158113706575989  0.45514266977581763  0.6200154982658787  1.0000
  C   C40       1.0  0.18419735160082953  0.5448498433659668  0.1200139663000499  1.0000
  C   C41       1.0  0.777925550772757  0.5715366794325335  0.6239003299702404  1.0000
  C   C42       1.0  0.22207514168061235  0.42845484642150927  0.1239081869153651  1.0000
  C   C43       1.0  0.7466257680124072  0.6213078952473481  0.701961126065278  1.0000
  C   C44       1.0  0.2533647302206034  0.3786838582884968  0.201969421659129  1.0000
  C   C45       1.0  0.7469970272176029  0.5528013124148715  0.7766454761049886  1.0000
  C   C46       1.0  0.252996232184941  0.44719348940910203  0.2766473521714374  1.0000
  C   C47       1.0  0.8411287426456369  0.40810886893098797  0.5326550007564492  1.0000
  C   C48       1.0  0.15889128166554659  0.5918873311458199  0.0326498508936268  1.0000
  C   C49       1.0  0.8475480472322658  0.21669484592915472  0.4520715935536401  1.0000
  C   C50       1.0  0.15244750833596044  0.7833027171150919  0.9520702422800582  1.0000
  C   C51       1.0  0.9201354509827553  0.27218662226821533  0.3776027535301694  1.0000
  C   C52       1.0  0.07986805329300498  0.7278106436352305  0.8776026832626656  1.0000
  C   C53       1.0  0.7913446876362329  0.08685623535730971  0.4512051533410215  1.0000
  C   C54       1.0  0.20863982241639434  0.9131413813904247  0.9512037411309251  1.0000
  C   C55       1.0  0.9350061319373992  0.19715359672214558  0.3084926379300867  1.0000
  C   C56       1.0  0.0649922590585845  0.802844229392406  0.8084912210758687  1.0000
  C   C57       1.0  0.8126210761861115  0.0197361959960887  0.3792660159720072  1.0000
  C   C58       1.0  0.18736770000857214  0.9802638712838532  0.8792627035838835  1.0000
  N   N1        1.0  0.5298476691378724  0.1130096665096261  0.2079079172080256  1.0000
  N   N2        1.0  0.47014046538676985  0.8869977768580027  0.7079159797143076  1.0000
  N   N3        1.0  0.943425437691374  0.08928587517172562  0.0851509043722984  1.0000
  N   N4        1.0  0.0565939041388077  0.9107166471244241  0.5851471736056482  1.0000
  N   N5        1.0  0.8872751745598106  0.2988166600011085  0.8687175922191132  1.0000
  N   N6        1.0  0.11273181133461924  0.7011891538850181  0.3687108076045362  1.0000
  N   N7        1.0  0.8300393498490093  0.28131244819965673  0.5260212081666893  1.0000
  N   N8        1.0  0.16995591105263227  0.7186821123713969  0.026021206608568503  1.0000
  N   N9        1.0  0.8832556636501536  0.07278375128605323  0.3082099966073955  1.0000
  N   N10       1.0  0.11673686118782454  0.9272168894344192  0.8082060203462761  1.0000
  O   O1        1.0  0.8821192868256277  0.7538415631071022  0.26801140515168237  1.0000
  O   O2        1.0  0.11787235424017689  0.24615528793591326  0.7680102004427882  1.0000
  O   O3        1.0  0.7821290149417308  0.7961293794920085  0.1437491433017399  1.0000
  O   O4        1.0  0.21788490935517754  0.2038784199894792  0.643751404394294  1.0000
  O   O5        1.0  0.4377219487526034  0.16966799856949424  0.08317749403551031  1.0000
  O   O6        1.0  0.5622516617270038  0.8303412212118035  0.5831808600396328  1.0000
  O   O7        1.0  0.2201652639980551  0.06034170689481042  0.2425761723149478  1.0000
  O   O8        1.0  0.7798308775394603  0.9396510225142691  0.7425724135256857  1.0000
  O   O9        1.0  0.1861424595942936  0.8949918360010687  0.1564411233300405  1.0000
  O   O10       1.0  0.8138535762524696  0.10500738032889964  0.6564434984413481  1.0000
  O   O11       1.0  0.6769070881197832  0.3714092829806219  0.9082322891670245  1.0000
  O   O12       1.0  0.32310699900889256  0.6285947356327029  0.4082246317193636  1.0000
  O   O13       1.0  0.8645498851809631  0.47851093542955425  0.4701044115354165  1.0000
  O   O14       1.0  0.1354885187768744  0.5214898262459755  0.9700979518166835  1.0000
