data_image0
_chemical_formula_structural       Mo4H44C56N12O20
_chemical_formula_sum              "Mo4 H44 C56 N12 O20"
_cell_length_a       7.462828717039625
_cell_length_b       10.521775370630758
_cell_length_c       18.49001984936597
_cell_angle_alpha    106.80419358393279
_cell_angle_beta     89.99976456015659
_cell_angle_gamma    90.00034089175003

_space_group_name_H-M_alt    "P 1"
_space_group_IT_number       1

loop_
  _space_group_symop_operation_xyz
  'x, y, z'

loop_
  _atom_site_type_symbol
  _atom_site_label
  _atom_site_symmetry_multiplicity
  _atom_site_fract_x
  _atom_site_fract_y
  _atom_site_fract_z
  _atom_site_occupancy
  Mo  Mo1       1.0  0.4748331033017762  0.7275524609378723  0.656604476353813  1.0000
  Mo  Mo2       1.0  0.974833710893186  0.2724474699992143  0.8433939620257148  1.0000
  Mo  Mo3       1.0  0.5251648949180208  0.2724499808153169  0.3433960234693245  1.0000
  Mo  Mo4       1.0  0.02516964721515789  0.7275529967564368  0.1566067651098138  1.0000
  H   H1        1.0  0.19093501268564947  0.436903300892304  0.4901514489675377  1.0000
  H   H2        1.0  0.6909400342181584  0.5630933411481607  0.009850057362250184  1.0000
  H   H3        1.0  0.8090603055651256  0.5630931843624156  0.5098481052191417  1.0000
  H   H4        1.0  0.30906600382511573  0.4369061748250544  0.9901526822772055  1.0000
  H   H5        1.0  0.6157535097472786  0.0882439234850168  0.7981653791858249  1.0000
  H   H6        1.0  0.11574862411301717  0.911750591675151  0.7018268487122725  1.0000
  H   H7        1.0  0.3842525283133184  0.911753512576951  0.20183216248969418  1.0000
  H   H8        1.0  0.8842413342672018  0.08824679190515639  0.29816798033231606  1.0000
  H   H9        1.0  0.7036883595507957  0.45503702422960385  0.7626276647206325  1.0000
  H   H10       1.0  0.20368810422809955  0.5449629061188263  0.7373717665861791  1.0000
  H   H11       1.0  0.2963082986911799  0.5449644247721892  0.23737267749691424  1.0000
  H   H12       1.0  0.7963125739359921  0.455040559859384  0.26263051842560253  1.0000
  H   H13       1.0  0.08170510429948048  0.5086681108558722  0.39166203407663847  1.0000
  H   H14       1.0  0.5817045239350093  0.49132415578988303  0.10833895978157669  1.0000
  H   H15       1.0  0.9182928939196412  0.4913333276580261  0.6083377656122619  1.0000
  H   H16       1.0  0.41829213428354706  0.5086703439694773  0.8916602791917397  1.0000
  H   H17       1.0  0.11847704690606517  0.914934754924545  0.38936281356634334  1.0000
  H   H18       1.0  0.6184744005115447  0.08505659216250192  0.11063472781136599  1.0000
  H   H19       1.0  0.8815303311190161  0.08506372634071371  0.61063759835438  1.0000
  H   H20       1.0  0.3815235976875044  0.9149388898578792  0.8893641262396199  1.0000
  H   H21       1.0  0.35944758255926956  0.05954704319972851  0.43194256925865904  1.0000
  H   H22       1.0  0.8594457848288001  0.940450096807254  0.06805224477335507  1.0000
  H   H23       1.0  0.6405557755691049  0.9404553566018663  0.5680557604498944  1.0000
  H   H24       1.0  0.1405522133862505  0.059545322270857126  0.9319433541100962  1.0000
  H   H25       1.0  0.33846232713028  0.18617487674263336  0.5204669719492613  1.0000
  H   H26       1.0  0.8384607222916142  0.8138185718470722  0.9795295829961431  1.0000
  H   H27       1.0  0.6615396910189161  0.8138245238289697  0.4795297998852134  1.0000
  H   H28       1.0  0.16153861588190918  0.1861769101757886  0.020469271054125195  1.0000
  H   H29       1.0  0.14146459694051564  0.11551520446329283  0.4701239324589324  1.0000
  H   H30       1.0  0.641464054697529  0.8844762382220566  0.029874126622722486  1.0000
  H   H31       1.0  0.8585347412524056  0.8844852308137873  0.5298751670949997  1.0000
  H   H32       1.0  0.3585352834659545  0.1155162655540494  0.9701242546085922  1.0000
  H   H33       1.0  0.021668596602701495  0.685579848484302  0.329204519028039  1.0000
  H   H34       1.0  0.5216618989078582  0.3144091756759622  0.1707938967325759  1.0000
  H   H35       1.0  0.9783401214115484  0.3144205868101367  0.6707945805208269  1.0000
  H   H36       1.0  0.4783334193335519  0.6855853345712999  0.8292058847693866  1.0000
  H   H37       1.0  0.26986852585555  0.21404687108660175  0.6453127881204637  1.0000
  H   H38       1.0  0.7698732966350972  0.7859572647872425  0.8546866596170801  1.0000
  H   H39       1.0  0.7301348322728245  0.7859555287149932  0.35468554158808974  1.0000
  H   H40       1.0  0.23013006149599136  0.2140491479715436  0.14531447062843478  1.0000
  H   H41       1.0  0.35451502015735054  0.0451913661275043  0.7114052668936139  1.0000
  H   H42       1.0  0.8545138177279978  0.9548030821899188  0.7885887156839573  1.0000
  H   H43       1.0  0.6454883379603089  0.9548070521880447  0.28859188986174183  1.0000
  H   H44       1.0  0.1454801605709974  0.04519532561788249  0.2114078985485435  1.0000
  C   C1        1.0  0.44770012116006086  0.45372769344849223  0.6643811125788659  1.0000
  C   C2        1.0  0.9477004067061401  0.5462731297857601  0.8356175127063992  1.0000
  C   C3        1.0  0.5523059169165875  0.5462737031187646  0.3356165169940013  1.0000
  C   C4        1.0  0.052300271464645186  0.45373232169028216  0.16438508751801348  1.0000
  C   C5        1.0  0.2603576424512895  0.7752250460743397  0.5254737153350816  1.0000
  C   C6        1.0  0.7603592223959339  0.22477113357201967  0.9745255668797057  1.0000
  C   C7        1.0  0.739630975938546  0.22478044734089758  0.4745310550075316  1.0000
  C   C8        1.0  0.23964413570571705  0.7752273476857996  0.025474845043191894  1.0000
  C   C9        1.0  0.20818000499555464  0.6425687360595164  0.4892559056753071  1.0000
  C   C10       1.0  0.7081900048405385  0.3574279908149692  0.010746667085832886  1.0000
  C   C11       1.0  0.7918072734217886  0.3574357436235616  0.5107476220058729  1.0000
  C   C12       1.0  0.2918187131510166  0.6425705219239077  0.9892553724179365  1.0000
  C   C13       1.0  0.4828229152828739  0.34783253482402904  0.699588507755557  1.0000
  C   C14       1.0  0.982825774486251  0.6521684394266245  0.8004111646572127  1.0000
  C   C15       1.0  0.5171844627608734  0.6521658730085846  0.3004081064697104  1.0000
  C   C16       1.0  0.017174903681187494  0.3478360193005018  0.1995912779608844  1.0000
  C   C17       1.0  0.24290216000380835  0.5350019441672843  0.5204183697741627  1.0000
  C   C18       1.0  0.7429083697430058  0.46499617734291837  0.9795823315557116  1.0000
  C   C19       1.0  0.7570931582603461  0.4649985120831134  0.47958181483778617  1.0000
  C   C20       1.0  0.2570949883600022  0.5350043103934894  0.02041948063566678  1.0000
  C   C21       1.0  0.22868928271999062  0.8745812541444524  0.4887819983958366  1.0000
  C   C22       1.0  0.7286893059992322  0.12541346872933454  0.0112153542600382  1.0000
  C   C23       1.0  0.7713020156207333  0.1254192020984988  0.5112181862182866  1.0000
  C   C24       1.0  0.2713086922145038  0.8745839673177472  0.9887821874198224  1.0000
  C   C25       1.0  0.5752559064659477  0.16107856819407831  0.7697387073381136  1.0000
  C   C26       1.0  0.07525147019402569  0.838920802743658  0.7302565224338977  1.0000
  C   C27       1.0  0.4247501316100254  0.8389218251338875  0.2302582221005166  1.0000
  C   C28       1.0  0.9247425081176742  0.1610805728205236  0.2697400220896355  1.0000
  C   C29       1.0  0.6251025603560549  0.3646740666143842  0.7505941218284136  1.0000
  C   C30       1.0  0.12510159726556216  0.6353265235814406  0.749403381833389  1.0000
  C   C31       1.0  0.3749034777165646  0.6353253339646585  0.24940265000389414  1.0000
  C   C32       1.0  0.8748964009575815  0.3646769109206645  0.25059727559606415  1.0000
  C   C33       1.0  0.12040654092508157  0.6114349707536207  0.41849029488784584  1.0000
  C   C34       1.0  0.6204120728245072  0.38855942468093474  0.08151097238840067  1.0000
  C   C35       1.0  0.8795834174479038  0.3885714944322629  0.5815135480045227  1.0000
  C   C36       1.0  0.379591285263764  0.6114350855812136  0.9184888091092204  1.0000
  C   C37       1.0  0.14360111204317147  0.840013758740575  0.41824847443342605  1.0000
  C   C38       1.0  0.643603398144684  0.15997669911084964  0.0817494247332959  1.0000
  C   C39       1.0  0.8563928662418548  0.15998772172739711  0.5817534953693341  1.0000
  C   C40       1.0  0.3563972799986103  0.8400157836869799  0.9182478714414515  1.0000
  C   C41       1.0  0.27982350771597436  0.09501116220626218  0.4838073786416571  1.0000
  C   C42       1.0  0.7798179130925574  0.9049817434865804  0.016188518532061415  1.0000
  C   C43       1.0  0.7201785104151809  0.9049852915897248  0.5161905479576347  1.0000
  C   C44       1.0  0.22017874513400665  0.0950127248016415  0.9838090928574913  1.0000
  C   C45       1.0  0.08816867619660937  0.7094492444761402  0.3838512093027616  1.0000
  C   C46       1.0  0.5881770656299139  0.2905430461155163  0.11614977757099608  1.0000
  C   C47       1.0  0.9118199421971979  0.290554221479745  0.6161510757155283  1.0000
  C   C48       1.0  0.41182629245568586  0.7094514746370069  0.8838505464545463  1.0000
  C   C49       1.0  0.3825883932360553  0.2305748669132157  0.684200926643058  1.0000
  C   C50       1.0  0.8825893951310488  0.7694276902745544  0.8157975416366909  1.0000
  C   C51       1.0  0.6174203247915386  0.7694255159293277  0.3157954602661945  1.0000
  C   C52       1.0  0.11741128305374808  0.2305787119888906  0.1842030460823523  1.0000
  C   C53       1.0  0.42932077077546166  0.1369787556729065  0.7207394269213054  1.0000
  C   C54       1.0  0.929321577273022  0.863020954317861  0.7792563479644841  1.0000
  C   C55       1.0  0.5706825873455371  0.8630206553915585  0.27925788744037305  1.0000
  C   C56       1.0  0.0706791009164363  0.1369844237255364  0.22074245456447267  1.0000
  N   N1        1.0  0.33743709683422207  0.5447192724986324  0.5810339913697362  1.0000
  N   N2        1.0  0.8374438314901977  0.45528019174670936  0.9189667654836882  1.0000
  N   N3        1.0  0.6625542015045126  0.45528219747399135  0.4189674359065449  1.0000
  N   N4        1.0  0.1625608665933029  0.5447212782507194  0.08103466178535969  1.0000
  N   N5        1.0  0.6733960317626425  0.27314984859711444  0.7841357858657999  1.0000
  N   N6        1.0  0.17339348609581853  0.7268489034178885  0.7158597228512988  1.0000
  N   N7        1.0  0.3266073263556918  0.7268495729577326  0.21586207102379967  1.0000
  N   N8        1.0  0.82660183218303  0.27315350685920237  0.2841391493895173  1.0000
  N   N9        1.0  0.3541245542708679  0.4296052313322464  0.6021259798284646  1.0000
  N   N10       1.0  0.854121738515161  0.5703932599649448  0.897872431292356  1.0000
  N   N11       1.0  0.6458747839193817  0.570395214435216  0.39787366225339577  1.0000
  N   N12       1.0  0.1458735797496686  0.42960819952475043  0.10212845345383667  1.0000
  O   O1        1.0  0.338417665214152  0.8117850231778191  0.5940227374752638  1.0000
  O   O2        1.0  0.8384196258459722  0.1882114244806559  0.9059753753912361  1.0000
  O   O3        1.0  0.6615763130675275  0.18821546454122992  0.40597907472117356  1.0000
  O   O4        1.0  0.1615877521810987  0.8117860430549297  0.09402379386732204  1.0000
  O   O5        1.0  0.5108427190472183  0.5737108463902133  0.7001868258582603  1.0000
  O   O6        1.0  0.0108542511801062  0.4262913902392356  0.7998154566150006  1.0000
  O   O7        1.0  0.48915661912499064  0.42628665260162524  0.29981397098841  1.0000
  O   O8        1.0  0.9891531268630586  0.5737140612492057  0.2001871436057954  1.0000
  O   O9        1.0  0.5026912712089383  0.8516941906334452  0.7403142224134882  1.0000
  O   O10       1.0  0.0026928497499482994  0.1483049851008076  0.7596848834088306  1.0000
  O   O11       1.0  0.49730672700484746  0.1483072688612097  0.2596866623312549  1.0000
  O   O12       1.0  0.9973091683986153  0.8516974356790642  0.24031453135629727  1.0000
  O   O13       1.0  0.28497256439878527  0.9992123363310554  0.525831858232948  1.0000
  O   O14       1.0  0.7849629029324702  0.0007809037246886018  0.9741642119491942  1.0000
  O   O15       1.0  0.7150307937101914  0.0007851102163271997  0.47416622597193486  1.0000
  O   O16       1.0  0.21503241531495826  0.9992145887811149  0.025835184631162526  1.0000
  O   O17       1.0  0.6773757591626364  0.7094860474698876  0.6107543274530228  1.0000
  O   O18       1.0  0.1773732070657275  0.2905137959507158  0.8892456747963067  1.0000
  O   O19       1.0  0.32262357902160227  0.2905134160390332  0.38924569955043603  1.0000
  O   O20       1.0  0.8226314910197629  0.7094866603170402  0.11075450981057597  1.0000
