data_image0
_chemical_formula_structural       Zn4H44C40O26
_chemical_formula_sum              "Zn4 H44 C40 O26"
_cell_length_a       7.472579948076338
_cell_length_b       11.369149080694948
_cell_length_c       13.5294
_cell_angle_alpha    77.25939878920472
_cell_angle_beta     85.5184267972114
_cell_angle_gamma    73.68966906613483

_space_group_name_H-M_alt    "P 1"
_space_group_IT_number       1

loop_
  _space_group_symop_operation_xyz
  'x, y, z'

loop_
  _atom_site_type_symbol
  _atom_site_label
  _atom_site_symmetry_multiplicity
  _atom_site_fract_x
  _atom_site_fract_y
  _atom_site_fract_z
  _atom_site_occupancy
  Zn  Zn1       1.0  0.6408884068776288  0.8398136260350881  0.07080977741116365  1.0000
  Zn  Zn2       1.0  0.35910981479104714  0.1601858663752083  0.929191945581124  1.0000
  Zn  Zn3       1.0  0.260383700094863  0.6113139429753929  0.9222036076697082  1.0000
  Zn  Zn4       1.0  0.7396168281846512  0.3886864862929754  0.07779488562824355  1.0000
  H   H1        1.0  0.9863081613005278  0.8571230157202551  0.01468759580650676  1.0000
  H   H2        1.0  0.013689682318883498  0.1428774135481135  0.9853132307480763  1.0000
  H   H3        1.0  0.9043496798274049  0.9482315260846335  0.08913116063317267  1.0000
  H   H4        1.0  0.0956512265013743  0.051767966325662905  0.9108689682335653  1.0000
  H   H5        1.0  0.30680120469757094  0.8759426206128467  0.999901616068641  1.0000
  H   H6        1.0  0.6932016301927746  0.12405874551359368  9.882145251080707e-05  1.0000
  H   H7        1.0  0.34105958229567784  0.7489889836656545  0.07600775855872405  1.0000
  H   H8        1.0  0.658936540944417  0.2510123824607788  0.9239922294898549  1.0000
  H   H9        1.0  0.8741893268943529  0.7174093718715753  0.9182082967666361  1.0000
  H   H10       1.0  0.1258081386757866  0.2825919942548651  0.08179089421916073  1.0000
  H   H11       1.0  0.9078434969990281  0.5972554507900938  0.002619590287437719  1.0000
  H   H12       1.0  0.09215778737901562  0.4027431047621306  0.9973762610994614  1.0000
  H   H13       1.0  0.18878146250929717  0.264707373715261  0.2337202220926855  1.0000
  H   H14       1.0  0.8112206162825047  0.7352958661273163  0.7662806399462809  1.0000
  H   H15       1.0  0.08859196158667261  0.2515295281149363  0.41474091511639  1.0000
  H   H16       1.0  0.9114049560671728  0.7484765223018428  0.5852559531424009  1.0000
  H   H17       1.0  0.3857440655837507  0.858883372032139  0.4810965416107253  1.0000
  H   H18       1.0  0.6142436639419913  0.1411254889588491  0.5189053762359138  1.0000
  H   H19       1.0  0.4916363207988254  0.8741223053845318  0.30141754680379057  1.0000
  H   H20       1.0  0.5083559836333578  0.1258818713161105  0.6985857808436791  1.0000
  H   H21       1.0  0.36640016669731773  0.9106822546740857  0.6374551602753941  1.0000
  H   H22       1.0  0.6335971673210137  0.0893294168911112  0.3625413874112837  1.0000
  H   H23       1.0  0.1633450427354433  0.870427337159903  0.6095186039763122  1.0000
  H   H24       1.0  0.8366572442386012  0.1295787132568762  0.39047803255567  1.0000
  H   H25       1.0  0.1695121952477336  0.0541681966987611  0.7449210860638547  1.0000
  H   H26       1.0  0.8304839279923613  0.9458331694276723  0.2550818585090299  1.0000
  H   H27       1.0  0.969634420895389  0.0140819136370212  0.7176804909479132  1.0000
  H   H28       1.0  0.03036073806391938  0.9859185156313401  0.28232045147006357  1.0000
  H   H29       1.0  0.534138325651874  0.6559889568597086  0.6995559720996384  1.0000
  H   H30       1.0  0.4658638846917356  0.3440039775441051  0.3004445767141348  1.0000
  H   H31       1.0  0.6075303231164142  0.6437638959156899  0.5191332543686046  1.0000
  H   H32       1.0  0.3924699586656288  0.3562271647719868  0.48086772492182933  1.0000
  H   H33       1.0  0.9406993483598214  0.2618209140042822  0.6135999980580138  1.0000
  H   H34       1.0  0.05931133232857629  0.7381776415479493  0.38639988259344454  1.0000
  H   H35       1.0  0.8758948259158998  0.2782824471368883  0.7945595912992759  1.0000
  H   H36       1.0  0.12411816138332905  0.7217170452734152  0.20543779878892113  1.0000
  H   H37       1.0  0.8030437765713714  0.6171477581718392  0.3815525583227953  1.0000
  H   H38       1.0  0.1969559572943851  0.3828479868061834  0.61845201128925  1.0000
  H   H39       1.0  0.597488029421612  0.565133398173991  0.3833597323061683  1.0000
  H   H40       1.0  0.40251686558210037  0.4348595362298227  0.616642918037435  1.0000
  H   H41       1.0  0.9682764245681595  0.4661459114482653  0.27464254909087776  1.0000
  H   H42       1.0  0.03172678837145071  0.5338545178201031  0.7253587848679786  1.0000
  H   H43       1.0  0.77325341200266  0.4059996234104091  0.2801046781067172  1.0000
  H   H44       1.0  0.22675361974485506  0.5939979952837504  0.7198955336464721  1.0000
  C   C1        1.0  0.4047069158937334  0.0737119928787919  0.1482256031691307  1.0000
  C   C2        1.0  0.5953031785631496  0.9262846889573026  0.8517753891583696  1.0000
  C   C3        1.0  0.34540377852042775  0.0695514061938027  0.25555325993059347  1.0000
  C   C4        1.0  0.6545885259117554  0.9304527705068395  0.7444485894547201  1.0000
  C   C5        1.0  0.2311280943576222  0.1759166502138925  0.28782764698011226  1.0000
  C   C6        1.0  0.7688605611336783  0.8240865896286848  0.7121730552447831  1.0000
  C   C7        1.0  0.1755585211379014  0.1694860564274165  0.38849733131417  1.0000
  C   C8        1.0  0.8244357118558484  0.8305199939893697  0.611501870201252  1.0000
  C   C9        1.0  0.2297661483279896  0.05502448497394849  0.4586453433498577  1.0000
  C   C10       1.0  0.7702233015770689  0.9449834391589746  0.5413559347406363  1.0000
  C   C11       1.0  0.34360611814251746  0.9479120574830588  0.4273979672665789  1.0000
  C   C12       1.0  0.6563806471024449  0.0520958666498572  0.5726041658183904  1.0000
  C   C13       1.0  0.40238575535779114  0.9563737595634052  0.32650528796840933  1.0000
  C   C14       1.0  0.5976105760645467  0.0436304171372441  0.6735000832771902  1.0000
  C   C15       1.0  0.21378653381180623  0.9433551798348389  0.6307127262468697  1.0000
  C   C16       1.0  0.7862105920242823  0.0566536811561562  0.3692836121603237  1.0000
  C   C17       1.0  0.12156895313454189  0.9781322882188377  0.7276754912447602  1.0000
  C   C18       1.0  0.8784262058247663  0.0218681410495236  0.27232471204214903  1.0000
  C   C19       1.0  0.15357940886653407  0.871741749030889  0.8193539595307301  1.0000
  C   C20       1.0  0.8464205331814654  0.1282568065213425  0.1806434280500184  1.0000
  C   C21       1.0  0.6515353791101575  0.47936404194555843  0.865319275838992  1.0000
  C   C22       1.0  0.3484674557801881  0.5206373241808819  0.13467820515784723  1.0000
  C   C23       1.0  0.6965039489385773  0.4680627230576988  0.7583528980786554  1.0000
  C   C24       1.0  0.3035080357646579  0.5319292744880499  0.24164592425768924  1.0000
  C   C25       1.0  0.6234354706384124  0.570222411205485  0.6798998296824055  1.0000
  C   C26       1.0  0.37657210902539623  0.4297705231983358  0.32009974827348503  1.0000
  C   C27       1.0  0.6641160453080488  0.5630207832281116  0.5789237023329152  1.0000
  C   C28       1.0  0.3358848227055091  0.4369721511757021  0.42107542615040233  1.0000
  C   C29       1.0  0.7778244007688003  0.4507964288437165  0.5556350754158359  1.0000
  C   C30       1.0  0.22217801775705232  0.5491993161343061  0.4443634652841909  1.0000
  C   C31       1.0  0.8519043114424534  0.3476005756714784  0.6337257795594554  1.0000
  C   C32       1.0  0.1481025121228186  0.6523942324484722  0.3662727446521004  1.0000
  C   C33       1.0  0.8131090857730284  0.3567630475875276  0.7340191481135323  1.0000
  C   C34       1.0  0.1868989102552731  0.6432355079647039  0.2659778918770216  1.0000
  C   C35       1.0  0.7507445741376912  0.5370445195454749  0.3777424845343447  1.0000
  C   C36       1.0  0.2492574663388893  0.46295216229061953  0.6222573771212012  1.0000
  C   C37       1.0  0.8147287324435126  0.4911075578420423  0.2806974349778955  1.0000
  C   C38       1.0  0.18527427231384755  0.5088900608521172  0.7193029505703947  1.0000
  C   C39       1.0  0.7438899335494683  0.5907189920418077  0.18813711828144616  1.0000
  C   C40       1.0  0.25610791006994293  0.4092814372265607  0.8118651865352933  1.0000
  O   O1        1.0  0.5536309281472781  0.9956374812404505  0.12783437249266436  1.0000
  O   O2        1.0  0.44637379698940555  0.0043592005956441  0.8721698080859499  1.0000
  O   O3        1.0  0.30378350567972484  0.1574502408133611  0.07955071296736803  1.0000
  O   O4        1.0  0.6962150940382229  0.8425483147388703  0.920450428200468  1.0000
  O   O5        1.0  0.163809739345659  0.0574753056827788  0.5546863122211292  1.0000
  O   O6        1.0  0.8361799187416424  0.9425354290243532  0.4453144360177674  1.0000
  O   O7        1.0  0.11709187039638642  0.8998147010722305  0.9060863326907695  1.0000
  O   O8        1.0  0.882907863469363  0.10018104390579198  0.09391232387265092  1.0000
  O   O9        1.0  0.21282525774900315  0.7597872097703942  0.8052338046874397  1.0000
  O   O10       1.0  0.7871739282004527  0.2402132194979743  0.19476252914897432  1.0000
  O   O11       1.0  0.5493015594850378  0.5804472801719172  0.8856864458705048  1.0000
  O   O12       1.0  0.4507012370900796  0.4195475279480334  0.11431003474291401  1.0000
  O   O13       1.0  0.7240011266537465  0.3805807902788985  0.9336925265959266  1.0000
  O   O14       1.0  0.27600225615288554  0.619415891557189  0.06630875539007523  1.0000
  O   O15       1.0  0.8242097653704191  0.43349921831345034  0.45969552635592953  1.0000
  O   O16       1.0  0.17579550768255814  0.5664927792322914  0.5403050639010731  1.0000
  O   O17       1.0  0.7347152904184213  0.560324505705168  0.10325425814652793  1.0000
  O   O18       1.0  0.2652802465901516  0.4396749867051284  0.8967475807091605  1.0000
  O   O19       1.0  0.6998636716939046  0.704193115090419  0.19698529185660632  1.0000
  O   O20       1.0  0.3001429820043384  0.2958054404618053  0.803016979983191  1.0000
  O   O21       1.0  0.9109761769008741  0.8629587046328382  0.07782595281654643  1.0000
  O   O22       1.0  0.08902510747717682  0.1370398509193933  0.9221743333568214  1.0000
  O   O23       1.0  0.36587729067344565  0.8326747675483546  0.06541613946600223  1.0000
  O   O24       1.0  0.6341184545173775  0.1673275354361508  0.9345844304070213  1.0000
  O   O25       1.0  0.9636009069876579  0.6330790296373152  0.9387166964526303  1.0000
  O   O26       1.0  0.036398657011069695  0.3669204627729812  0.061281272952570034  1.0000
