data_image0
_chemical_formula_structural       Zn4H32C56N16O8
_chemical_formula_sum              "Zn4 H32 C56 N16 O8"
_cell_length_a       7.656474275003076
_cell_length_b       10.971457769930382
_cell_length_c       15.864716949218224
_cell_angle_alpha    98.76088033427112
_cell_angle_beta     90.0000963186758
_cell_angle_gamma    90.00002110023676

_space_group_name_H-M_alt    "P 1"
_space_group_IT_number       1

loop_
  _space_group_symop_operation_xyz
  'x, y, z'

loop_
  _atom_site_type_symbol
  _atom_site_label
  _atom_site_symmetry_multiplicity
  _atom_site_fract_x
  _atom_site_fract_y
  _atom_site_fract_z
  _atom_site_occupancy
  Zn  Zn1       1.0  0.9476008922162575  0.024657969772143  0.8835031571768397  1.0000
  Zn  Zn2       1.0  0.4476003028509864  0.9753421625446991  0.6164954467222828  1.0000
  Zn  Zn3       1.0  0.05239925184411479  0.9753433682074473  0.116496229441573  1.0000
  Zn  Zn4       1.0  0.5523985351258887  0.024658258623929903  0.3835044773277616  1.0000
  H   H1        1.0  0.17085558676922116  0.531228943844411  0.7733964366091046  1.0000
  H   H2        1.0  0.6708545564379091  0.4687692206190093  0.7266017432918517  1.0000
  H   H3        1.0  0.8291458633745277  0.46877054973543153  0.22660276310130462  1.0000
  H   H4        1.0  0.3291455876194362  0.5312302621818362  0.2733961946450592  1.0000
  H   H5        1.0  0.4477702839077721  0.36488721984436273  0.8175938763256384  1.0000
  H   H6        1.0  0.9477744113031787  0.63511200112778  0.6824058960392777  1.0000
  H   H7        1.0  0.5522272479853213  0.6351141235239981  0.18240614117812734  1.0000
  H   H8        1.0  0.052223120593097895  0.36488659719793765  0.31759636464751406  1.0000
  H   H9        1.0  0.0624007976439103  0.32452368841100576  0.7070829876372855  1.0000
  H   H10       1.0  0.5624001076643949  0.6754725994399351  0.7929168051007736  1.0000
  H   H11       1.0  0.9376006524998385  0.675475805168837  0.29291621207312357  1.0000
  H   H12       1.0  0.4376039546477344  0.3245268941404973  0.2070823946107581  1.0000
  H   H13       1.0  0.7818329754501574  0.5421723770554578  0.9707596119518201  1.0000
  H   H14       1.0  0.28183180888571957  0.4578286089032276  0.5292395742734045  1.0000
  H   H15       1.0  0.21816847469358439  0.45782711652439195  0.029239587758588908  1.0000
  H   H16       1.0  0.7181631108396827  0.5421718176538805  0.4707609806614244  1.0000
  H   H17       1.0  0.027701178611522395  0.6412633223291949  0.9032256718712262  1.0000
  H   H18       1.0  0.5276996371871333  0.35873662267441386  0.5967725722968141  1.0000
  H   H19       1.0  0.9723002715329156  0.358735254439992  0.09677406527136868  1.0000
  H   H20       1.0  0.47229658862025997  0.6412637931042868  0.4032267208656394  1.0000
  H   H21       1.0  0.19542052739868146  0.2633323740972813  0.8764084677297532  1.0000
  H   H22       1.0  0.6954245030297556  0.7366676511148142  0.6235905510133222  1.0000
  H   H23       1.0  0.8045770044955134  0.7366689746604322  0.12359218066048068  1.0000
  H   H24       1.0  0.3045743349500185  0.26333186402185765  0.37641117224184484  1.0000
  H   H25       1.0  0.7753400001685831  0.2645972195433473  0.017362222831536697  1.0000
  H   H26       1.0  0.2753405622624143  0.7354035737612179  0.4826373197058373  1.0000
  H   H27       1.0  0.22466014389097205  0.7354022740362113  0.9826369768783112  1.0000
  H   H28       1.0  0.7246595818045662  0.26459779655448307  0.5173658522313858  1.0000
  H   H29       1.0  0.5234447580376979  0.16140483975381412  0.07475081902497752  1.0000
  H   H30       1.0  0.023442562037970998  0.8385930745821568  0.4252482273481561  1.0000
  H   H31       1.0  0.47655669210714524  0.8385946592153813  0.9252490115718928  1.0000
  H   H32       1.0  0.9765575820281994  0.16140645133351234  0.5747547576805019  1.0000
  C   C1        1.0  0.7907961752745293  0.19836764578263918  0.7613689315853945  1.0000
  C   C2        1.0  0.29079592064831417  0.801631494385255  0.7386294445240155  1.0000
  C   C3        1.0  0.20920658095421624  0.8016336921975268  0.23863045503414076  1.0000
  C   C4        1.0  0.7092055294976377  0.1983680099732936  0.2613710169593233  1.0000
  C   C5        1.0  0.06157556098693819  0.48875445265243667  0.8017998237682209  1.0000
  C   C6        1.0  0.5615757599886919  0.5112445906519129  0.6981989868531358  1.0000
  C   C7        1.0  0.9384245830715159  0.511245035537769  0.1981987450551586  1.0000
  C   C8        1.0  0.43842438406866074  0.4887548921489327  0.3017989510837751  1.0000
  C   C9        1.0  0.4641055665074276  0.3212291023659263  0.8744053098584603  1.0000
  C   C10       1.0  0.9641069064549085  0.6787701097245461  0.625592583840394  1.0000
  C   C11       1.0  0.5358945775522415  0.67877315242432  0.12559353932776673  1.0000
  C   C12       1.0  0.035891931525973995  0.3212294108014859  0.37440977030124156  1.0000
  C   C13       1.0  0.7809472428069878  0.3789550006006124  0.8764562280108167  1.0000
  C   C14       1.0  0.28094910353512137  0.6210441405635976  0.6235427705483332  1.0000
  C   C15       1.0  0.2190515951672722  0.6210444875892948  0.12354234081200131  1.0000
  C   C16       1.0  0.7190484283604589  0.37895537457278294  0.37645895270627255  1.0000
  C   C17       1.0  0.0010476059657875995  0.3730926914225847  0.7645834453771132  1.0000
  C   C18       1.0  0.5010479957958152  0.6269054026808831  0.7354152199353763  1.0000
  C   C19       1.0  0.9989525380904637  0.6269067859889149  0.23541386167332942  1.0000
  C   C20       1.0  0.49895345434793364  0.3730940908989595  0.2645839797750327  1.0000
  C   C21       1.0  0.8605398661751023  0.3183562668882801  0.8012766271172396  1.0000
  C   C22       1.0  0.3605407151331903  0.6816438319811909  0.6987225330832487  1.0000
  C   C23       1.0  0.13946027788225013  0.6816432159125726  0.19872131081967132  1.0000
  C   C24       1.0  0.6394607350120651  0.31835658918802784  0.30127739096791123  1.0000
  C   C25       1.0  0.6284893916759556  0.32217771077178986  0.913827178919064  1.0000
  C   C26       1.0  0.12849115189012383  0.6778232067825201  0.5861718759370262  1.0000
  C   C27       1.0  0.3715107523829032  0.6778226996184245  0.08617148335859777  1.0000
  C   C28       1.0  0.8715076860911636  0.32217723594352077  0.4138305716588917  1.0000
  C   C29       1.0  0.844052100998368  0.49470144622971196  0.913123338046468  1.0000
  C   C30       1.0  0.34405246668534045  0.5052986398952728  0.5868751771421756  1.0000
  C   C31       1.0  0.15594804306159196  0.5052989695498625  0.0868759551176623  1.0000
  C   C32       1.0  0.6559437591227493  0.49470085907276495  0.4131246534524636  1.0000
  C   C33       1.0  0.9821012305559617  0.5498626449942208  0.8755425943507406  1.0000
  C   C34       1.0  0.4821003922571733  0.45013750271281355  0.6244560391049276  1.0000
  C   C35       1.0  0.01790152567087229  0.4501368431965602  0.1244559744737614  1.0000
  C   C36       1.0  0.5178984457181882  0.5498619908664537  0.37554316060435877  1.0000
  C   C37       1.0  0.32255612241308995  0.26423545340792737  0.9071578980881017  1.0000
  C   C38       1.0  0.8225573780828339  0.7357637170961555  0.5928423978903083  1.0000
  C   C39       1.0  0.6774427155674941  0.7357659061287763  0.09284401207563059  1.0000
  C   C40       1.0  0.17744276598193656  0.26423764244083975  0.407159512273978  1.0000
  C   C41       1.0  0.6479057524734342  0.2662420649020376  0.9871586794076208  1.0000
  C   C42       1.0  0.14790728622308078  0.7337588613136675  0.512840392082488  1.0000
  C   C43       1.0  0.35209439158582956  0.7337592676881926  0.012840076324323489  1.0000
  C   C44       1.0  0.8520915517597061  0.2662425090017422  0.48716277985418094  1.0000
  C   C45       1.0  0.34336737869310235  0.20629841242784858  0.9793978010943007  1.0000
  C   C46       1.0  0.8433684127608244  0.79370167878119  0.5206013443944926  1.0000
  C   C47       1.0  0.6566314592841775  0.7937029309407964  0.020602216410026124  1.0000
  C   C48       1.0  0.15663042522167808  0.20630153054490566  0.4794013835642659  1.0000
  C   C49       1.0  0.5070441744542294  0.20796728222155997  0.019349407506922503  1.0000
  C   C50       1.0  0.007043453362477698  0.7920306194092531  0.480648993929897  1.0000
  C   C51       1.0  0.4929559696075286  0.7920322221366976  0.980651053975862  1.0000
  C   C52       1.0  0.9929553846196197  0.20797166771681927  0.519353640574586  1.0000
  C   C53       1.0  0.19484953370010058  0.1401256793125327  0.011947986542253397  1.0000
  C   C54       1.0  0.6948509280059909  0.8598741666649165  0.48805265535744985  1.0000
  C   C55       1.0  0.8051493042778757  0.8598747472454561  0.9880525683942523  1.0000
  C   C56       1.0  0.3051479099734991  0.14012718748243466  0.5119486239198068  1.0000
  N   N1        1.0  0.6900133686081844  0.18090035438942212  0.6916607034596681  1.0000
  N   N2        1.0  0.1900146725612188  0.8190987515993342  0.8083388480820944  1.0000
  N   N3        1.0  0.3099854693667723  0.8190982169898221  0.30833840279533586  1.0000
  N   N4        1.0  0.8099880836689194  0.1809007527595128  0.1916616134018057  1.0000
  N   N5        1.0  0.8091362363774833  0.0908405008875164  0.7930221718374071  1.0000
  N   N6        1.0  0.30913462184795293  0.9091586528507493  0.7069768508699356  1.0000
  N   N7        1.0  0.19086913201511624  0.9091580543251325  0.2069750417609839  1.0000
  N   N8        1.0  0.6908668282979986  0.09084085150780652  0.2930236106134103  1.0000
  N   N9        1.0  0.7184664547864442  0.0049973025003638  0.7423428868896949  1.0000
  N   N10       1.0  0.21846636844472297  0.995000883201996  0.7576553338001871  1.0000
  N   N11       1.0  0.2815376075226651  0.9950003359013241  0.2576548641403278  1.0000
  N   N12       1.0  0.7815350817001272  0.004998615767206601  0.24234449679669015  1.0000
  N   N13       1.0  0.6484602523475046  0.060359768464266515  0.68248731774883  1.0000
  N   N14       1.0  0.1484616518264161  0.9396393189880855  0.8175121981941658  1.0000
  N   N15       1.0  0.3515411977954272  0.9396378807155517  0.3175116950530139  1.0000
  N   N16       1.0  0.851541104403722  0.060360185370754486  0.18248826328973422  1.0000
  O   O1        1.0  0.04365760674912168  0.1429026849422002  0.9770786638114262  1.0000
  O   O2        1.0  0.543659988397593  0.8570954389483064  0.5229212997791066  1.0000
  O   O3        1.0  0.9563399251457625  0.8570977470048432  0.02292252201099388  1.0000
  O   O4        1.0  0.45634015566115227  0.14290221023121322  0.47707771302217594  1.0000
  O   O5        1.0  0.22512204809061837  0.0835609280689908  0.07494938610317091  1.0000
  O   O6        1.0  0.7251232523175587  0.9164407758127098  0.42505146863966564  1.0000
  O   O7        1.0  0.7748767898862565  0.916439493099638  0.9250505379468664  1.0000
  O   O8        1.0  0.2748781978289117  0.0835624119565495  0.5749487357743418  1.0000
