data_image0
_chemical_formula_structural       H24Pb2C34N4Cl4O4
_chemical_formula_sum              "H24 Pb2 C34 N4 Cl4 O4"
_cell_length_a       8.352500512312227
_cell_length_b       9.453204396813538
_cell_length_c       10.758088356344386
_cell_angle_alpha    95.55791158256294
_cell_angle_beta     91.83859775818571
_cell_angle_gamma    92.29350778197025

_space_group_name_H-M_alt    "P 1"
_space_group_IT_number       1

loop_
  _space_group_symop_operation_xyz
  'x, y, z'

loop_
  _atom_site_type_symbol
  _atom_site_label
  _atom_site_symmetry_multiplicity
  _atom_site_fract_x
  _atom_site_fract_y
  _atom_site_fract_z
  _atom_site_occupancy
  H   H1        1.0  0.43150300400278496  0.7420666754171705  0.6858028074357279  1.0000
  H   H2        1.0  0.568564496025246  0.2579241352316899  0.3140549765557594  1.0000
  H   H3        1.0  0.48735654607710194  0.4949108917355574  0.746358490580114  1.0000
  H   H4        1.0  0.5126029982147953  0.505145530111285  0.2536814783791925  1.0000
  H   H5        1.0  0.3590361516149372  0.28611515146415906  0.6166648903548619  1.0000
  H   H6        1.0  0.640966171544619  0.7138667846553588  0.3834312749033586  1.0000
  H   H7        1.0  0.1766991865276495  0.32421267591523417  0.43753167662783454  1.0000
  H   H8        1.0  0.8234366742477378  0.675666491485636  0.5624579198672991  1.0000
  H   H9        1.0  0.0644085969275565  0.3635691030728197  0.2814344383928074  1.0000
  H   H10       1.0  0.9355679540665773  0.6363327693468931  0.7184889395672371  1.0000
  H   H11       1.0  0.8987874391582338  0.4235233388525686  0.1006685515497381  1.0000
  H   H12       1.0  0.10121329090996063  0.5764507685152439  0.8992410131574929  1.0000
  H   H13       1.0  0.8508824119753198  0.6820338670036745  0.07658100520608707  1.0000
  H   H14       1.0  0.14902660430653467  0.3179503842395235  0.9234637588078698  1.0000
  H   H15       1.0  0.9734163171622471  0.8668933614495202  0.2383788241087927  1.0000
  H   H16       1.0  0.026419809268631404  0.13302637925433913  0.7617396020527281  1.0000
  H   H17       1.0  0.7316013428762601  0.0770850247596115  0.1898451881685901  1.0000
  H   H18       1.0  0.2683383468027856  0.9230489979645425  0.8101366283267808  1.0000
  H   H19       1.0  0.8730401785679331  0.054915460035559194  0.9897177361755212  1.0000
  H   H20       1.0  0.12694655780064326  0.9452248741177844  0.01030110420309432  1.0000
  H   H21       1.0  0.7967221884901787  0.8537178896976554  0.8279352101019127  1.0000
  H   H22       1.0  0.2034622003493425  0.14630918012275626  0.172143242644438  1.0000
  H   H23       1.0  0.5762707613098926  0.6799899606495501  0.8690692301164447  1.0000
  H   H24       1.0  0.42383426287154435  0.32007660195736076  0.1309519790880884  1.0000
  Pb  Pb1       1.0  0.24358337121196172  0.9168385199517318  0.47764780797336215  1.0000
  Pb  Pb2       1.0  0.7563392879190117  0.0831998915406515  0.5223720748578486  1.0000
  C   C1        1.0  0.3778824533039185  0.6456365960328226  0.6340424160726101  1.0000
  C   C2        1.0  0.6221588853447528  0.3543352535551564  0.3658661147293572  1.0000
  C   C3        1.0  0.40834917662047593  0.5099337232994471  0.666600677789546  1.0000
  C   C4        1.0  0.5916659643447064  0.4900639094711536  0.3333892923724804  1.0000
  C   C5        1.0  0.33578521379326526  0.3933144240675119  0.5942448394802184  1.0000
  C   C6        1.0  0.6642376558443317  0.6066481651309985  0.4057870145127751  1.0000
  C   C7        1.0  0.23581381739367657  0.4154657227701861  0.4927930634127691  1.0000
  C   C8        1.0  0.7642484431910929  0.5844487869334641  0.507198577022244  1.0000
  C   C9        1.0  0.2116897871977841  0.5547827500109079  0.46440289792429473  1.0000
  C   C10       1.0  0.7883275412814256  0.44512012746670127  0.5355541156365575  1.0000
  C   C11       1.0  0.1095276364431399  0.5845010322264842  0.3555316253701051  1.0000
  C   C12       1.0  0.8904444797867153  0.4153850037806421  0.6444433027355885  1.0000
  C   C13       1.0  0.0446373159699647  0.4746634736810052  0.2691355524171826  1.0000
  C   C14       1.0  0.9553383746189965  0.5252448375002247  0.7308134392536019  1.0000
  C   C15       1.0  0.950884746895184  0.5081698286423376  0.167722898387396  1.0000
  C   C16       1.0  0.04909279701265491  0.4917735966711376  0.8322327903493019  1.0000
  C   C17       1.0  0.9236917037043993  0.6504623494641422  0.154153164433346  1.0000
  C   C18       1.0  0.07623707330122187  0.3494877422119417  0.845865072035231  1.0000
  C   C19       1.0  0.9913298317578947  0.7538150352602243  0.2437850719740594  1.0000
  C   C20       1.0  0.008566289967319602  0.2461065240189129  0.7562755135385615  1.0000
  C   C21       1.0  0.49639813291319973  0.9191088748755191  0.2684806938102682  1.0000
  C   C22       1.0  0.5036028803643473  0.0809388504299662  0.7315326275330563  1.0000
  C   C23       1.0  0.5733954614069391  0.8944074637217199  0.14364085948630387  1.0000
  C   C24       1.0  0.42662600619505736  0.10566464713799918  0.8563638546832592  1.0000
  C   C25       1.0  0.6980337884330082  0.9906853443382386  0.11812862822011276  1.0000
  C   C26       1.0  0.3019626781368103  0.009412374376694304  0.8818748119505883  1.0000
  C   C27       1.0  0.7782040133105922  0.9772790482832576  0.006572837882821072  1.0000
  C   C28       1.0  0.22182404222778732  0.0228271115212308  0.9934451093255348  1.0000
  C   C29       1.0  0.7354551987372628  0.864782327138066  0.9162259068073128  1.0000
  C   C30       1.0  0.2646521648971428  0.13528320856044468  0.0838166543307963  1.0000
  C   C31       1.0  0.6120623281301647  0.7679023801386863  0.9385287824626117  1.0000
  C   C32       1.0  0.3880271824348823  0.23216529264735183  0.06149120265410349  1.0000
  C   C33       1.0  0.5306782156206395  0.7826823974625087  0.05028060586940339  1.0000
  C   C34       1.0  0.4693525902217672  0.21740773974708105  0.9497100448493255  1.0000
  N   N1        1.0  0.2826483305244095  0.6671745030204618  0.5353821355604396  1.0000
  N   N2        1.0  0.7173645815290685  0.33275809159056274  0.4645344910704168  1.0000
  N   N3        1.0  0.08141355496010051  0.7219630486512758  0.3417353150615554  1.0000
  N   N4        1.0  0.9185328869752638  0.27793593915041004  0.6582902487075231  1.0000
  Cl  Cl1       1.0  0.3730098462025992  0.6595654009209042  0.0625362559539155  1.0000
  Cl  Cl2       1.0  0.6269553311337716  0.3405748496736649  0.93740953555195  1.0000
  Cl  Cl3       1.0  0.9796883039105851  0.8906102303726795  0.6505664703384538  1.0000
  Cl  Cl4       1.0  0.0202077054720675  0.10930919738819256  0.3494920752801676  1.0000
  O   O1        1.0  0.40686181005192157  0.8189827049166567  0.3035215180449242  1.0000
  O   O2        1.0  0.5930444937638127  0.1811088707662307  0.6964605676065716  1.0000
  O   O3        1.0  0.5264902480577119  0.03738819460343731  0.3339498750454766  1.0000
  O   O4        1.0  0.47357147219537404  0.9626296158916291  0.666094067506954  1.0000
