data_image0
_chemical_formula_structural       Zn2H44C40N2Cl2O16
_chemical_formula_sum              "Zn2 H44 C40 N2 Cl2 O16"
_cell_length_a       9.972768653711153
_cell_length_b       10.98146914640208
_cell_length_c       13.96967709393665
_cell_angle_alpha    91.92338552516269
_cell_angle_beta     95.90165930632203
_cell_angle_gamma    91.59183276507783

_space_group_name_H-M_alt    "P 1"
_space_group_IT_number       1

loop_
  _space_group_symop_operation_xyz
  'x, y, z'

loop_
  _atom_site_type_symbol
  _atom_site_label
  _atom_site_symmetry_multiplicity
  _atom_site_fract_x
  _atom_site_fract_y
  _atom_site_fract_z
  _atom_site_occupancy
  Zn  Zn1       1.0  0.6378655086820542  0.514371834959064  0.49708487262437007  1.0000
  Zn  Zn2       1.0  0.3412188150204756  0.4971874080192222  0.4858066479932858  1.0000
  H   H1        1.0  0.9191090692241559  0.39041858567968996  0.7018001126647347  1.0000
  H   H2        1.0  0.7272905279086004  0.5918726360981237  0.21879581755383265  1.0000
  H   H3        1.0  0.8702215707482421  0.4986936706224439  0.22588058300981112  1.0000
  H   H4        1.0  0.0244627382462284  0.6834957016700257  0.24314240076173374  1.0000
  H   H5        1.0  0.9038591414295851  0.6998222339911847  0.14186959769245525  1.0000
  H   H6        1.0  0.8826644784705235  0.7789042588894405  0.2524653208980254  1.0000
  H   H7        1.0  0.8286896649997787  0.7023265582217989  0.6761341148939051  1.0000
  H   H8        1.0  0.002525753631232399  0.7180772081937974  0.7227868059903386  1.0000
  H   H9        1.0  0.8570095658513922  0.8519514709770991  0.815877173025484  1.0000
  H   H10       1.0  0.935287395432809  0.740019255796227  0.8906742123763322  1.0000
  H   H11       1.0  0.7619388036114572  0.7207905189540398  0.8445733378554152  1.0000
  H   H12       1.0  0.1627189902047874  0.5724372386384999  0.7163855384319575  1.0000
  H   H13       1.0  0.22249861208822347  0.9968092587209583  0.6625759104709771  1.0000
  H   H14       1.0  0.083345875403765  0.013150428852306098  0.5740984087366953  1.0000
  H   H15       1.0  0.05274627239703019  0.22619749249678733  0.6380116495740467  1.0000
  H   H16       1.0  0.036458001015383  0.11609476106689696  0.7268918908007791  1.0000
  H   H17       1.0  0.18772643489548804  0.20800697146609082  0.7304539933756473  1.0000
  H   H18       1.0  0.0818762249449989  0.7908525540933763  0.4123070704841112  1.0000
  H   H19       1.0  0.2447127669032909  0.7850821653959202  0.3709349582052467  1.0000
  H   H20       1.0  0.23067617595030757  0.0114087976913169  0.3351169690671724  1.0000
  H   H21       1.0  0.09858863525057869  0.9222772067359486  0.268931597051818  1.0000
  H   H22       1.0  0.0651216447340417  0.009855894641994198  0.37294344826094056  1.0000
  H   H23       1.0  0.1695193254815521  0.41075424333744326  0.7054690253606708  1.0000
  H   H24       1.0  0.5406020166335495  0.9847583791136216  0.2839349443177142  1.0000
  H   H25       1.0  0.5237562990131722  0.8235900579522522  0.2987844327121891  1.0000
  H   H26       1.0  0.6587157209418636  0.785163070400905  0.15992379251598265  1.0000
  H   H27       1.0  0.521309382831113  0.8789683313721498  0.12467007317081166  1.0000
  H   H28       1.0  0.68687453059799  0.9452012524940301  0.14990053995998656  1.0000
  H   H29       1.0  0.8903229952291485  0.11869150325239267  0.321708587827402  1.0000
  H   H30       1.0  0.8640108380243631  0.26790995908426407  0.37036872788103636  1.0000
  H   H31       1.0  0.7083951683562901  0.308721088146612  0.2210343426839714  1.0000
  H   H32       1.0  0.8717990762024002  0.2712136633749864  0.19028596766430889  1.0000
  H   H33       1.0  0.7375723331917854  0.16074488885733726  0.17323695136030884  1.0000
  H   H34       1.0  0.8007001057381515  0.12995467844095293  0.4924787653896842  1.0000
  H   H35       1.0  0.0450807974124672  0.3132496297722156  0.3060671020273773  1.0000
  H   H36       1.0  0.21909344758890362  0.35570747921916274  0.33431144095464294  1.0000
  H   H37       1.0  0.21949822574988784  0.45463296514311907  0.17475355105383264  1.0000
  H   H38       1.0  0.17263611099171774  0.2974087376863038  0.15875252531077416  1.0000
  H   H39       1.0  0.0467840975758733  0.4094503637430832  0.14483805248022455  1.0000
  H   H40       1.0  0.8355784493965074  0.4318049742998654  0.9111423153945422  1.0000
  H   H41       1.0  0.7268630675770424  0.31172187245142874  0.8577721726141119  1.0000
  H   H42       1.0  0.9325309432135002  0.28645711352204006  0.03625237274628998  1.0000
  H   H43       1.0  0.8208657496690462  0.16820649300554885  0.982262280573046  1.0000
  H   H44       1.0  0.9496844169615597  0.23106640694548017  0.9175218198539169  1.0000
  C   C1        1.0  0.4810824872547669  0.27215934578144646  0.5085033881916843  1.0000
  C   C2        1.0  0.7152791819012235  0.0904119762432316  0.44372511031544787  1.0000
  C   C3        1.0  0.0757722294112781  0.49995498576841857  0.5748299092357029  1.0000
  C   C4        1.0  0.5149911969339483  0.511147462982869  0.6759015714741138  1.0000
  C   C5        1.0  0.042643102179241096  0.510890870724424  0.4121906992888568  1.0000
  C   C6        1.0  0.9043781146573835  0.5422866175275515  0.4201507913198269  1.0000
  C   C7        1.0  0.9388961393614179  0.509359100849835  0.580683072242266  1.0000
  C   C8        1.0  0.9537564058464412  0.4840098349610926  0.6892100526764863  1.0000
  C   C9        1.0  0.1127053196497556  0.48984973895118594  0.6813807175755284  1.0000
  C   C10       1.0  0.4711175953024024  0.735181757647389  0.4827753676929091  1.0000
  C   C11       1.0  0.48964543509099906  0.47246142100601657  0.30973128629941726  1.0000
  C   C12       1.0  0.5362290008403292  0.4869158416038672  0.7772415218046902  1.0000
  C   C13       1.0  0.4891456939749901  0.45696418545242773  0.2068842011380382  1.0000
  C   C14       1.0  0.47471471855764236  0.4589894986120128  0.019665237307798077  1.0000
  C   C15       1.0  0.5703559324459277  0.4291529320144321  0.9585229348583792  1.0000
  C   C16       1.0  0.551476964128625  0.4576050483206586  0.860936417523902  1.0000
  C   C17       1.0  0.489090090681877  0.45263396575170123  0.11919838660990217  1.0000
  C   C18       1.0  0.7819579688313424  0.3466071965941211  0.9258321883316397  1.0000
  C   C19       1.0  0.8761784317606285  0.2526847672253679  0.9686326681694695  1.0000
  C   C20       1.0  0.8329331567432305  0.5866612557139061  0.24865299643075636  1.0000
  C   C21       1.0  0.9170148086933099  0.6940271768395048  0.2207473186685789  1.0000
  C   C22       1.0  0.9013200505688702  0.6868687981767891  0.7391580609926577  1.0000
  C   C23       1.0  0.5833026569931548  0.06957733078513678  0.4849964987822089  1.0000
  C   C24       1.0  0.861712816778585  0.7537322999809104  0.8280789218365285  1.0000
  C   C25       1.0  0.16427689161105974  0.0631511592564138  0.6194558714579087  1.0000
  C   C26       1.0  0.10787078443487988  0.1596327850326631  0.6825930728401699  1.0000
  C   C27       1.0  0.17338212533877587  0.8449221890943975  0.40298294886959946  1.0000
  C   C28       1.0  0.14030026567028386  0.9539240461132721  0.34170461320042717  1.0000
  C   C29       1.0  0.5892006462220676  0.8969287311010913  0.2753325725771346  1.0000
  C   C30       1.0  0.6164943888157381  0.8750158185808343  0.17159405715133144  1.0000
  C   C31       1.0  0.817992910170659  0.1930706000180678  0.32149671904790716  1.0000
  C   C32       1.0  0.7818101033382377  0.2362862737521282  0.22073875495780723  1.0000
  C   C33       1.0  0.12527252322983168  0.3788881271338056  0.2920634913409613  1.0000
  C   C34       1.0  0.4756190136931265  0.13606451333129138  0.5118970394944711  1.0000
  C   C35       1.0  0.14158360446735682  0.38601961206083496  0.1863586705918507  1.0000
  C   C36       1.0  0.3592707788300444  0.0657055645362874  0.5284322950130188  1.0000
  C   C37       1.0  0.35268644282335526  0.9369122347604484  0.50737528657163  1.0000
  C   C38       1.0  0.46776006281462656  0.8712134296435111  0.48758085977455307  1.0000
  C   C39       1.0  0.5817211930173373  0.943578481078809  0.47447425068698107  1.0000
  C   C40       1.0  0.7142593217555272  0.9432070740292245  0.4298681141308833  1.0000
  N   N1        1.0  0.1297325340405777  0.4944024113806689  0.49046757681894343  1.0000
  N   N2        1.0  0.849537558036843  0.5287409465865947  0.5044463893673237  1.0000
  Cl  Cl1       1.0  0.3227211501777276  0.517077855407642  0.9694006792779459  1.0000
  Cl  Cl2       1.0  0.8537497189090213  0.8750278216008595  0.5009158485163707  1.0000
  O   O1        1.0  0.5921271613701861  0.32795459761640433  0.53596415311668  1.0000
  O   O2        1.0  0.8207221994391674  0.5878080640292467  0.3520393692793036  1.0000
  O   O3        1.0  0.9007955164417893  0.5587305189301188  0.7580359582347995  1.0000
  O   O4        1.0  0.25296650926524933  0.12490788031985997  0.5588311229959402  1.0000
  O   O5        1.0  0.22666614008804228  0.8821485005986175  0.5008280228879229  1.0000
  O   O6        1.0  0.7172257568742495  0.8990801100037586  0.3353160494577948  1.0000
  O   O7        1.0  0.6961643615717321  0.1515345232862089  0.35699700333550055  1.0000
  O   O8        1.0  0.08363302667616067  0.5003760652051737  0.3238653636201505  1.0000
  O   O9        1.0  0.3721394740435926  0.3199400598939093  0.47338400863916513  1.0000
  O   O10       1.0  0.6165450771464691  0.5536262909377496  0.638125519493208  1.0000
  O   O11       1.0  0.39758822365303104  0.484954452824418  0.6355458005575015  1.0000
  O   O12       1.0  0.580726883974755  0.6888420647975408  0.46246514142696776  1.0000
  O   O13       1.0  0.3661467007207264  0.6764379280907703  0.502735911353632  1.0000
  O   O14       1.0  0.5972993274519566  0.4442265136975152  0.36030249973427425  1.0000
  O   O15       1.0  0.38360050420942576  0.5146609645424931  0.3400887236639249  1.0000
  O   O16       1.0  0.6843687031759202  0.3740109651250875  0.994241116511013  1.0000
