data_image0
_chemical_formula_structural       Zn2H38C34N6O8
_chemical_formula_sum              "Zn2 H38 C34 N6 O8"
_cell_length_a       9.302228483432168
_cell_length_b       9.30223698782708
_cell_length_c       11.151410440406387
_cell_angle_alpha    82.39631761639656
_cell_angle_beta     82.39639715129965
_cell_angle_gamma    65.99001320734831

_space_group_name_H-M_alt    "P 1"
_space_group_IT_number       1

loop_
  _space_group_symop_operation_xyz
  'x, y, z'

loop_
  _atom_site_type_symbol
  _atom_site_label
  _atom_site_symmetry_multiplicity
  _atom_site_fract_x
  _atom_site_fract_y
  _atom_site_fract_z
  _atom_site_occupancy
  Zn  Zn1       1.0  0.783062758984812  0.8359384675838653  0.7471164657598379  1.0000
  Zn  Zn2       1.0  0.16406201060460285  0.216937142489563  0.25288370982369196  1.0000
  H   H1        1.0  0.5062897277084842  0.23269973309972866  0.2252706375096309  1.0000
  H   H2        1.0  0.7673012829113615  0.4937093751358859  0.7747279770791876  1.0000
  H   H3        1.0  0.9688200950354043  0.8606088628090374  0.5141689254070413  1.0000
  H   H4        1.0  0.13939077889146032  0.03117927384454329  0.4858315017282564  1.0000
  H   H5        1.0  0.9227553340939207  0.9734342191046892  0.30550787624851233  1.0000
  H   H6        1.0  0.026567623808297487  0.0772430192219886  0.6944923209417908  1.0000
  H   H7        1.0  0.4236670249444074  0.19391374917464074  0.4241440222643789  1.0000
  H   H8        1.0  0.806089117897791  0.5763316027590123  0.5758562066837101  1.0000
  H   H9        1.0  0.4933824988467421  0.06642570354815548  0.6321068337507256  1.0000
  H   H10       1.0  0.9335764973658129  0.50661505226212  0.367893710508099  1.0000
  H   H11       1.0  0.9399310247346334  0.7617189360362173  0.9784012759100021  1.0000
  H   H12       1.0  0.2382816116741253  0.060068782861605996  0.02159904656992499  1.0000
  H   H13       1.0  0.8824155548825275  0.8643083418535225  0.17598550977584174  1.0000
  H   H14       1.0  0.13569383220125528  0.11758467401973148  0.8240144869113166  1.0000
  H   H15       1.0  0.5031751700995102  0.276978524033531  0.02439042727522179  1.0000
  H   H16       1.0  0.7230202429313619  0.4968232302625849  0.975609380073756  1.0000
  H   H17       1.0  0.5778532194452807  0.15195964875027804  0.8295241558925426  1.0000
  H   H18       1.0  0.8480392201937478  0.4221460188577452  0.1704756723920156  1.0000
  H   H19       1.0  0.4254483284685121  0.628360961235586  0.9107936059478874  1.0000
  H   H20       1.0  0.37163827539720984  0.5745511693802783  0.08920665748843962  1.0000
  H   H21       1.0  0.2684612574014623  0.7984894831662216  0.851697325486974  1.0000
  H   H22       1.0  0.20151043950614428  0.7315392045051538  0.14830075829337366  1.0000
  H   H23       1.0  0.510723355706439  0.5252081553905228  0.7113419479203528  1.0000
  H   H24       1.0  0.4747929094240391  0.48927631651034886  0.2886582121991453  1.0000
  H   H25       1.0  0.3795330505897923  0.7030465647216103  0.639393697551746  1.0000
  H   H26       1.0  0.2969530858213574  0.6204675384223464  0.3606063245962545  1.0000
  H   H27       1.0  0.38500445311960624  0.35941603491708907  0.863644439573811  1.0000
  H   H28       1.0  0.6405837478529789  0.6149954274497273  0.13635496724624122  1.0000
  H   H29       1.0  0.1816562656975833  0.4013167781829097  0.8602745556527652  1.0000
  H   H30       1.0  0.598682798645399  0.8183443448690325  0.13972553705820448  1.0000
  H   H31       1.0  0.2383406163640557  0.5245548398339822  0.9339989698160094  1.0000
  H   H32       1.0  0.4754445223928486  0.7616602199268171  0.06600108013523705  1.0000
  H   H33       1.0  0.288175572544695  0.5229513975306403  0.5410934211589407  1.0000
  H   H34       1.0  0.477048408027059  0.7118241239811026  0.4589067377177471  1.0000
  H   H35       1.0  0.21201150380417738  0.3967149618509467  0.6373188992898164  1.0000
  H   H36       1.0  0.603285038753846  0.7879885022198394  0.36268123517697143  1.0000
  H   H37       1.0  0.4170598075573648  0.35921572682972425  0.6290269559541954  1.0000
  H   H38       1.0  0.6407843724010576  0.5829411270201204  0.37097321656316506  1.0000
  C   C1        1.0  0.8488480977489701  0.9312133587983025  0.4900094656572023  1.0000
  C   C2        1.0  0.0687853978709612  0.15114998605449154  0.5099910819383311  1.0000
  C   C3        1.0  0.8209298119716523  0.9940505578641206  0.3714795944228229  1.0000
  C   C4        1.0  0.005949808556067573  0.1790689053665488  0.6285206490762291  1.0000
  C   C5        1.0  0.664955439302993  0.08679082878008158  0.34346990010109124  1.0000
  C   C6        1.0  0.9132100060123418  0.3350421260693393  0.6565308876440809  1.0000
  C   C7        1.0  0.5457979448235406  0.11927640275784772  0.4406197187749186  1.0000
  C   C8        1.0  0.8807239005085705  0.45420048258684886  0.5593809378780534  1.0000
  C   C9        1.0  0.5836002093997761  0.0504589277448062  0.5560421785803271  1.0000
  C   C10       1.0  0.949539268880521  0.4163981037702697  0.44395968634495375  1.0000
  C   C11       1.0  0.8460145878762899  0.8779941591249026  0.9905589289763981  1.0000
  C   C12       1.0  0.1220068654365605  0.15398509829604728  0.009441223126458495  1.0000
  C   C13       1.0  0.8131853572546746  0.9382430326842693  0.10299495307181421  1.0000
  C   C14       1.0  0.061758404977034276  0.18681363693821137  0.897006068457614  1.0000
  C   C15       1.0  0.6842166872303821  0.08374718072138167  0.1195188798755424  1.0000
  C   C16       1.0  0.9162531804073877  0.3157829351633623  0.8804808503773528  1.0000
  C   C17       1.0  0.6036604404611764  0.1643766497685704  0.01620274373465952  1.0000
  C   C18       1.0  0.8356237821487722  0.3963390402155511  0.9837968937551551  1.0000
  C   C19       1.0  0.6442725536838907  0.09516366945660337  0.9081592690881308  1.0000
  C   C20       1.0  0.9048368994078824  0.35572561576515227  0.09184146322280648  1.0000
  C   C21       1.0  0.49868697994859446  0.7977598344392758  0.8041912284652355  1.0000
  C   C22       1.0  0.20223934526983803  0.501312156859143  0.19580991781676718  1.0000
  C   C23       1.0  0.3886900201345611  0.7121542209282694  0.8301769258103775  1.0000
  C   C24       1.0  0.287846120324609  0.6113102412973815  0.16982215956362984  1.0000
  C   C25       1.0  0.39384800198522646  0.6227344264101261  0.7227531687968423  1.0000
  C   C26       1.0  0.3772647300004762  0.60615276744128  0.2772460502619437  1.0000
  C   C27       1.0  0.266658769720422  0.5549478490302986  0.7348230367233555  1.0000
  C   C28       1.0  0.4450510208897285  0.7333414820267024  0.26517623397499784  1.0000
  C   C29       1.0  0.10213284369246628  0.6886231730073217  0.7252421247490374  1.0000
  C   C30       1.0  0.31137671568064473  0.8978670336678645  0.2747577855229082  1.0000
  C   C31       1.0  0.2677211550663189  0.454630736489463  0.8555465023247352  1.0000
  C   C32       1.0  0.5453685035983465  0.7322793732103676  0.1444527603007657  1.0000
  C   C33       1.0  0.2971522171466034  0.45234683598990694  0.6290725020207972  1.0000
  C   C34       1.0  0.547652689997129  0.7028476225354722  0.3709268248187172  1.0000
  N   N1        1.0  0.733071953600188  0.9546863408565683  0.5816888750884246  1.0000
  N   N2        1.0  0.045313668011751004  0.2669273154175684  0.41831221348100905  1.0000
  N   N3        1.0  0.6218206543664522  0.15008080514025576  0.2280097116943836  1.0000
  N   N4        1.0  0.8499187952267634  0.37817817055977787  0.7719901101164622  1.0000
  N   N5        1.0  0.7624346769601045  0.9517568359791396  0.8941662752867073  1.0000
  N   N6        1.0  0.0482424905293115  0.2375643924651598  0.10583403397672698  1.0000
  O   O1        1.0  0.6477517115320096  0.7083156230294279  0.7790741935781541  1.0000
  O   O2        1.0  0.2916855326400595  0.3522483783554974  0.22092588168928984  1.0000
  O   O3        1.0  0.4482965217535833  0.9442524230920951  0.8060484709948313  1.0000
  O   O4        1.0  0.05574716906243539  0.5517026831770336  0.19395160266311956  1.0000
  O   O5        1.0  0.0853231504932239  0.8279461994234224  0.6910098371647849  1.0000
  O   O6        1.0  0.1720531003791167  0.9146780528527072  0.30899079110909616  1.0000
  O   O7        1.0  0.9842791420564225  0.6461385548140653  0.7526545615572289  1.0000
  O   O8        1.0  0.3538614129252267  0.015721153541654997  0.247344077375395  1.0000
