data_image0
_chemical_formula_structural       Cu4H32C48Br4N8
_chemical_formula_sum              "Cu4 H32 C48 Br4 N8"
_cell_length_a       7.246034328372751
_cell_length_b       8.451682372122807
_cell_length_c       17.60876547115128
_cell_angle_alpha    89.99958136420153
_cell_angle_beta     89.99980784258388
_cell_angle_gamma    93.35337238440825

_space_group_name_H-M_alt    "P 1"
_space_group_IT_number       1

loop_
  _space_group_symop_operation_xyz
  'x, y, z'

loop_
  _atom_site_type_symbol
  _atom_site_label
  _atom_site_symmetry_multiplicity
  _atom_site_fract_x
  _atom_site_fract_y
  _atom_site_fract_z
  _atom_site_occupancy
  Cu  Cu1       1.0  0.5750254599039124  0.30328618969242177  0.29483689715598155  1.0000
  Cu  Cu2       1.0  0.0750270394546817  0.3032800314110631  0.205168829344494  1.0000
  Cu  Cu3       1.0  0.42497616223355555  0.6967209563630306  0.7051734285401421  1.0000
  Cu  Cu4       1.0  0.9249749318521123  0.6967069853711293  0.794827298911869  1.0000
  H   H1        1.0  0.272385656162534  0.3248010541642472  0.6038899648023204  1.0000
  H   H2        1.0  0.7723955193025914  0.3248318232514009  0.8961128343676066  1.0000
  H   H3        1.0  0.72759198657058  0.6751690770145303  0.3961095708939836  1.0000
  H   H4        1.0  0.2275987875637213  0.6751941806190019  0.10389067651288998  1.0000
  H   H5        1.0  0.6103126365819022  0.7263681825824122  0.1108221005643699  1.0000
  H   H6        1.0  0.11028517175440558  0.7263374570595147  0.3891684748655635  1.0000
  H   H7        1.0  0.38971619773540306  0.2736582538807681  0.889185385584639  1.0000
  H   H8        1.0  0.8897003934538501  0.2736256675498225  0.6108060732822764  1.0000
  H   H9        1.0  0.4971473239654783  0.22128745260202015  0.1373115696495688  1.0000
  H   H10       1.0  0.9971031191004656  0.22125411400661227  0.36268761799268384  1.0000
  H   H11       1.0  0.5029024696559645  0.7787439838333938  0.8626959164763901  1.0000
  H   H12       1.0  0.0028605305676166156  0.7787122888914838  0.6373033992349377  1.0000
  H   H13       1.0  0.5620062892487495  0.18174270928055586  0.5761873354591458  1.0000
  H   H14       1.0  0.062011739695542197  0.18176751695428092  0.9238134102543893  1.0000
  H   H15       1.0  0.43797249176596137  0.8182226988144309  0.42381106444663885  1.0000
  H   H16       1.0  0.9379805790580917  0.8182466186885976  0.0761810142644066  1.0000
  H   H17       1.0  0.6642892211771352  0.971971190837067  0.3251722675887194  1.0000
  H   H18       1.0  0.16432489690582489  0.9719789631651564  0.1748327118982331  1.0000
  H   H19       1.0  0.3356945073554272  0.028036915308398108  0.6748437371077995  1.0000
  H   H20       1.0  0.835717202127931  0.028036980587359005  0.8251577372904817  1.0000
  H   H21       1.0  0.6831371945756711  0.18012892252058782  0.4439497056479097  1.0000
  H   H22       1.0  0.1831491148794839  0.1801382596600974  0.056050054864385884  1.0000
  H   H23       1.0  0.3168539100418996  0.8198615110932579  0.556049830003829  1.0000
  H   H24       1.0  0.8168636168409475  0.8198702100825414  0.9439415301553992  1.0000
  H   H25       1.0  0.6843697043315018  0.7222378931667777  0.24947402585043926  1.0000
  H   H26       1.0  0.184391760757677  0.722234833248791  0.2505238452349161  1.0000
  H   H27       1.0  0.31561426703935774  0.27777495340333763  0.750538571443762  1.0000
  H   H28       1.0  0.8156512337721791  0.27777164708498947  0.7494575175859379  1.0000
  H   H29       1.0  0.2508934814666546  0.43550618512255557  0.3641995025638707  1.0000
  H   H30       1.0  0.7509216095380182  0.43552705262915475  0.1358043870117882  1.0000
  H   H31       1.0  0.7490996719982519  0.56449730186759  0.6358028725586563  1.0000
  H   H32       1.0  0.24911526856269714  0.5644947472885278  0.8642002596448748  1.0000
  C   C1        1.0  0.32779354173418074  0.3165907130701839  0.5465429340044494  1.0000
  C   C2        1.0  0.8278070149941568  0.31662062820316805  0.9534586821425604  1.0000
  C   C3        1.0  0.6721882442952632  0.6833794700234962  0.4534566016889342  1.0000
  C   C4        1.0  0.17219551776449288  0.6834042944065786  0.0465436929362326  1.0000
  C   C5        1.0  0.6047864574033068  0.8333178942630682  0.14510768342348257  1.0000
  C   C6        1.0  0.10476633823309811  0.8332901670251972  0.35488650242565  1.0000
  C   C7        1.0  0.39522844450441846  0.1667059989336437  0.8549020743354132  1.0000
  C   C8        1.0  0.8952155692973419  0.1666823864198577  0.6450937246981069  1.0000
  C   C9        1.0  0.5419920695041965  0.10936659871234872  0.1595620159844984  1.0000
  C   C10       1.0  0.04196806279635009  0.10934141801537581  0.34044102364728696  1.0000
  C   C11       1.0  0.458028235376858  0.8906549934874166  0.8404500133706421  1.0000
  C   C12       1.0  0.9580080774584303  0.8906263257133916  0.6595516972664084  1.0000
  C   C13       1.0  0.4878614127485007  0.2393760389873592  0.5310909955104606  1.0000
  C   C14       1.0  0.9878748030632207  0.2394068951563355  0.9689078310001091  1.0000
  C   C15       1.0  0.5121145453603971  0.7605881493937688  0.4689079722983607  1.0000
  C   C16       1.0  0.01213313271627211  0.7606157265372105  0.031086593493228096  1.0000
  C   C17       1.0  0.6326907252728801  0.9692733861770151  0.2646456203131819  1.0000
  C   C18       1.0  0.13270607795330847  0.9692716644655165  0.23535543654183036  1.0000
  C   C19       1.0  0.3672930639837729  0.030735905099277303  0.7353664090883568  1.0000
  C   C20       1.0  0.8673103114264648  0.0307273764100131  0.7646344447949216  1.0000
  C   C21       1.0  0.5560400209407063  0.2373541271411881  0.4572317143757445  1.0000
  C   C22       1.0  0.056057953365076685  0.2373708539101784  0.042767452855059694  1.0000
  C   C23       1.0  0.4439398527671513  0.7626326127301369  0.5427683891890993  1.0000
  C   C24       1.0  0.9439606669815246  0.762644795644441  0.9572247000471776  1.0000
  C   C25       1.0  0.6442870148304961  0.831200757257456  0.2224282423967026  1.0000
  C   C26       1.0  0.14430311328639786  0.8311936455925348  0.27756987200857  1.0000
  C   C27       1.0  0.35569557544158664  0.16881207200768242  0.7775843548984724  1.0000
  C   C28       1.0  0.8557088900036189  0.16880060301970448  0.7224137624507136  1.0000
  C   C29       1.0  0.3157798133231111  0.3812127195323711  0.41290370526962755  1.0000
  C   C30       1.0  0.8158002897410837  0.3812378078547667  0.08710085248224429  1.0000
  C   C31       1.0  0.6842142355982971  0.6187813039717653  0.5870981019697794  1.0000
  C   C32       1.0  0.18422397636962273  0.6187802810468241  0.9129003867956127  1.0000
  C   C33       1.0  0.07211784411337159  0.4669713986941773  0.49633716961668745  1.0000
  C   C34       1.0  0.5721071944187769  0.4669677967407537  0.003671398268401999  1.0000
  C   C35       1.0  0.9278767511427402  0.533033290677949  0.5036680449976743  1.0000
  C   C36       1.0  0.4278851091279277  0.5330190987900495  0.9963394953683391  1.0000
  C   C37       1.0  0.5542131841270431  0.9763731981445007  0.1120722172157969  1.0000
  C   C38       1.0  0.05416915770648247  0.9763422846573415  0.3879249470950085  1.0000
  C   C39       1.0  0.44583360446382153  0.023653463265311796  0.8879375405164678  1.0000
  C   C40       1.0  0.9457859018725258  0.023618088967609203  0.6120592553611954  1.0000
  C   C41       1.0  0.5159368556408596  0.9909921667323333  0.0337061336104085  1.0000
  C   C42       1.0  0.015855767122793893  0.9909512697424744  0.46628762481576996  1.0000
  C   C43       1.0  0.4841424874001844  0.0090502989933157  0.9663024882740957  1.0000
  C   C44       1.0  0.9840532305516089  0.008999052023099797  0.5336965776894473  1.0000
  C   C45       1.0  0.23764927489411747  0.38888122526565644  0.48585093761509757  1.0000
  C   C46       1.0  0.7376657398837876  0.3888967480745649  0.014154836156229998  1.0000
  C   C47       1.0  0.7623402664972685  0.611105635726979  0.5141508696398702  1.0000
  C   C48       1.0  0.26234014698764696  0.6111128201395105  0.9858498105429305  1.0000
  Br  Br1       1.0  0.864600136725272  0.46749788420961386  0.2881670074771207  1.0000
  Br  Br2       1.0  0.3645970404328338  0.46750932780670246  0.21184286203791194  1.0000
  Br  Br3       1.0  0.13539600657121298  0.5324831377075301  0.7118478614601  1.0000
  Br  Br4       1.0  0.635386506056804  0.5324952231660518  0.7881572414934084  1.0000
  N   N1        1.0  0.47190293618454854  0.3076875675965454  0.3985137341484303  1.0000
  N   N2        1.0  0.971920273805267  0.30770765362318303  0.1014880265292106  1.0000
  N   N3        1.0  0.5280897923437067  0.6923076237020566  0.6014880730898468  1.0000
  N   N4        1.0  0.0281038709126804  0.6923080651109431  0.8985092374599687  1.0000
  N   N5        1.0  0.5816102307609937  0.10717397517120733  0.23408567251821916  1.0000
  N   N6        1.0  0.08162060965292277  0.1071610528920246  0.2659178883935596  1.0000
  N   N7        1.0  0.41838623120976587  0.8928402122520114  0.7659257889671378  1.0000
  N   N8        1.0  0.9183884492778133  0.8928296057357344  0.734075400356694  1.0000
