data_image0
_chemical_formula_structural       Cu4H42C46N12O12
_chemical_formula_sum              "Cu4 H42 C46 N12 O12"
_cell_length_a       8.679977255618583
_cell_length_b       9.974324255307925
_cell_length_c       16.67190552478048
_cell_angle_alpha    89.60002044733697
_cell_angle_beta     77.55877940615673
_cell_angle_gamma    77.42528466808209

_space_group_name_H-M_alt    "P 1"
_space_group_IT_number       1

loop_
  _space_group_symop_operation_xyz
  'x, y, z'

loop_
  _atom_site_type_symbol
  _atom_site_label
  _atom_site_symmetry_multiplicity
  _atom_site_fract_x
  _atom_site_fract_y
  _atom_site_fract_z
  _atom_site_occupancy
  Cu  Cu1       1.0  0.31517449582977264  0.004935820401648499  0.3453679449835718  1.0000
  Cu  Cu2       1.0  0.6848303094617946  0.9950615922782834  0.6546308251120365  1.0000
  Cu  Cu3       1.0  0.3076491950772961  0.989763648617185  0.7019942222179978  1.0000
  Cu  Cu4       1.0  0.6923508933468554  0.010233788624788099  0.2980062851393441  1.0000
  H   H1        1.0  0.967275251057842  0.7276965642664593  0.5013667276319183  1.0000
  H   H2        1.0  0.032726419746879294  0.2723039449309255  0.4986329916504956  1.0000
  H   H3        1.0  0.9568597740365306  0.7275867999782406  0.6129054266297658  1.0000
  H   H4        1.0  0.0431404510666056  0.27241474895946993  0.3870938549663165  1.0000
  H   H5        1.0  0.37339751434858215  0.1297177005059424  0.5203601761471505  1.0000
  H   H6        1.0  0.6266029746391696  0.8702828166722868  0.47963967783278605  1.0000
  H   H7        1.0  0.23374080716023118  0.8143827058308234  0.22987029034701584  1.0000
  H   H8        1.0  0.7662578251618726  0.18561577851281896  0.7701285808523366  1.0000
  H   H9        1.0  0.025467852173449063  0.8775006080876506  0.2726771609644274  1.0000
  H   H10       1.0  0.9745293500477674  0.12249890495431262  0.7273230702560838  1.0000
  H   H11       1.0  0.23160501895193164  0.5949581144658964  0.2965371130288617  1.0000
  H   H12       1.0  0.7683919245849111  0.40504242665487306  0.7034631450436208  1.0000
  H   H13       1.0  0.0637190199856761  0.6323818600876265  0.24787367074341662  1.0000
  H   H14       1.0  0.9362772539027164  0.36761663653704346  0.752126069086799  1.0000
  H   H15       1.0  0.8730174184544667  0.7056367673626769  0.3747133893512427  1.0000
  H   H16       1.0  0.1269801895305918  0.2943658219348677  0.6252867877276884  1.0000
  H   H17       1.0  0.0014684289457207384  0.552497961985857  0.3978613675477263  1.0000
  H   H18       1.0  0.998528519791357  0.44750257545423733  0.6021394897605958  1.0000
  H   H19       1.0  0.0850048467902766  0.8990541617452903  0.8455033953501214  1.0000
  H   H20       1.0  0.91499603756084  0.10094943904986313  0.15449520601656994  1.0000
  H   H21       1.0  0.19857492626897508  0.7311314230616048  0.8173157711469656  1.0000
  H   H22       1.0  0.8014238687332877  0.2688711545744198  0.18268487047027548  1.0000
  H   H23       1.0  0.9199686758534044  0.7102963049889154  0.8641432032454263  1.0000
  H   H24       1.0  0.0800269638610729  0.2897093838872422  0.13585599061529052  1.0000
  H   H25       1.0  0.8470594093962658  0.8493551622074735  0.8051603211035074  1.0000
  H   H26       1.0  0.1529412110702353  0.15064947034716172  0.1948377078793371  1.0000
  H   H27       1.0  0.05979854236061752  0.5687773641057774  0.7370891656707529  1.0000
  H   H28       1.0  0.9401990708246759  0.4312252215110988  0.26291161064401086  1.0000
  H   H29       1.0  0.8563245854432395  0.6357599273663865  0.7300469198497836  1.0000
  H   H30       1.0  0.14367249997282266  0.3642447217694452  0.2699527116972718  1.0000
  H   H31       1.0  0.3298246748624933  0.5109981281263387  0.4774934489440952  1.0000
  H   H32       1.0  0.67017474911345  0.48899726093886625  0.5225071394068053  1.0000
  H   H33       1.0  0.46253522152086657  0.7070987995497547  0.4369287809622193  1.0000
  H   H34       1.0  0.5374725011750384  0.2928965152461699  0.5630738606852148  1.0000
  H   H35       1.0  0.6693021133551227  0.5169162076274887  0.1964685229190621  1.0000
  H   H36       1.0  0.33070102395213047  0.4830832471068902  0.8035340309930135  1.0000
  H   H37       1.0  0.539924626594356  0.3161239224531016  0.23823800326794503  1.0000
  H   H38       1.0  0.46007257562686726  0.6838755905888619  0.7617622279525591  1.0000
  H   H39       1.0  0.26967478975258535  0.9495382942077767  0.1039395736727826  1.0000
  H   H40       1.0  0.7303249231820316  0.0504653072068777  0.8960603608630892  1.0000
  H   H41       1.0  0.7301016080535659  0.0621826090505024  0.046619442151978795  1.0000
  H   H42       1.0  0.2698983583651967  0.9378199679660141  0.953379866296082  1.0000
  C   C1        1.0  0.30607458785176067  0.04950669907788811  0.5255469444570834  1.0000
  C   C2        1.0  0.6939270725524979  0.9504938174808332  0.47445157635366547  1.0000
  C   C3        1.0  0.17227737167497284  0.8931952030758127  0.5792984810147459  1.0000
  C   C4        1.0  0.827726246599383  0.10680222126563167  0.4206998245425524  1.0000
  C   C5        1.0  0.1753105391546157  0.8964902319399498  0.494772848913712  1.0000
  C   C6        1.0  0.824694002252336  0.10350821249946311  0.5052253487980423  1.0000
  C   C7        1.0  0.12631961398916747  0.8285510015218949  0.42884904310020033  1.0000
  C   C8        1.0  0.8736834973169038  0.1714484716158324  0.5711505146327128  1.0000
  C   C9        1.0  0.13743985548782686  0.8107644733396597  0.28409389618507674  1.0000
  C   C10       1.0  0.8625576002175422  0.18923401530416578  0.7159057089476164  1.0000
  C   C11       1.0  0.11414151866222261  0.6644721705093418  0.2976414552172458  1.0000
  C   C12       1.0  0.8858547552261697  0.3355263261153283  0.7023582846129699  1.0000
  C   C13       1.0  0.9976482060345189  0.6589362298039774  0.37942631955086636  1.0000
  C   C14       1.0  0.002349924519528219  0.3410642996552795  0.6205744030599334  1.0000
  C   C15       1.0  0.11555095094065138  0.8232612448534624  0.654834599587332  1.0000
  C   C16       1.0  0.8844512320325962  0.17673721186697117  0.3451644667552927  1.0000
  C   C17       1.0  0.10391613765010989  0.8127630987588077  0.8011359002011531  1.0000
  C   C18       1.0  0.8960835700842722  0.18724050633651498  0.19886343509889312  1.0000
  C   C19       1.0  0.9485549243088587  0.7621514374085265  0.8062394667609353  1.0000
  C   C20       1.0  0.05144452474115007  0.23785319576560945  0.1937598953910822  1.0000
  C   C21       1.0  0.9702677030274458  0.6641408052744138  0.732952104039171  1.0000
  C   C22       1.0  0.029730564205586098  0.33586383588057345  0.2670473928103618  1.0000
  C   C23       1.0  0.33825828762861937  0.2895012078442605  0.3816279902471607  1.0000
  C   C24       1.0  0.6617406137783277  0.7104962410592321  0.6183720525718641  1.0000
  C   C25       1.0  0.4279315459513953  0.40182809307129475  0.3601382325836369  1.0000
  C   C26       1.0  0.5720665794024173  0.5981724400686305  0.6398618907913373  1.0000
  C   C27       1.0  0.40627664901934674  0.5115593291121385  0.4164554498501687  1.0000
  C   C28       1.0  0.5937205636023464  0.48844017656848127  0.5835459798420004  1.0000
  C   C29       1.0  0.47979183416730814  0.6210691739585387  0.393620173426541  1.0000
  C   C30       1.0  0.5202077524887941  0.37893030839904174  0.6063821853422553  1.0000
  C   C31       1.0  0.5737199992609873  0.6235976237890456  0.31407555670908494  1.0000
  C   C32       1.0  0.42628061693239516  0.3763977499339716  0.6859260954159582  1.0000
  C   C33       1.0  0.5958908860819463  0.5131534456429276  0.25808223378381  1.0000
  C   C34       1.0  0.4041118402612297  0.4868429365165384  0.7419197750340132  1.0000
  C   C35       1.0  0.5243927461931224  0.4025869750845955  0.2810693776243056  1.0000
  C   C36       1.0  0.47560775839534125  0.5974135310516218  0.7189322740631212  1.0000
  C   C37       1.0  0.6533273675044028  0.7412657134454507  0.2874820178282178  1.0000
  C   C38       1.0  0.3466604425838753  0.2587338192752355  0.7125264818023993  1.0000
  C   C39       1.0  0.5006711149005909  0.0134080276853155  0.17350967111943313  1.0000
  C   C40       1.0  0.4993305455036677  0.9865924888734054  0.826488849691323  1.0000
  C   C41       1.0  0.49976923521745686  0.007223175176108002  0.08380901331612021  1.0000
  C   C42       1.0  0.5002346417412865  0.9927732210865303  0.9161892653891996  1.0000
  C   C43       1.0  0.3696831097197517  0.9719027404510853  0.0579168763989273  1.0000
  C   C44       1.0  0.6303188041686454  0.028096751709497905  0.9420810183240178  1.0000
  C   C45       1.0  0.6300957052096906  0.0352106093596305  0.02533057288416529  1.0000
  C   C46       1.0  0.3699064569626174  0.9647878620834834  0.9746660965151365  1.0000
  N   N1        1.0  0.2593395913763031  0.9959425490019173  0.4640624814709327  1.0000
  N   N2        1.0  0.740662312111624  0.004056950520009701  0.5359342147803475  1.0000
  N   N3        1.0  0.2549033741332495  0.9907714454743795  0.5953894017861926  1.0000
  N   N4        1.0  0.745095912236593  0.009229094407381  0.4046081899479291  1.0000
  N   N5        1.0  0.17974138946631513  0.8683075185481642  0.3544328039657358  1.0000
  N   N6        1.0  0.820261463155383  0.13169298266837612  0.6455667806191556  1.0000
  N   N7        1.0  0.03979024824249684  0.7313703923406364  0.4446451823334314  1.0000
  N   N8        1.0  0.9602107529137811  0.2686280723606417  0.5553540187067085  1.0000
  N   N9        1.0  0.16434781811358332  0.8592310283425632  0.7195968789996244  1.0000
  N   N10       1.0  0.8356513367775096  0.1407653961627915  0.2804025377315896  1.0000
  N   N11       1.0  0.023695189463893533  0.7302763898341311  0.6565255804874894  1.0000
  N   N12       1.0  0.9763064761405998  0.2697241230439218  0.34347353955909915  1.0000
  O   O1        1.0  0.40783220796404157  0.1707240567183845  0.3466426992186554  1.0000
  O   O2        1.0  0.5921699698089711  0.8292744036827173  0.6533557678881365  1.0000
  O   O3        1.0  0.2004080366556735  0.3201803624244731  0.4296828153908692  1.0000
  O   O4        1.0  0.7995900938983739  0.6798201670347765  0.5703179072199305  1.0000
  O   O5        1.0  0.585540578480412  0.8567206074228154  0.3304218513329076  1.0000
  O   O6        1.0  0.41445478787609613  0.1432768580618742  0.6695797940503355  1.0000
  O   O7        1.0  0.774856113276698  0.7246694908539623  0.2300685798522082  1.0000
  O   O8        1.0  0.2251487076155741  0.27532791078395036  0.7699319879508977  1.0000
  O   O9        1.0  0.3723817374150188  0.9970088672226537  0.2230763799461783  1.0000
  O   O10       1.0  0.6276206938421397  0.0029885687803101993  0.7769214610728029  1.0000
  O   O11       1.0  0.629218518648635  0.034351617193515004  0.19155149015703904  1.0000
  O   O12       1.0  0.3707864233219171  0.965649907182147  0.8084460541773099  1.0000
