data_image0
_chemical_formula_structural       Cu2H28C52N8O8
_chemical_formula_sum              "Cu2 H28 C52 N8 O8"
_cell_length_a       9.206613526056003
_cell_length_b       10.62717542852768
_cell_length_c       11.698455954432445
_cell_angle_alpha    70.11921238021695
_cell_angle_beta     89.73543212964087
_cell_angle_gamma    75.13127983731906

_space_group_name_H-M_alt    "P 1"
_space_group_IT_number       1

loop_
  _space_group_symop_operation_xyz
  'x, y, z'

loop_
  _atom_site_type_symbol
  _atom_site_label
  _atom_site_symmetry_multiplicity
  _atom_site_fract_x
  _atom_site_fract_y
  _atom_site_fract_z
  _atom_site_occupancy
  Cu  Cu1       1.0  0.8132563681754092  0.2494363757613201  0.9472878043287314  1.0000
  Cu  Cu2       1.0  0.1867422520789717  0.7505644787235538  0.05271285476885625  1.0000
  H   H1        1.0  0.8862669798395115  0.7153686932054979  0.8580595535072892  1.0000
  H   H2        1.0  0.1137407904905317  0.2846342506637356  0.1419395163360805  1.0000
  H   H3        1.0  0.06910031396348877  0.7082606503358589  0.6996663877398465  1.0000
  H   H4        1.0  0.9309105582455429  0.291739173331429  0.30033446840760564  1.0000
  H   H5        1.0  0.04895174204738589  0.28570674976294436  0.7620616533707792  1.0000
  H   H6        1.0  0.9510523078003815  0.7142941087021413  0.23793895097571055  1.0000
  H   H7        1.0  0.22544331868817852  0.7120038555615691  0.3387717119524825  1.0000
  H   H8        1.0  0.7745554335502475  0.2879928429028453  0.6612293724068227  1.0000
  H   H9        1.0  0.541840983848985  0.5351679606998799  0.14548172975428753  1.0000
  H   H10       1.0  0.4581532357663747  0.4648329090318698  0.8545138389582054  1.0000
  H   H11       1.0  0.5996970981964225  0.3028480664648185  0.31166516795017446  1.0000
  H   H12       1.0  0.4003003791749721  0.6971528056550582  0.688330367911661  1.0000
  H   H13       1.0  0.4622279899329555  0.2758794507804936  0.5019084222644141  1.0000
  H   H14       1.0  0.5377758565675136  0.7241183004537247  0.4980897227485034  1.0000
  H   H15       1.0  0.7346095551509252  0.787075465394146  0.028762995940937276  1.0000
  H   H16       1.0  0.26538860237721446  0.21292330607471396  0.9712391648091202  1.0000
  H   H17       1.0  0.5504111052034376  0.794968036083013  0.1865470707043785  1.0000
  H   H18       1.0  0.44958953101124877  0.20502969740387295  0.8134553856475154  1.0000
  H   H19       1.0  0.5859417046425079  0.2093586728413399  0.13804923903420277  1.0000
  H   H20       1.0  0.4140525719371553  0.7906421784593575  0.8619514638642731  1.0000
  H   H21       1.0  0.2574111998900577  0.812634006472507  0.4835609704508601  1.0000
  H   H22       1.0  0.7425881519635453  0.18736790374167359  0.5164350817059005  1.0000
  H   H23       1.0  0.0428962615063924  0.0008322594259908989  0.7184384905973931  1.0000
  H   H24       1.0  0.9571027880871769  0.9991634025362048  0.28156205556653213  1.0000
  H   H25       1.0  0.10016181301578092  0.2274834049210809  0.5984645553454445  1.0000
  H   H26       1.0  0.8998377657623845  0.7725143185542364  0.40154047904966483  1.0000
  H   H27       1.0  0.2530098912014865  0.23775248675278957  0.4199137286878811  1.0000
  H   H28       1.0  0.7469904571521082  0.7622462801644757  0.5800901215570565  1.0000
  C   C1        1.0  0.7567951811041878  0.501376947577526  0.9829955722507013  1.0000
  C   C2        1.0  0.2432057478764875  0.49862703723319146  0.017001534396378366  1.0000
  C   C3        1.0  0.8707455959410453  0.5074111950604632  0.8893734906423705  1.0000
  C   C4        1.0  0.12925815655158607  0.4925906999068486  0.11062765189949193  1.0000
  C   C5        1.0  0.9237001862409713  0.6230834434351847  0.8328380658492026  1.0000
  C   C6        1.0  0.07630712136283083  0.37691741741803486  0.16716250564662274  1.0000
  C   C7        1.0  0.025697757002952046  0.618577011824115  0.7451660043976321  1.0000
  C   C8        1.0  0.9743104711484349  0.3814207303069138  0.25483551960505946  1.0000
  C   C9        1.0  0.07189886700808766  0.49727618102397747  0.714996029522432  1.0000
  C   C10       1.0  0.9281096774865462  0.5027205184611461  0.2850066676802074  1.0000
  C   C11       1.0  0.01618639605114683  0.38342952868448776  0.7788876842281315  1.0000
  C   C12       1.0  0.9838179701398672  0.6165702871346923  0.22111409331831328  1.0000
  C   C13       1.0  0.1674625868308724  0.48994983856233876  0.6211251300219164  1.0000
  C   C14       1.0  0.8325413451160559  0.5100478850253082  0.37888071626997555  1.0000
  C   C15       1.0  0.2461095936217461  0.48675927950323933  0.5372870084629966  1.0000
  C   C16       1.0  0.7538982707161425  0.5132395206329007  0.46270906385142774  1.0000
  C   C17       1.0  0.3317922794801759  0.49221201432604283  0.4358445693843155  1.0000
  C   C18       1.0  0.668208030897219  0.5077867648785882  0.5641558580699669  1.0000
  C   C19       1.0  0.3092571316685735  0.6189273729636895  0.3371973795901086  1.0000
  C   C20       1.0  0.6907416015817488  0.3810693316444116  0.6628019933738688  1.0000
  C   C21       1.0  0.48358161707164266  0.5198663834801353  0.22867414093702376  1.0000
  C   C22       1.0  0.5164153975735104  0.4801324056237347  0.7713228965772604  1.0000
  C   C23       1.0  0.5149789287909102  0.39015117600956006  0.3218869076065902  1.0000
  C   C24       1.0  0.4850191622788741  0.6098476169621919  0.6781092632598134  1.0000
  C   C25       1.0  0.43923982407974194  0.37536386663932575  0.4267727707628598  1.0000
  C   C26       1.0  0.5607615437341806  0.6246349225768739  0.5732250786482143  1.0000
  C   C27       1.0  0.8730869824716693  0.9962457985006805  0.9122918413727708  1.0000
  C   C28       1.0  0.1269105518640288  0.0037550551881508987  0.08770882867504784  1.0000
  C   C29       1.0  0.7595580927408319  0.9904293114812149  0.0057305626619878845  1.0000
  C   C30       1.0  0.24043757660670206  0.009570501041459097  0.9942704467885553  1.0000
  C   C31       1.0  0.7015098074055147  0.876949798803977  0.05777195422021477  1.0000
  C   C32       1.0  0.2984858619420194  0.12305001371869648  0.9422290552303283  1.0000
  C   C33       1.0  0.5993553024917021  0.8815008144059959  0.145187933222225  1.0000
  C   C34       1.0  0.40064175962371  0.11849795933866153  0.8548133827803855  1.0000
  C   C35       1.0  0.5558290388662784  0.0009143670217639999  0.17828590607155806  1.0000
  C   C36       1.0  0.44416661149315934  0.9990854516445963  0.8217133919836503  1.0000
  C   C37       1.0  0.6174818064055643  0.11265624263918281  0.11943154844639994  1.0000
  C   C38       1.0  0.3825138439538734  0.8873435760271774  0.8805677496088156  1.0000
  C   C39       1.0  0.4537053360300901  0.010691718281137196  0.2671872693725207  1.0000
  C   C40       1.0  0.546294620027858  0.9893081158567584  0.7328085620911511  1.0000
  C   C41       1.0  0.3669711302587118  0.019461906175500598  0.3451216637264596  1.0000
  C   C42       1.0  0.6330269047794345  0.9805410182419793  0.6548809274595446  1.0000
  C   C43       1.0  0.27242985119830365  0.0240035397969507  0.43979577408872944  1.0000
  C   C44       1.0  0.7275706340442342  0.9759983558540737  0.5602045456061338  1.0000
  C   C45       1.0  0.2266136849186113  0.9055526263410979  0.5086807616062362  1.0000
  C   C46       1.0  0.773386002266342  0.09444823508349738  0.49131817514580706  1.0000
  C   C47       1.0  0.1056465938757754  0.011781669127003597  0.6376267798798809  1.0000
  C   C48       1.0  0.8943540138567556  0.9882160735754011  0.3623731093790286  1.0000
  C   C49       1.0  0.1392045496579684  0.1364068028009697  0.5719159255527801  1.0000
  C   C50       1.0  0.8607954538702317  0.8635930159777203  0.4280841843992181  1.0000
  C   C51       1.0  0.22379539495663892  0.14293975513799498  0.4725644160425164  1.0000
  C   C52       1.0  0.7762043207104699  0.8570610970710743  0.5274370878025184  1.0000
  N   N1        1.0  0.9186735430006934  0.39016854609198487  0.8626599756565274  1.0000
  N   N2        1.0  0.0813291045851514  0.6098333542229637  0.1373394664402313  1.0000
  N   N3        1.0  0.38190769323961143  0.632567010701507  0.23632377756196407  1.0000
  N   N4        1.0  0.6180885518301125  0.36743073496040773  0.763674444102499  1.0000
  N   N5        1.0  0.7163181929233248  0.10513700302501408  0.036795724073577715  1.0000
  N   N6        1.0  0.2836771600809698  0.8948638521435653  0.9632041121770105  1.0000
  N   N7        1.0  0.14782182509389938  0.8982889916782496  0.6055452479232246  1.0000
  N   N8        1.0  0.8521766013072279  0.10170875250391018  0.39445380753846154  1.0000
  O   O1        1.0  0.7229459757448566  0.3836770113189232  0.02705876709075743  1.0000
  O   O2        1.0  0.2770546463866241  0.6163280130658605  0.9729380220540311  1.0000
  O   O3        1.0  0.7024701281562786  0.6046799571484482  0.012430424020181012  1.0000
  O   O4        1.0  0.2975340775685352  0.3953240239067171  0.987568361171562  1.0000
  O   O5        1.0  0.9090560610702807  0.1132646428082751  0.8694420488862636  1.0000
  O   O6        1.0  0.09094040633484475  0.8867362039408277  0.1305603435070923  1.0000
  O   O7        1.0  0.9281809463505298  0.8933541613160114  0.8823343946829927  1.0000
  O   O8        1.0  0.07181861343953243  0.10664356830298519  0.11766892831678895  1.0000
