data_image0
_chemical_formula_structural       Zn2H18C18N2O10
_chemical_formula_sum              "Zn2 H18 C18 N2 O10"
_cell_length_a       7.464578021251772
_cell_length_b       7.92137803173349
_cell_length_c       9.780294011472007
_cell_angle_alpha    78.84349299232963
_cell_angle_beta     74.20154311686908
_cell_angle_gamma    63.265790430431515

_space_group_name_H-M_alt    "P 1"
_space_group_IT_number       1

loop_
  _space_group_symop_operation_xyz
  'x, y, z'

loop_
  _atom_site_type_symbol
  _atom_site_label
  _atom_site_symmetry_multiplicity
  _atom_site_fract_x
  _atom_site_fract_y
  _atom_site_fract_z
  _atom_site_occupancy
  Zn  Zn1       1.0  0.10573994353043045  0.14636235521840044  0.43442021019720284  1.0000
  Zn  Zn2       1.0  0.8942606734798916  0.8536382079478102  0.5655807920265442  1.0000
  H   H1        1.0  0.821094378713724  0.4992139118662708  0.46368024545999714  1.0000
  H   H2        1.0  0.1789034610398445  0.5007866534166825  0.5363202990867248  1.0000
  H   H3        1.0  0.7392483712225868  0.3737712926152525  0.405068753325061  1.0000
  H   H4        1.0  0.26075151388887713  0.6262278544040926  0.5949305714664915  1.0000
  H   H5        1.0  0.6207581693071302  0.5030406519375463  0.1615475564227395  1.0000
  H   H6        1.0  0.379239033251352  0.49696133247035607  0.8384518762416631  1.0000
  H   H7        1.0  0.8714624876966536  0.485140031152085  0.09794143500281646  1.0000
  H   H8        1.0  0.12853462015807077  0.5148591179840026  0.9020574321117177  1.0000
  H   H9        1.0  0.3361484626883495  0.7954130714709536  0.2630691811246704  1.0000
  H   H10       1.0  0.6638522802808283  0.20459033003862714  0.7369282898873378  1.0000
  H   H11       1.0  0.9532824450654546  0.7544175844924298  0.11769204386072112  1.0000
  H   H12       1.0  0.04671880913994635  0.2455815595488248  0.8823100702453385  1.0000
  H   H13       1.0  0.7094473180142983  0.5157971486245786  0.89475091869604  1.0000
  H   H14       1.0  0.29055052955304456  0.484203417426258  0.1052486016602856  1.0000
  H   H15       1.0  0.761426617000218  0.7169194166747348  0.8861000119767508  1.0000
  H   H16       1.0  0.23857186776221076  0.28307973025115274  0.11390062026190145  1.0000
  H   H17       1.0  0.506875564587652  0.7344525452465123  0.9514249497983864  1.0000
  H   H18       1.0  0.4931216379708303  0.26554943916139  0.048574482866023054  1.0000
  C   C1        1.0  0.7098572523988124  0.5822311211689808  0.10063316132307418  1.0000
  C   C2        1.0  0.2901412401773912  0.41776802652479017  0.8993664467251675  1.0000
  C   C3        1.0  0.6545211425932816  0.7505215445630714  0.17816988907987508  1.0000
  C   C4        1.0  0.345477979364233  0.24947618323785295  0.8218318550410898  1.0000
  C   C5        1.0  0.45385756189297416  0.8448313166150572  0.25446696563228943  1.0000
  C   C6        1.0  0.5461430707448898  0.15516924808692786  0.7455319882106578  1.0000
  C   C7        1.0  0.7370374447870561  0.9790241447905786  0.2512574184719226  1.0000
  C   C8        1.0  0.26296509943606583  0.020972162536544707  0.7487448710179833  1.0000
  C   C9        1.0  0.7957108841412365  0.8216084498076911  0.1770765650276615  1.0000
  C   C10       1.0  0.2042896303515461  0.17838927731881435  0.8229248958366142  1.0000
  C   C11       1.0  0.4430843880560502  0.249238712547701  0.39263594967913196  1.0000
  C   C12       1.0  0.5569127119849  0.7507604358204958  0.6073639416258058  1.0000
  C   C13       1.0  0.531128423186935  0.06844891248057651  0.32041486808398634  1.0000
  C   C14       1.0  0.46887217819583066  0.9315516491498671  0.679588182520561  1.0000
  C   C15       1.0  0.66975115128578  0.6410184723334994  0.9491331053933861  1.0000
  C   C16       1.0  0.33024668846778826  0.3589820929494537  0.05086743915334319  1.0000
  C   C17       1.0  0.8984913973232552  0.042096929546843916  0.25509352450475825  1.0000
  C   C18       1.0  0.10151674048223917  0.9578993773862124  0.7449045593871798  1.0000
  N   N1        1.0  0.39514227604610846  0.9994368535113695  0.32106261355669813  1.0000
  N   N2        1.0  0.6048589859730669  0.0005622912977685002  0.678938476358965  1.0000
  O   O1        1.0  0.5513221154853696  0.3357650439738579  0.3816347272779337  1.0000
  O   O2        1.0  0.44867670808477556  0.664242614142694  0.6183604322775123  1.0000
  O   O3        1.0  0.8638755996727737  0.38686504062631144  0.40919959188161653  1.0000
  O   O4        1.0  0.13612287727588057  0.6131341055316855  0.590802064547425  1.0000
  O   O5        1.0  0.25381269575731835  0.3066065445076803  0.4599770778268491  1.0000
  O   O6        1.0  0.746187291871685  0.6933954385513704  0.5400217883241679  1.0000
  O   O7        1.0  0.9645759123538084  0.9924494714462003  0.3753616101059904  1.0000
  O   O8        1.0  0.03542264367105471  0.007552508447851403  0.6246426602537196  1.0000
  O   O9        1.0  0.970213771052322  0.12279413578388443  0.14936138958535136  1.0000
  O   O10       1.0  0.02979331948794339  0.8771922461152999  0.8506374169864013  1.0000
