data_image0
_chemical_formula_structural       K4P4H48C36N8O36
_chemical_formula_sum              "K4 P4 H48 C36 N8 O36"
_cell_length_a       8.092400864005567
_cell_length_b       10.403130347002453
_cell_length_c       16.06801082000945
_cell_angle_alpha    89.99995753645503
_cell_angle_beta     90.000116958045
_cell_angle_gamma    90.00006614053491

_space_group_name_H-M_alt    "P 1"
_space_group_IT_number       1

loop_
  _space_group_symop_operation_xyz
  'x, y, z'

loop_
  _atom_site_type_symbol
  _atom_site_label
  _atom_site_symmetry_multiplicity
  _atom_site_fract_x
  _atom_site_fract_y
  _atom_site_fract_z
  _atom_site_occupancy
  K   K1        1.0  0.2094030522045003  0.4047865250385102  0.6718554206489953  1.0000
  K   K2        1.0  0.2905956382335049  0.5952151061668614  0.17185388629948758  1.0000
  K   K3        1.0  0.7905971434955319  0.9047852377930496  0.828146880926816  1.0000
  K   K4        1.0  0.7094045444520135  0.0952147407082293  0.3281461256653983  1.0000
  P   P1        1.0  0.1320732270030263  0.3254758680568912  0.4602056793560933  1.0000
  P   P2        1.0  0.3679266309620459  0.6745244723363796  0.9602053801503697  1.0000
  P   P3        1.0  0.8679272978128764  0.8254759409777679  0.03979422194964139  1.0000
  P   P4        1.0  0.632074458327807  0.17452436708880006  0.539793920312597  1.0000
  H   H1        1.0  0.06598730083342019  0.0088769686864012  0.344070624126516  1.0000
  H   H2        1.0  0.4340120869038842  0.9911235044400328  0.8440708631340141  1.0000
  H   H3        1.0  0.9340127535672238  0.5088760068930255  0.15592942933101733  1.0000
  H   H4        1.0  0.5659882370745636  0.4911232071903413  0.6559289075313186  1.0000
  H   H5        1.0  0.3669957859436792  0.2728361240237191  0.328081804272827  1.0000
  H   H6        1.0  0.13300477278129821  0.7271634061282414  0.8280818603597097  1.0000
  H   H7        1.0  0.6330046606558782  0.7728348739988318  0.17191749997633105  1.0000
  H   H8        1.0  0.8669963947241824  0.22716528305991798  0.6719180371600613  1.0000
  H   H9        1.0  0.1665520984361564  0.2856937285749197  0.2824693314457959  1.0000
  H   H10       1.0  0.33344703987862795  0.7143068149570552  0.7824695999925593  1.0000
  H   H11       1.0  0.8334458958158919  0.7856926061835952  0.21753121133207995  1.0000
  H   H12       1.0  0.6665541085237124  0.21430653749296613  0.7175309260609382  1.0000
  H   H13       1.0  0.30908431836681416  0.11445787238741191  0.21466640471102486  1.0000
  H   H14       1.0  0.1909145454153247  0.8855437098873793  0.7146664442809507  1.0000
  H   H15       1.0  0.6909134214532031  0.6144555834244584  0.2853329756507604  1.0000
  H   H16       1.0  0.8090856216887659  0.38554348275893346  0.785333377124061  1.0000
  H   H17       1.0  0.4468673419075627  0.8336606489908789  0.28393934551354494  1.0000
  H   H18       1.0  0.053133038085903195  0.16634085411104135  0.783938966569721  1.0000
  H   H19       1.0  0.5531331950685469  0.3336593102370741  0.21606055185906564  1.0000
  H   H20       1.0  0.9468680390444605  0.6663407963699796  0.7160603378261284  1.0000
  H   H21       1.0  0.10622057180520268  0.7994438725728016  0.2832689025771343  1.0000
  H   H22       1.0  0.3937785697469423  0.20055570879601695  0.7832694801120111  1.0000
  H   H23       1.0  0.893779914331276  0.2994437998093318  0.21673101123912625  1.0000
  H   H24       1.0  0.6062213224962107  0.7005553447821596  0.7167310525493987  1.0000
  H   H25       1.0  0.2802774515245829  0.005442458108127799  0.4552375759677644  1.0000
  H   H26       1.0  0.219723622054552  0.9945588492124596  0.9552382151484762  1.0000
  H   H27       1.0  0.7197225977728792  0.505441431185112  0.04476247914034558  1.0000
  H   H28       1.0  0.7802779427557097  0.49455887120291897  0.5447615538664576  1.0000
  H   H29       1.0  0.22465708572148196  0.9090290327991395  0.5938786359184005  1.0000
  H   H30       1.0  0.2753425247205925  0.09097172627794238  0.09387919526495377  1.0000
  H   H31       1.0  0.7753431162791173  0.409028637357089  0.9061217965546077  1.0000
  H   H32       1.0  0.724656415931939  0.5909702907747202  0.4061208187388415  1.0000
  H   H33       1.0  0.942406324958057  0.20181149572350418  0.5215796221763609  1.0000
  H   H34       1.0  0.5575928859781882  0.7981888331596777  0.021579617555353495  1.0000
  H   H35       1.0  0.05759356914985151  0.7018113018328973  0.9784202875269299  1.0000
  H   H36       1.0  0.4424063625677448  0.2981890177419401  0.4784209192179245  1.0000
  H   H37       1.0  0.1417746812931  0.8759815101339326  0.13959523771521273  1.0000
  H   H38       1.0  0.3582238785268217  0.12401823544288247  0.6395958154427388  1.0000
  H   H39       1.0  0.8582259185657222  0.37598124127573834  0.36040463931853134  1.0000
  H   H40       1.0  0.6417758999934406  0.6240187003572472  0.8604041316463904  1.0000
  H   H41       1.0  0.3154158115688688  0.5441139743998562  0.48311334825413593  1.0000
  H   H42       1.0  0.18458290342228878  0.4558873010603292  0.983112965438657  1.0000
  H   H43       1.0  0.6845842951894666  0.04411298117811669  0.016887310623722795  1.0000
  H   H44       1.0  0.8154136610182334  0.9558873530680996  0.5168861998039842  1.0000
  H   H45       1.0  0.9771294129049437  0.009749327553883795  0.17375442875534464  1.0000
  H   H46       1.0  0.5228716499138741  0.9902508274050985  0.673755489775324  1.0000
  H   H47       1.0  0.022870642791296792  0.5097492764468045  0.3262450019281572  1.0000
  H   H48       1.0  0.4771286727682593  0.49024929455488575  0.8262449036642676  1.0000
  C   C1        1.0  0.111576855576935  0.011051371667775799  0.2793158985343566  1.0000
  C   C2        1.0  0.38842350569797196  0.9889491754685762  0.7793167140245172  1.0000
  C   C3        1.0  0.8884232020526213  0.5110512562276525  0.22068290916885044  1.0000
  C   C4        1.0  0.6115768150497516  0.4889488450956421  0.7206830576857681  1.0000
  C   C5        1.0  0.2467112843965751  0.22454868524089017  0.321126941637594  1.0000
  C   C6        1.0  0.25328924616920295  0.7754518141090188  0.8211270983060001  1.0000
  C   C7        1.0  0.7532878547298197  0.7245475351427685  0.17887300817152146  1.0000
  C   C8        1.0  0.7467119930854692  0.2754526139658963  0.6788733983620856  1.0000
  C   C9        1.0  0.2658574606519224  0.09668624258949166  0.2785205882008411  1.0000
  C   C10       1.0  0.2341428974012842  0.9033143054562629  0.7785206637169109  1.0000
  C   C11       1.0  0.7341427242181169  0.5966840653756404  0.22147942305747384  1.0000
  C   C12       1.0  0.7658585318342616  0.40331411253983157  0.7214791491485071  1.0000
  C   C13       1.0  0.34044170812530433  0.696029844465002  0.40215121832989087  1.0000
  C   C14       1.0  0.1595591505061051  0.3039715235297748  0.9021508827687581  1.0000
  C   C15       1.0  0.6595586243532594  0.19602777501660998  0.09784874518571478  1.0000
  C   C16       1.0  0.8404408953938685  0.8039715054478974  0.5978483554837053  1.0000
  C   C17       1.0  0.2693061495450806  0.7114183643743458  0.551804425523592  1.0000
  C   C18       1.0  0.2306957619933883  0.2885824427915296  0.051804843953654284  1.0000
  C   C19       1.0  0.7306962302913008  0.2114178808025855  0.9481954795641553  1.0000
  C   C20       1.0  0.7693034722772581  0.7885819604910294  0.44819507508186957  1.0000
  C   C21       1.0  0.345956721784006  0.8864898775069817  0.3140263903327848  1.0000
  C   C22       1.0  0.1540437800321968  0.11351062995819207  0.8140267629823155  1.0000
  C   C23       1.0  0.6540426579593657  0.38648866364150075  0.18597285929584464  1.0000
  C   C24       1.0  0.8459572186022655  0.6135105161034885  0.6859731891573515  1.0000
  C   C25       1.0  0.1867788798634464  0.878334598379787  0.26174914867513616  1.0000
  C   C26       1.0  0.31322141028341827  0.1216659688341792  0.7617496812192426  1.0000
  C   C27       1.0  0.8132204877650864  0.3783334675225234  0.238251349581894  1.0000
  C   C28       1.0  0.6867796004703735  0.6216666137217359  0.7382508893555124  1.0000
  C   C29       1.0  0.28538045672267737  0.9021350544674293  0.4657825389977005  1.0000
  C   C30       1.0  0.21462189527768769  0.0978652795529555  0.9657823591530315  1.0000
  C   C31       1.0  0.7146201819962458  0.40213502962476616  0.0342173254670683  1.0000
  C   C32       1.0  0.7853790801084414  0.5978643235655594  0.5342169781511287  1.0000
  C   C33       1.0  0.25637310912674843  0.8483252331768513  0.5413948833965988  1.0000
  C   C34       1.0  0.243628760264528  0.15167654713541617  0.04139538093112798  1.0000
  C   C35       1.0  0.7436282384037584  0.34832474930627194  0.958604955895616  1.0000
  C   C36       1.0  0.7563715063126892  0.651675080090072  0.4586046038996939  1.0000
  N   N1        1.0  0.3254462485348739  0.8296675006677672  0.39766026790884  1.0000
  N   N2        1.0  0.1745558276399635  0.17033194996172088  0.8976606343594609  1.0000
  N   N3        1.0  0.6745542825089571  0.32966736203354685  0.10233963138252018  1.0000
  N   N4        1.0  0.8254440196945796  0.6703319132976446  0.6023392904722725  1.0000
  N   N5        1.0  0.3138477415547314  0.6447125421458182  0.4796990860912301  1.0000
  N   N6        1.0  0.1861534310666784  0.3552887372176912  0.9796987532366329  1.0000
  N   N7        1.0  0.6861537504039391  0.1447115464287947  0.020301524441464398  1.0000
  N   N8        1.0  0.8138454553557112  0.8552878226662768  0.5203010827078811  1.0000
  O   O1        1.0  0.1740828006169792  0.20334825696750866  0.4018550103384228  1.0000
  O   O2        1.0  0.3259168210882848  0.796652150115811  0.9018552315616544  1.0000
  O   O3        1.0  0.825917542736356  0.7033472642725869  0.09814494965982586  1.0000
  O   O4        1.0  0.6740844496659406  0.2966520158540932  0.5981452549181723  1.0000
  O   O5        1.0  0.38760133577457606  0.018609773057896493  0.32183530312282466  1.0000
  O   O6        1.0  0.112397961932345  0.9813916867311293  0.8218352158262403  1.0000
  O   O7        1.0  0.6123974973572857  0.5186065749146777  0.17816412330263623  1.0000
  O   O8        1.0  0.8876011118591833  0.4813916525053514  0.6781645595153306  1.0000
  O   O9        1.0  0.23779569525493824  0.8607390038253937  0.17792673124311154  1.0000
  O   O10       1.0  0.26220425549500703  0.13926165919156117  0.6779265804736097  1.0000
  O   O11       1.0  0.7622048819559666  0.3607386926612008  0.32207315311590173  1.0000
  O   O12       1.0  0.7377967814011086  0.6392612927813273  0.8220733592906482  1.0000
  O   O13       1.0  0.0437373698714509  0.25865262955925056  0.5355989275443349  1.0000
  O   O14       1.0  0.4562632403233238  0.7413472348785746  0.03559936052138819  1.0000
  O   O15       1.0  0.9562638444202564  0.7586522964102895  0.9644009548428298  1.0000
  O   O16       1.0  0.5437371594912718  0.24134752636224024  0.4644005812149458  1.0000
  O   O17       1.0  0.3744672825778181  0.6304294483076731  0.3400433770685891  1.0000
  O   O18       1.0  0.12553332458040964  0.3695710294221684  0.8400435973191447  1.0000
  O   O19       1.0  0.6255329524293103  0.1304291998575309  0.15995599561833976  1.0000
  O   O20       1.0  0.8744655830637811  0.8695709708713648  0.6599562317613559  1.0000
  O   O21       1.0  0.2930243358810785  0.3823655283152475  0.49380916127687147  1.0000
  O   O22       1.0  0.206974422415712  0.6176338124222127  0.9938087237720903  1.0000
  O   O23       1.0  0.7069750377363136  0.8823654952936194  0.006190712688130899  1.0000
  O   O24       1.0  0.7930241108915438  0.11763485117761258  0.5061912263845015  1.0000
  O   O25       1.0  0.9801607962341308  0.05424167471662139  0.2287861226709324  1.0000
  O   O26       1.0  0.5198392536791872  0.9457574560956558  0.7287872019531887  1.0000
  O   O27       1.0  0.0198393255698335  0.5542407225388857  0.2712132866305907  1.0000
  O   O28       1.0  0.48016100289379443  0.445756950111253  0.7712132128688436  1.0000
  O   O29       1.0  0.2447585176388998  0.6511316538129889  0.6180192197333907  1.0000
  O   O30       1.0  0.2552411905484107  0.34887003892247037  0.11801963445198276  1.0000
  O   O31       1.0  0.7552437726218458  0.15113030668567257  0.8819813366818108  1.0000
  O   O32       1.0  0.7447581332985749  0.8488696102874798  0.3819796332558524  1.0000
  O   O33       1.0  0.022744707625875497  0.4188477412866335  0.413448724008397  1.0000
  O   O34       1.0  0.4772537252949007  0.5811536137947398  0.913448582187328  1.0000
  O   O35       1.0  0.9772547201988147  0.9188468975686347  0.08655175477870357  1.0000
  O   O36       1.0  0.522745989536233  0.08115335705678459  0.5865520078564826  1.0000
