data_image0
_chemical_formula_structural       Zn2H12C32N8Cl8O8
_chemical_formula_sum              "Zn2 H12 C32 N8 Cl8 O8"
_cell_length_a       7.973653587989315
_cell_length_b       9.885588310297186
_cell_length_c       11.556015896427674
_cell_angle_alpha    105.78915110498814
_cell_angle_beta     91.77327128186187
_cell_angle_gamma    96.28994010523661

_space_group_name_H-M_alt    "P 1"
_space_group_IT_number       1

loop_
  _space_group_symop_operation_xyz
  'x, y, z'

loop_
  _atom_site_type_symbol
  _atom_site_label
  _atom_site_symmetry_multiplicity
  _atom_site_fract_x
  _atom_site_fract_y
  _atom_site_fract_z
  _atom_site_occupancy
  Zn  Zn1       1.0  0.1361024484227258  0.8522841801493186  0.985214422436421  1.0000
  Zn  Zn2       1.0  0.8638959333184247  0.14771610352467954  0.014785859448935007  1.0000
  H   H1        1.0  0.7444168040804158  0.8352268877901565  0.8701113630111408  1.0000
  H   H2        1.0  0.2555826887235568  0.16477234528581158  0.1298886970128805  1.0000
  H   H3        1.0  0.5801843011361001  0.10972530583704546  0.1661805220872097  1.0000
  H   H4        1.0  0.419815332373247  0.8902749843971804  0.8338189200215212  1.0000
  H   H5        1.0  0.9368490343759249  0.5574362521718896  0.10517964983173304  1.0000
  H   H6        1.0  0.06315213648721138  0.4425661609803342  0.894818582578452  1.0000
  H   H7        1.0  0.3403351987323902  0.6254781669711987  0.20128878514481846  1.0000
  H   H8        1.0  0.6596642982464118  0.3745210681460165  0.7987121407878847  1.0000
  H   H9        1.0  0.6269592414316563  0.8741347414549521  0.4736908270166253  1.0000
  H   H10       1.0  0.3730391319598284  0.1258655381365443  0.5263077230513744  1.0000
  H   H11       1.0  0.17800809160030437  0.8775349979638916  0.2787569322643435  1.0000
  H   H12       1.0  0.8219931043118225  0.12246742743581505  0.7212464955979173  1.0000
  C   C1        1.0  0.807139378125001  0.5724724085613602  0.1268935346683548  1.0000
  C   C2        1.0  0.19286010632930586  0.4275268204321137  0.8731047935383104  1.0000
  C   C3        1.0  0.7334136550483167  0.5185921435262484  0.21473505674958912  1.0000
  C   C4        1.0  0.2665844327575826  0.4814060197074923  0.7852638632403242  1.0000
  C   C5        1.0  0.5629979993932466  0.5364474722528669  0.24066325738096592  1.0000
  C   C6        1.0  0.43700134018084924  0.4635506975411091  0.7593348228323151  1.0000
  C   C7        1.0  0.4700493967072958  0.6099529354700195  0.18027952621081061  1.0000
  C   C8        1.0  0.5299507725188732  0.39004206940941794  0.819719567971724  1.0000
  C   C9        1.0  0.5446238255727067  0.6658946543959131  0.09228080389210899  1.0000
  C   C10       1.0  0.45537397247277056  0.3341013904388176  0.9077176201110362  1.0000
  C   C11       1.0  0.7128847868624391  0.6462842985894993  0.06565653497025178  1.0000
  C   C12       1.0  0.2871118959453867  0.3537127948020142  0.9343412449855464  1.0000
  C   C13       1.0  0.4505303107904766  0.7436026560544491  0.026835476671138322  1.0000
  C   C14       1.0  0.5494691778386595  0.25639657498027196  0.9731637174442085  1.0000
  C   C15       1.0  0.7881449955187492  0.7093474592783126  0.9772289949275363  1.0000
  C   C16       1.0  0.2118532413421903  0.29065176519618063  0.022771038964435806  1.0000
  C   C17       1.0  0.7453618173306893  0.8702429532517186  0.4286532101220644  1.0000
  C   C18       1.0  0.2546378161786578  0.1297573369825074  0.5713462319866665  1.0000
  C   C19       1.0  0.876322306286454  0.8063556668806768  0.46565711407593113  1.0000
  C   C20       1.0  0.1236760754546964  0.1936446167933212  0.5343431678094319  1.0000
  C   C21       1.0  0.032481214242018615  0.8068895968964754  0.4103526441008611  1.0000
  C   C22       1.0  0.9675171674991249  0.19311068677752263  0.5896476377844948  1.0000
  C   C23       1.0  0.05637718572892679  0.8726440092984972  0.3190685694327371  1.0000
  C   C24       1.0  0.9436238527784937  0.1273573507779631  0.6809320127101018  1.0000
  C   C25       1.0  0.923875145140805  0.9356562909327196  0.28066678321250293  1.0000
  C   C26       1.0  0.07612463742358241  0.06434506054225858  0.7193337727982866  1.0000
  C   C27       1.0  0.7677096324163273  0.9344104851257029  0.3353460055635011  1.0000
  C   C28       1.0  0.23229155097130422  0.06559193415026242  0.6646548245727288  1.0000
  C   C29       1.0  0.9448787537647477  0.0026323782138249012  0.1836629729723214  1.0000
  C   C30       1.0  0.0551211778546872  0.9973700345019053  0.8163386969405337  1.0000
  C   C31       1.0  0.6284196661907515  0.001013703026778499  0.2947987196795482  1.0000
  C   C32       1.0  0.37158151719688  0.99898871624918  0.7052021104566749  1.0000
  N   N1        1.0  0.5221629920426808  0.798550507639554  0.9444467217165737  1.0000
  N   N2        1.0  0.47783524481825884  0.20144871683493187  0.05555331217540531  1.0000
  N   N3        1.0  0.6873730715490184  0.779083952103612  0.9244560148571993  1.0000
  N   N4        1.0  0.31262767302315814  0.22091528753259132  0.0755432053901899  1.0000
  N   N5        1.0  0.8181545875293069  0.062173953660895606  0.1493334632934733  1.0000
  N   N6        1.0  0.18184644680328432  0.9378274043743177  0.8506662529406911  1.0000
  N   N7        1.0  0.6684567932352437  0.062254311767396986  0.20415239010166894  1.0000
  N   N8        1.0  0.3315442410973405  0.9377470462678164  0.7958473261324954  1.0000
  Cl  Cl1       1.0  0.4708005181134709  0.46629199150235934  0.34693053487171  1.0000
  Cl  Cl2       1.0  0.5292011926413167  0.533705138336316  0.6530682155209676  1.0000
  Cl  Cl3       1.0  0.8486660040658761  0.43136735450037367  0.2923749851942361  1.0000
  Cl  Cl4       1.0  0.15133488538650405  0.5686329443353345  0.7076244830465369  1.0000
  Cl  Cl5       1.0  0.8474520361078108  0.7272398249814813  0.580012445644968  1.0000
  Cl  Cl6       1.0  0.15254508969030667  0.27276045009103456  0.4199878101083386  1.0000
  Cl  Cl7       1.0  0.1939858286446352  0.7273978723334905  0.4553480042960558  1.0000
  Cl  Cl8       1.0  0.806012706326385  0.2726034746225068  0.5446542574000475  1.0000
  O   O1        1.0  0.2951858795672635  0.7565051459149004  0.05193185961824307  1.0000
  O   O2        1.0  0.7048123489440101  0.24349407447709845  0.9480664424563656  1.0000
  O   O3        1.0  0.9418833351705374  0.7010042336037257  0.9503699161788717  1.0000
  O   O4        1.0  0.0581163108633049  0.2989960627542487  0.049632123655897004  1.0000
  O   O5        1.0  0.08474102620321132  0.0064877858846302  0.1280172031630471  1.0000
  O   O6        1.0  0.9152612682472424  0.9935135827933053  0.8719834051118412  1.0000
  O   O7        1.0  0.48590875712396553  0.0033159895066035  0.33534537911234  1.0000
  O   O8        1.0  0.5140925711438769  0.9966874889688668  0.6646556990172671  1.0000
