data_image0
_chemical_formula_structural       Gd2CuH18C14S2N2O22
_chemical_formula_sum              "Gd2 Cu1 H18 C14 S2 N2 O22"
_cell_length_a       6.429484943286085
_cell_length_b       9.81010215625238
_cell_length_c       9.729680270476825
_cell_angle_alpha    96.29998311202154
_cell_angle_beta     91.1986224508076
_cell_angle_gamma    96.53232940809677

_space_group_name_H-M_alt    "P 1"
_space_group_IT_number       1

loop_
  _space_group_symop_operation_xyz
  'x, y, z'

loop_
  _atom_site_type_symbol
  _atom_site_label
  _atom_site_symmetry_multiplicity
  _atom_site_fract_x
  _atom_site_fract_y
  _atom_site_fract_z
  _atom_site_occupancy
  Gd  Gd1       1.0  0.42929884471768537  0.5357761347858202  0.2550548037588385  1.0000
  Gd  Gd2       1.0  0.5706887048352272  0.46422765021388557  0.7449484058992083  1.0000
  Cu  Cu1       1.0  0.9999974336930321  0.9999983301518256  0.9999978733163813  1.0000
  H   H1        1.0  0.22047811474804033  0.8371644844758136  0.8555967889055578  1.0000
  H   H2        1.0  0.7795837040125022  0.1628780236709275  0.14441284458281697  1.0000
  H   H3        1.0  0.22259890024061957  0.78942350883316  0.006417668523056443  1.0000
  H   H4        1.0  0.7774080076247145  0.2105880585588693  0.9935777318300224  1.0000
  H   H5        1.0  0.8782485017654692  0.5350344772550457  0.36361562122097263  1.0000
  H   H6        1.0  0.12173730765961473  0.4649693770497835  0.636391647905043  1.0000
  H   H7        1.0  0.7807610797076877  0.3763158825952219  0.35356887440401147  1.0000
  H   H8        1.0  0.21924001493446352  0.6236865689277595  0.6464377611845933  1.0000
  H   H9        1.0  0.9597381882558691  0.4570312035521624  0.17983035775124273  1.0000
  H   H10       1.0  0.04026432729720141  0.5429795861702688  0.8201874357938121  1.0000
  H   H11       1.0  0.09166577577498462  0.4185507327777815  0.043098702057371006  1.0000
  H   H12       1.0  0.9083203194669168  0.5813683164503659  0.9569402918646971  1.0000
  H   H13       1.0  0.18149796411097446  0.2092907304647298  0.2084488571038605  1.0000
  H   H14       1.0  0.818536263207186  0.7906952179043503  0.7915336505238172  1.0000
  H   H15       1.0  0.3146102668772741  0.019031185371424904  0.573076018594399  1.0000
  H   H16       1.0  0.6853961414818883  0.9809721149695465  0.4269216314169029  1.0000
  H   H17       1.0  0.017906916722992633  0.7860651200140013  0.20557740393115856  1.0000
  H   H18       1.0  0.9820702308750529  0.21393991768596268  0.7944214531885477  1.0000
  C   C1        1.0  0.18006513790080458  0.11899556111787041  0.26374467959262654  1.0000
  C   C2        1.0  0.8199464400990166  0.8809961982527952  0.736250980709677  1.0000
  C   C3        1.0  0.2594206679079463  0.1313768161715174  0.3994392710286689  1.0000
  C   C4        1.0  0.7405863639509391  0.8686150354469365  0.6005541830212522  1.0000
  C   C5        1.0  0.255987335740393  0.012708228761788107  0.4664347685864242  1.0000
  C   C6        1.0  0.7440157368436644  0.9872951854035323  0.5335679179344622  1.0000
  C   C7        1.0  0.17449032327081684  0.8856607073794864  0.39573554315548876  1.0000
  C   C8        1.0  0.8254997974679199  0.1143409494727763  0.6042685740451786  1.0000
  C   C9        1.0  0.09210136440428582  0.8822972907748294  0.26116044348402306  1.0000
  C   C10       1.0  0.9078953980330339  0.11770008178727662  0.7388465667111531  1.0000
  C   C11       1.0  0.3409866748915108  0.2709786602331264  0.47030639723806894  1.0000
  C   C12       1.0  0.6590089074357904  0.7290103328196695  0.5296843176234275  1.0000
  C   C13       1.0  0.17915995150661249  0.7552161155632859  0.4630200945444897  1.0000
  C   C14       1.0  0.8208347149688606  0.24479786361541048  0.536982315466588  1.0000
  S   S1        1.0  0.578990313671561  0.7263397746514714  0.036059558977122215  1.0000
  S   S2        1.0  0.4209984313296289  0.27365460899669364  0.9639376205691407  1.0000
  N   N1        1.0  0.09716070065905308  0.9973241598275918  0.1966574593787911  1.0000
  N   N2        1.0  0.902838777444636  0.002671059801151894  0.8033473759326597  1.0000
  O   O1        1.0  0.34293667039492703  0.3744880385227631  0.4024308075843591  1.0000
  O   O2        1.0  0.6570581051565441  0.625496801954256  0.5975563832498095  1.0000
  O   O3        1.0  0.4005978448088072  0.27770468779608143  0.5964370694049208  1.0000
  O   O4        1.0  0.5994196908947417  0.7222961626577202  0.40354427323551073  1.0000
  O   O5        1.0  0.15742566438077432  0.640357158121873  0.3838672665044527  1.0000
  O   O6        1.0  0.842572091499463  0.35964648048277337  0.6161496533712307  1.0000
  O   O7        1.0  0.2070197715149149  0.7667811242245861  0.5928535133100536  1.0000
  O   O8        1.0  0.7929802785373213  0.23321614277514877  0.40714948785097954  1.0000
  O   O9        1.0  0.6836632770023597  0.8672199555564789  0.05176183605330209  1.0000
  O   O10       1.0  0.3163725642716458  0.13276188338994643  0.9482316330709821  1.0000
  O   O11       1.0  0.700111165836809  0.62738265133342  0.1028305523922697  1.0000
  O   O12       1.0  0.2998457088260835  0.37258755716274555  0.8971600377467013  1.0000
  O   O13       1.0  0.3730813610175047  0.7188054639626247  0.10967029961599199  1.0000
  O   O14       1.0  0.6269165146568909  0.28121677584841365  0.8903381814081115  1.0000
  O   O15       1.0  0.5333309945651054  0.6741537214551769  0.8874999130624913  1.0000
  O   O16       1.0  0.46662991655951913  0.32584859123678467  0.1124991359936445  1.0000
  O   O17       1.0  0.13375963967386184  0.8267817340725544  0.9359555836745911  1.0000
  O   O18       1.0  0.8662734817343819  0.1732405747872079  0.0640335677850103  1.0000
  O   O19       1.0  0.7759043233264366  0.46631624750506995  0.3098132035384609  1.0000
  O   O20       1.0  0.22409286956569466  0.5336821239566162  0.6901898071551642  1.0000
  O   O21       1.0  0.09835906853688675  0.468148263293209  0.13619841626073279  1.0000
  O   O22       1.0  0.9016157956238403  0.5318960967050189  0.8637816281377582  1.0000
