data_image0
_chemical_formula_structural       Zn6H53C60NO24
_chemical_formula_sum              "Zn6 H53 C60 N1 O24"
_cell_length_a       18.506036250597095
_cell_length_b       18.551888695506058
_cell_length_c       18.597664526046486
_cell_angle_alpha    109.1202733056526
_cell_angle_beta     109.45843203861645
_cell_angle_gamma    109.19999608774012

_space_group_name_H-M_alt    "P 1"
_space_group_IT_number       1

loop_
  _space_group_symop_operation_xyz
  'x, y, z'

loop_
  _atom_site_type_symbol
  _atom_site_label
  _atom_site_symmetry_multiplicity
  _atom_site_fract_x
  _atom_site_fract_y
  _atom_site_fract_z
  _atom_site_occupancy
  Zn  Zn1       1.0  0.002613823044633518  0.07413740546448373  0.5709212187780679  1.0000
  Zn  Zn2       1.0  0.0025057680619867666  0.9477641176889338  0.44708589840574586  1.0000
  Zn  Zn3       1.0  0.4421018873638046  0.9353928726636483  0.002460676744909946  1.0000
  Zn  Zn4       1.0  0.565274238613547  0.0592871371432508  0.9985385187715963  1.0000
  Zn  Zn5       1.0  0.5617093189331469  0.49926553315926725  0.5572577779700865  1.0000
  Zn  Zn6       1.0  0.4395241270516266  0.5057090176078987  0.4339050143177872  1.0000
  H   H1        1.0  0.6994190124744789  0.9275730129863362  0.3273147704765831  1.0000
  H   H2        1.0  0.7694964196015163  0.026596354802677507  0.1505021210606899  1.0000
  H   H3        1.0  0.7241082979806207  0.10189179311160501  0.2543070229079021  1.0000
  H   H4        1.0  0.8799397356018162  0.7890898810204378  0.5494987574913495  1.0000
  H   H5        1.0  0.755607571953149  0.6602284832560626  0.5270423968460562  1.0000
  H   H6        1.0  0.5868238269670769  0.768911521606711  0.46354123359009963  1.0000
  H   H7        1.0  0.1731251696421482  0.8658349602665396  0.5853384574882271  1.0000
  H   H8        1.0  0.29049877451575407  0.07437575534707722  0.8969167610820465  1.0000
  H   H9        1.0  0.18425685077279033  0.0815032521168249  0.7777422195952468  1.0000
  H   H10       1.0  0.10138126704824658  0.1373486432990916  0.3673567083412976  1.0000
  H   H11       1.0  0.20494189156489986  0.2475511460221824  0.3491153110270844  1.0000
  H   H12       1.0  0.3607007118694909  0.41081099631517765  0.6292283523909603  1.0000
  H   H13       1.0  0.24815475721010927  0.30840143294850725  0.6462464998467256  1.0000
  H   H14       1.0  0.5512360444623707  0.2972779217916468  0.14702477149777582  1.0000
  H   H15       1.0  0.5395948550904064  0.40211934526717397  0.26255503244712486  1.0000
  H   H16       1.0  0.528235861473334  0.24073707287763574  0.38466721280122584  1.0000
  H   H17       1.0  0.5235673712753623  0.12843471761587472  0.2603103427575634  1.0000
  H   H18       1.0  0.6575049681678139  0.9245746577784363  0.8334978020166731  1.0000
  H   H19       1.0  0.43144548397258115  0.61591157977724  0.7065965843433446  1.0000
  H   H20       1.0  0.4295294643460821  0.7385060406685183  0.8136176320922104  1.0000
  H   H21       1.0  0.578641550444793  0.8729116606781204  0.19648696734848392  1.0000
  H   H22       1.0  0.8006364806534946  0.07113932728402973  0.39302325083073  1.0000
  H   H23       1.0  0.6659711367373616  0.040134153733447406  0.2908794122420986  1.0000
  H   H24       1.0  0.8738166131960343  0.994578827288976  0.22671396054789744  1.0000
  H   H25       1.0  0.7964727088263854  0.884420771346072  0.18007833130275228  1.0000
  H   H26       1.0  0.7066742699294933  0.9124387434364037  0.08036752742928122  1.0000
  H   H27       1.0  0.8350375995085101  0.23248384799833846  0.3842137078508827  1.0000
  H   H28       1.0  0.9025541206366652  0.2286879403280366  0.47519665518368015  1.0000
  H   H29       1.0  0.9503927183933242  0.28106401349616306  0.425453057941219  1.0000
  H   H30       1.0  0.9404446181093815  0.13395225538165795  0.381880498397777  1.0000
  H   H31       1.0  0.8754293741244082  0.1367438692197425  0.2896490656026102  1.0000
  H   H32       1.0  0.6820873819996223  0.9615273755509293  0.6068765578512937  1.0000
  H   H33       1.0  0.7941033041967315  0.022017116440359502  0.6360557785650727  1.0000
  H   H34       1.0  0.7142397803363352  0.04509110619098781  0.5786594515688962  1.0000
  H   H35       1.0  0.7511043913868746  0.958557432078024  0.4768363361462705  1.0000
  H   H36       1.0  0.6399021711425378  0.8973108687457201  0.4472180725020038  1.0000
  H   H37       1.0  0.3386521340694629  0.8792349357580707  0.6178210713971808  1.0000
  H   H38       1.0  0.4187569123946845  0.9288219977530547  0.7294426272563258  1.0000
  H   H39       1.0  0.3805679101559249  0.8176239117508289  0.6563779302411065  1.0000
  H   H40       1.0  0.3090921994303671  0.8234365954640313  0.7492873974482137  1.0000
  H   H41       1.0  0.2298102018754165  0.7759483088142503  0.6386974301407305  1.0000
  H   H42       1.0  0.6136357028301376  0.7844946137969872  0.3149519930306469  1.0000
  H   H43       1.0  0.5687099452118717  0.7222014796657562  0.20045757712744455  1.0000
  H   H44       1.0  0.6334489313541668  0.6972223006066898  0.27227863465216007  1.0000
  H   H45       1.0  0.7224422438747098  0.7808030535378806  0.22016518527893678  1.0000
  H   H46       1.0  0.7670026112941032  0.8335561555990483  0.3337772817372342  1.0000
  H   H47       1.0  0.555418775994532  0.7482810945510607  0.09697518658812501  1.0000
  H   H48       1.0  0.6521449941638766  0.7882511974567878  0.10382702696019666  1.0000
  H   H49       1.0  0.7304994313688622  0.9445220241487533  0.7568439870882955  1.0000
  H   H50       1.0  0.792660175288134  0.92627636156778  0.8381726527789296  1.0000
  H   H51       1.0  0.8026179281215988  0.9051869859145685  0.7426190231863216  1.0000
  H   H52       1.0  0.7112836124718882  0.7637678607602114  0.7271268620232619  1.0000
  H   H53       1.0  0.6489066399312121  0.7828505007117456  0.6490112735275843  1.0000
  C   C1        1.0  0.881514864470617  0.9249967180117837  0.5361529202355301  1.0000
  C   C2        1.0  0.6685449769685973  0.961776429907637  0.17659365816768965  1.0000
  C   C3        1.0  0.7122023081085016  0.04541354183615451  0.26536538424203115  1.0000
  C   C4        1.0  0.7386510896125388  0.9638550095965286  0.1485513620116166  1.0000
  C   C5        1.0  0.8161131401122147  0.7852691547779856  0.5337038395778819  1.0000
  C   C6        1.0  0.7471629627406813  0.7132352238761969  0.5197346095625122  1.0000
  C   C7        1.0  0.6640833465522249  0.7072229613600387  0.49326588173597236  1.0000
  C   C8        1.0  0.6522440542977465  0.7752943836586185  0.4849027925987954  1.0000
  C   C9        1.0  0.7226519110388381  0.8512932274340059  0.5038911198210343  1.0000
  C   C10       1.0  0.8047084633991305  0.8543322534442269  0.5268185008357734  1.0000
  C   C11       1.0  0.1992804551810679  0.9110195557070639  0.6541160901469992  1.0000
  C   C12       1.0  0.8773412235620625  0.9760149646954303  0.36490148622670654  1.0000
  C   C13       1.0  0.25754309097087014  0.9047718772253293  0.719645267155741  1.0000
  C   C14       1.0  0.2905920729212568  0.9655527857102086  0.807316138392835  1.0000
  C   C15       1.0  0.2639811098901033  0.028428643522026703  0.8283580789291705  1.0000
  C   C16       1.0  0.20545070846266358  0.03294330127084071  0.7624553371926553  1.0000
  C   C17       1.0  0.1739036483816962  0.974887408561948  0.6745710379479206  1.0000
  C   C18       1.0  0.15655977122580111  0.19903722633122106  0.42408692184674385  1.0000
  C   C19       1.0  0.2147677125722822  0.2597511885294637  0.4140010767474109  1.0000
  C   C20       1.0  0.2892329826315887  0.33524034042831374  0.48822824829373707  1.0000
  C   C21       1.0  0.3018860105879427  0.3524146146288346  0.5720208303971148  1.0000
  C   C22       1.0  0.24010945789790838  0.29496604185801095  0.5816482771489433  1.0000
  C   C23       1.0  0.10876889623710179  0.14920547115470842  0.5182755759332097  1.0000
  C   C24       1.0  0.16881261926531013  0.21663760029464646  0.5078603402212352  1.0000
  C   C25       1.0  0.5317479216540804  0.13774628559311003  0.12205202201165827  1.0000
  C   C26       1.0  0.5952986579859639  0.9642740899457821  0.1110535870737834  1.0000
  C   C27       1.0  0.5364758380748429  0.9089134871594737  0.8880832406813609  1.0000
  C   C28       1.0  0.360660302486096  0.9697250026022176  0.881059511878192  1.0000
  C   C29       1.0  0.5401731501933965  0.6263210061761981  0.6431541582471993  1.0000
  C   C30       1.0  0.5915287014414048  0.6283367670285074  0.47798959652580203  1.0000
  C   C31       1.0  0.5254258327890611  0.3893804449908487  0.3981751213807598  1.0000
  C   C32       1.0  0.3591661843261065  0.39535265910284784  0.4802912869163052  1.0000
  C   C33       1.0  0.5443736879043968  0.2846635364828671  0.19830264769053224  1.0000
  C   C34       1.0  0.1145956799201573  0.983228865047906  0.6046627404712482  1.0000
  C   C35       1.0  0.5390288636235068  0.34336965493361754  0.26310617788958973  1.0000
  C   C36       1.0  0.5331916299752066  0.3273325246513039  0.3301390314741113  1.0000
  C   C37       1.0  0.5314870061105381  0.25171585186671314  0.3314601250255507  1.0000
  C   C38       1.0  0.5301399938597839  0.1900007609676706  0.2631151410294734  1.0000
  C   C39       1.0  0.5372030362403066  0.20651292819779601  0.19665708217597463  1.0000
  C   C40       1.0  0.609180413929231  0.8563318769200026  0.8055387553322718  1.0000
  C   C41       1.0  0.6133203294646135  0.7889187246778064  0.7479173261484745  1.0000
  C   C42       1.0  0.5474978032938722  0.702160599789302  0.7127053414418257  1.0000
  C   C43       1.0  0.4817000455746907  0.6837122040093818  0.7357748286617253  1.0000
  C   C44       1.0  0.4797755329963778  0.7513606316265753  0.7942909376357292  1.0000
  C   C45       1.0  0.7112489890200492  0.8977936748474706  0.27348816386496816  1.0000
  C   C46       1.0  0.5429077251108511  0.8381619248381259  0.828323347373541  1.0000
  C   C47       1.0  0.6357839891915018  0.8800647242205031  0.18739046163327086  1.0000
  C   C48       1.0  0.7997770523154983  0.0585839200391192  0.33062956390696024  1.0000
  C   C49       1.0  0.8069703232126526  0.9513548435916306  0.21061183425790367  1.0000
  C   C50       1.0  0.8009564893164837  0.9709289962578398  0.29496503177634986  1.0000
  C   C51       1.0  0.8808574111708081  0.13792673592037372  0.3508806577724428  1.0000
  C   C52       1.0  0.8928089129754042  0.22481585927904754  0.4120729824508019  1.0000
  C   C53       1.0  0.7082781944150227  0.9251250923567157  0.49789239515300915  1.0000
  C   C54       1.0  0.7256991859401297  0.9924967580975663  0.5851762331225531  1.0000
  C   C55       1.0  0.2868420120485667  0.8377329823690263  0.6955740072414757  1.0000
  C   C56       1.0  0.360578765666638  0.8675795754486305  0.6735105690485882  1.0000
  C   C57       1.0  0.7109660757115179  0.8147455614590273  0.2725328927976278  1.0000
  C   C58       1.0  0.6270164218515574  0.7512723657244677  0.26418511362643216  1.0000
  C   C59       1.0  0.6824682113396533  0.8060408264032758  0.7199548645877769  1.0000
  C   C60       1.0  0.7558500372564508  0.900780396903322  0.7672137965623449  1.0000
  N   N1        1.0  0.6036310308869375  0.8020677962557842  0.10546203751227512  1.0000
  O   O1        1.0  0.9097663857808695  0.006024816530590701  0.5881374336930351  1.0000
  O   O2        1.0  0.5798454557747589  0.16250271071171343  0.08895993607494998  1.0000
  O   O3        1.0  0.5145772296379151  0.9141359477069672  0.08676471467946105  1.0000
  O   O4        1.0  0.6191892421329965  0.0197640010953748  0.08625113466545992  1.0000
  O   O5        1.0  0.4782326015809419  0.8854119620797507  0.9099690489545937  1.0000
  O   O6        1.0  0.5888146781618459  0.9896722027262898  0.9142017583184268  1.0000
  O   O7        1.0  0.3370606313870682  0.918319389023175  0.911256541798842  1.0000
  O   O8        1.0  0.43897486263244184  0.025868070916715207  0.909007833915659  1.0000
  O   O9        1.0  0.5922139488326436  0.5959231875203487  0.6655571877075489  1.0000
  O   O10       1.0  0.4806212682293065  0.595952643228415  0.5658385166563419  1.0000
  O   O11       1.0  0.6139618422855478  0.5880716720501342  0.5170388008301147  1.0000
  O   O12       1.0  0.9145649064557091  0.8981759263169451  0.4905213960563727  1.0000
  O   O13       1.0  0.5109987003842562  0.6050406101932425  0.4273477833691716  1.0000
  O   O14       1.0  0.5707879465168588  0.4085390917385753  0.47806581268081766  1.0000
  O   O15       1.0  0.4744327421638133  0.4183956456729589  0.3723798318484768  1.0000
  O   O16       1.0  0.4378578240267998  0.4190449530490172  0.532317580161518  1.0000
  O   O17       1.0  0.33575859682279224  0.41876609147119126  0.42222419001620887  1.0000
  O   O18       1.0  0.9054253753996732  0.0286260697259451  0.44426769989424736  1.0000
  O   O19       1.0  0.909237413723176  0.926149614803457  0.34081638104729  1.0000
  O   O20       1.0  0.0861746046335909  0.1756680172251706  0.5761944863344796  1.0000
  O   O21       1.0  0.08460308326184672  0.06998799683896811  0.4691329761293091  1.0000
  O   O22       1.0  0.0932672704440449  0.04191334571479641  0.6285541841398584  1.0000
  O   O23       1.0  0.0884922893645524  0.9312633990177801  0.5241125730337898  1.0000
  O   O24       1.0  0.47878705437084784  0.05894053146318611  0.09613088416796235  1.0000
