data_image0
_chemical_formula_structural       Cu4H64C64S8I4
_chemical_formula_sum              "Cu4 H64 C64 S8 I4"
_cell_length_a       11.310871011152084
_cell_length_b       12.901849408048
_cell_length_c       12.901893369914545
_cell_angle_alpha    107.6194814301417
_cell_angle_beta     89.99969226408402
_cell_angle_gamma    90.0005794618935

_space_group_name_H-M_alt    "P 1"
_space_group_IT_number       1

loop_
  _space_group_symop_operation_xyz
  'x, y, z'

loop_
  _atom_site_type_symbol
  _atom_site_label
  _atom_site_symmetry_multiplicity
  _atom_site_fract_x
  _atom_site_fract_y
  _atom_site_fract_z
  _atom_site_occupancy
  Cu  Cu1       1.0  0.2876893652439776  0.5610454688717184  0.5610457312506085  1.0000
  Cu  Cu2       1.0  0.7876885456165255  0.4389515370893875  0.43895375531832304  1.0000
  Cu  Cu3       1.0  0.26389242593730694  0.7520127662234657  0.7520131398935418  1.0000
  Cu  Cu4       1.0  0.7638941014358877  0.24798731215022946  0.2479881100184329  1.0000
  H   H1        1.0  0.1830493343543296  0.4292762845836577  0.3087681613547915  1.0000
  H   H2        1.0  0.6830555684952272  0.5707255312803525  0.6912316302719147  1.0000
  H   H3        1.0  0.1830571092286206  0.3087634397211616  0.4292717437581929  1.0000
  H   H4        1.0  0.6830513300213497  0.6912318007517372  0.5707222902538902  1.0000
  H   H5        1.0  0.3395695148766151  0.41269680901363165  0.28976830569138917  1.0000
  H   H6        1.0  0.8395758245953359  0.5873030595683204  0.710231762517509  1.0000
  H   H7        1.0  0.3395781524523116  0.2897671631463368  0.41269580805749945  1.0000
  H   H8        1.0  0.8395724916446027  0.7102319064499412  0.5873048066969916  1.0000
  H   H9        1.0  0.410269177249468  0.3912865950403556  0.11172911170994841  1.0000
  H   H10       1.0  0.9102737609103925  0.6087130231160743  0.888269785970053  1.0000
  H   H11       1.0  0.410277313175797  0.11172540995099918  0.3912873787912474  1.0000
  H   H12       1.0  0.9102700454935332  0.8882717970979144  0.6087123793058709  1.0000
  H   H13       1.0  0.4093156480502885  0.44512395231494395  0.9428374872237127  1.0000
  H   H14       1.0  0.9093132023503113  0.554879709484574  0.05716179677590824  1.0000
  H   H15       1.0  0.40931474680071744  0.9428362291565194  0.4451247840484455  1.0000
  H   H16       1.0  0.9093149876696245  0.05716262449912081  0.5548770000268703  1.0000
  H   H17       1.0  0.09383094528600819  0.6330622904874019  0.04961546446989467  1.0000
  H   H18       1.0  0.5938270458867763  0.3669355732195426  0.9503851550740093  1.0000
  H   H19       1.0  0.0938293197997382  0.0496142377432349  0.6330640635240101  1.0000
  H   H20       1.0  0.5938322078024926  0.9503844108818316  0.366935230231853  1.0000
  H   H21       1.0  0.09524646103011487  0.580145058027874  0.21775620325444578  1.0000
  H   H22       1.0  0.5952503919776788  0.4198519618375728  0.7822418427263145  1.0000
  H   H23       1.0  0.0952520959502579  0.21775686029752714  0.5801431935976851  1.0000
  H   H24       1.0  0.5952500617083061  0.7822417152933241  0.4198514215764391  1.0000
  H   H25       1.0  0.18413304043791354  0.8330683132441832  0.5621214717807703  1.0000
  H   H26       1.0  0.6841370360547855  0.16693027311189473  0.4378781659256532  1.0000
  H   H27       1.0  0.1841359479242257  0.5621205935425166  0.8330708967997043  1.0000
  H   H28       1.0  0.6841358967799706  0.43787966135349177  0.16693154396434554  1.0000
  H   H29       1.0  0.34036244868584475  0.8390477947456958  0.5536445771937865  1.0000
  H   H30       1.0  0.8403663232273715  0.16095286519908572  0.44635416345479223  1.0000
  H   H31       1.0  0.34036611237125675  0.5536421707315996  0.8390497984517539  1.0000
  H   H32       1.0  0.8403653118529845  0.44635851743123567  0.1609505006589202  1.0000
  H   H33       1.0  0.4891617148135055  0.5747464943496466  0.36282880454808014  1.0000
  H   H34       1.0  0.9891648280043414  0.4252546651702501  0.6371748242114634  1.0000
  H   H35       1.0  0.4891660286712494  0.3628316225095389  0.5747491724366824  1.0000
  H   H36       1.0  0.9891613982809843  0.6371735461541448  0.4252525027967097  1.0000
  H   H37       1.0  0.4449922921912374  0.7026402950211831  0.4498715501947573  1.0000
  H   H38       1.0  0.9449953420728933  0.29736127494674486  0.5501300726439737  1.0000
  H   H39       1.0  0.4449909400051054  0.44987438429094334  0.7026408769802472  1.0000
  H   H40       1.0  0.9449931578364924  0.5501263584480114  0.2973597339489232  1.0000
  H   H41       1.0  0.5836430863014002  0.5928601136999205  0.2062470771402475  1.0000
  H   H42       1.0  0.0836442367203887  0.4071392649256324  0.793752472151759  1.0000
  H   H43       1.0  0.5836405499826895  0.20625269396803955  0.5928593874590788  1.0000
  H   H44       1.0  0.0836441207635517  0.7937514645869471  0.4071361032941425  1.0000
  H   H45       1.0  0.5791853770879741  0.6479534602949784  0.03811665994999203  1.0000
  H   H46       1.0  0.0791839766677995  0.35204506884146264  0.9618826666649056  1.0000
  H   H47       1.0  0.5791808658431421  0.038119421742493415  0.6479511649965417  1.0000
  H   H48       1.0  0.0791849515318717  0.9618838873197788  0.3520441030805658  1.0000
  H   H49       1.0  0.2753262770479168  0.8492691420632424  0.1612674657939408  1.0000
  H   H50       1.0  0.7753196746448693  0.1507294315439864  0.8387348515781312  1.0000
  H   H51       1.0  0.27532195833855866  0.16126795141445877  0.8492711214218502  1.0000
  H   H52       1.0  0.7753231092616062  0.8387322202037878  0.1507301028481295  1.0000
  H   H53       1.0  0.2787089098637239  0.7917205704968141  0.32621311513398155  1.0000
  H   H54       1.0  0.7787075195378746  0.20827884383946582  0.6737894273241807  1.0000
  H   H55       1.0  0.2787083278320067  0.32621582921255765  0.791724392795345  1.0000
  H   H56       1.0  0.778706333370536  0.6737868657674754  0.20828063885385725  1.0000
  H   H57       1.0  0.4155033462674069  0.9845591290448114  0.8576688158399223  1.0000
  H   H58       1.0  0.9155065134918985  0.015442158030147403  0.1423305354606086  1.0000
  H   H59       1.0  0.4155092964951379  0.8576704262762294  0.9845572057858335  1.0000
  H   H60       1.0  0.9155032155728904  0.1423309031204028  0.015444483209329002  1.0000
  H   H61       1.0  0.47543420216396015  0.9182840034377053  0.7271338941817262  1.0000
  H   H62       1.0  0.9754382215609495  0.0817177584769624  0.2728645434282271  1.0000
  H   H63       1.0  0.4754404679621089  0.7271337750848731  0.9182830267825324  1.0000
  H   H64       1.0  0.9754363762693571  0.2728664311440597  0.08171884162314311  1.0000
  C   C1        1.0  0.2639569181767953  0.2864140365665762  0.4649002052511406  1.0000
  C   C2        1.0  0.763954268028364  0.7135835465683584  0.5350972295478583  1.0000
  C   C3        1.0  0.26395054034684046  0.46490204714531563  0.2864152903856763  1.0000
  C   C4        1.0  0.7639544571292162  0.5350980035044018  0.7135844009283262  1.0000
  C   C5        1.0  0.2531418565929471  0.1770785706897441  0.4825252165788497  1.0000
  C   C6        1.0  0.7531352751142819  0.8229213635283512  0.5174729405315475  1.0000
  C   C7        1.0  0.2531304132682521  0.482525145368349  0.1770788797900664  1.0000
  C   C8        1.0  0.753135225068924  0.5174748029064844  0.8229200565657564  1.0000
  C   C9        1.0  0.33888911296712365  0.09698811204454222  0.44212088397272703  1.0000
  C   C10       1.0  0.8388849792952796  0.9030085690181907  0.5578821512130788  1.0000
  C   C11       1.0  0.3388850935666952  0.44211608862507745  0.09698933834687302  1.0000
  C   C12       1.0  0.8388845781851656  0.5578813350124606  0.9030100333622144  1.0000
  C   C13       1.0  0.3383774573293437  0.001957133698397201  0.47247573010260874  1.0000
  C   C14       1.0  0.8383746093544531  0.9980468047791933  0.5275262834285145  1.0000
  C   C15       1.0  0.3383710108462452  0.4724729504203111  0.001955769902174637  1.0000
  C   C16       1.0  0.8383722147746865  0.5275268660520851  0.9980419633037343  1.0000
  C   C17       1.0  0.25218797303764257  0.9843622629896487  0.5430117077174829  1.0000
  C   C18       1.0  0.7521892165490128  0.0156369631962292  0.4569924527034884  1.0000
  C   C19       1.0  0.25219114109399493  0.5430026757703672  0.9843617416542969  1.0000
  C   C20       1.0  0.7521869325854238  0.4569916012354371  0.015637126517020872  1.0000
  C   C21       1.0  0.16142838674159776  0.5771675016499741  0.06118481779371623  1.0000
  C   C22       1.0  0.6614278574073752  0.42283410958688716  0.9388134638829015  1.0000
  C   C23       1.0  0.1614317786839763  0.0611868317629956  0.5771652456932586  1.0000
  C   C24       1.0  0.6614315383083706  0.9388156067172632  0.4228340478889622  1.0000
  C   C25       1.0  0.16200259145428222  0.5471073483930056  0.15585212820964503  1.0000
  C   C26       1.0  0.6620029894276555  0.4528878190592495  0.8441474076598396  1.0000
  C   C27       1.0  0.16200620274798894  0.15585116963316636  0.5471116840824024  1.0000
  C   C28       1.0  0.6620037986656938  0.8441456381626082  0.4528890963766515  1.0000
  C   C29       1.0  0.26106281911715706  0.8877245588215317  0.5844788845750059  1.0000
  C   C30       1.0  0.7610663190140059  0.1122754823709187  0.4155215924507161  1.0000
  C   C31       1.0  0.26106455673403417  0.5844755848336334  0.8877253974936322  1.0000
  C   C32       1.0  0.7610636972879232  0.4155236432442778  0.11227484685208117  1.0000
  C   C33       1.0  0.4252907746609722  0.6410821993834759  0.3717077590949885  1.0000
  C   C34       1.0  0.9252931744537278  0.35891841084163895  0.6282944544970945  1.0000
  C   C35       1.0  0.42529192787129233  0.3717100399986323  0.6410832351525714  1.0000
  C   C36       1.0  0.9252893689449734  0.6282921400230562  0.3589163268743362  1.0000
  C   C37       1.0  0.430365206250073  0.6864043078347067  0.2771085784095676  1.0000
  C   C38       1.0  0.9303647342691406  0.3135963155706989  0.7228920653359907  1.0000
  C   C39       1.0  0.4303651215562283  0.2771133889319445  0.6864058211659056  1.0000
  C   C40       1.0  0.930363934885264  0.7228904163954868  0.3135918571419581  1.0000
  C   C41       1.0  0.5171233728847825  0.6505684948139817  0.19686957584731601  1.0000
  C   C42       1.0  0.0171237980114114  0.34943198143970733  0.8031313672794624  1.0000
  C   C43       1.0  0.5171211271290517  0.19687263267360328  0.6505685711884723  1.0000
  C   C44       1.0  0.017126043784344302  0.803129413387481  0.3494297203701607  1.0000
  C   C45       1.0  0.5149392216010896  0.682384232031829  0.10257519172161267  1.0000
  C   C46       1.0  0.0149369331308833  0.31761539917706477  0.8974247443948968  1.0000
  C   C47       1.0  0.5149349760198517  0.10257826572014751  0.6823822774948881  1.0000
  C   C48       1.0  0.014936758226767198  0.897425304092799  0.31761180893875723  1.0000
  C   C49       1.0  0.4258324726303542  0.7513603776173241  0.08693451040768718  1.0000
  C   C50       1.0  0.9258292007307035  0.2486385966785676  0.9130664573809071  1.0000
  C   C51       1.0  0.42582747841391483  0.08693736159558803  0.7513611890149862  1.0000
  C   C52       1.0  0.9258324267573029  0.9130648369295784  0.2486391510345102  1.0000
  C   C53       1.0  0.3451384141097051  0.794788068078624  0.17157159120467472  1.0000
  C   C54       1.0  0.845135157638836  0.20521024788298092  0.8284295576239984  1.0000
  C   C55       1.0  0.34513732090434246  0.1715752113238551  0.7947900601370961  1.0000
  C   C56       1.0  0.8451353667784502  0.8284287258925643  0.20520882129687837  1.0000
  C   C57       1.0  0.34708032003092626  0.7623373805026077  0.2648400884506685  1.0000
  C   C58       1.0  0.8470788941193772  0.23766095130930853  0.7351610560192157  1.0000
  C   C59       1.0  0.34707945497493853  0.2648429315751244  0.7623422563689246  1.0000
  C   C60       1.0  0.8470797591844315  0.7351586949913764  0.2376621565225605  1.0000
  C   C61       1.0  0.40988597313453573  0.9786411809410323  0.7708758051931568  1.0000
  C   C62       1.0  0.9098895617102796  0.021360060306875504  0.2291235587096878  1.0000
  C   C63       1.0  0.4098912078321247  0.7708759571495846  0.9786394368345483  1.0000
  C   C64       1.0  0.9098869793174202  0.22912451330906694  0.02136203208193172  1.0000
  S   S1        1.0  0.27926810374125205  0.3975035959289244  0.5927691388132104  1.0000
  S   S2        1.0  0.7792667187596152  0.602494939340488  0.4072292735466903  1.0000
  S   S3        1.0  0.2792654107897619  0.5927710233210419  0.3975028216910204  1.0000
  S   S4        1.0  0.779268527603591  0.4072275260483806  0.6024963699024113  1.0000
  S   S5        1.0  0.26192809082341023  0.9200346296909389  0.732912108066131  1.0000
  S   S6        1.0  0.7619303570899164  0.0799638064374761  0.2670886808902395  1.0000
  S   S7        1.0  0.2619326240276365  0.7329102363487293  0.9200357411821115  1.0000
  S   S8        1.0  0.7619284762047015  0.2670898542195986  0.07996707159835381  1.0000
  I   I1        1.0  0.07673680282171348  0.6510977461132654  0.6510988838167009  1.0000
  I   I2        1.0  0.5767381444781066  0.34889997815422197  0.3489017740726581  1.0000
  I   I3        1.0  0.47070208663780017  0.6675697754969717  0.6675682737026207  1.0000
  I   I4        1.0  0.9707033384759354  0.33243119110346  0.3324330587762603  1.0000
