data_image0
_chemical_formula_structural       Zr6H60C80O32
_chemical_formula_sum              "Zr6 H60 C80 O32"
_cell_length_a       15.023314757476824
_cell_length_b       18.646142017544083
_cell_length_c       19.60491859527736
_cell_angle_alpha    81.10807012728671
_cell_angle_beta     67.45851765959426
_cell_angle_gamma    66.26791746172104

_space_group_name_H-M_alt    "P 1"
_space_group_IT_number       1

loop_
  _space_group_symop_operation_xyz
  'x, y, z'

loop_
  _atom_site_type_symbol
  _atom_site_label
  _atom_site_symmetry_multiplicity
  _atom_site_fract_x
  _atom_site_fract_y
  _atom_site_fract_z
  _atom_site_occupancy
  Zr  Zr1       1.0  0.5699334500361533  0.00015324449820750005  0.8605001978585349  1.0000
  Zr  Zr2       1.0  0.43008890437065633  0.999844412096522  0.13949918470532913  1.0000
  Zr  Zr3       1.0  0.5609214584128992  0.1062964725862159  0.0009110568328692842  1.0000
  Zr  Zr4       1.0  0.43908469759568225  0.8936982502105054  0.9991003061178033  1.0000
  Zr  Zr5       1.0  0.331971279604666  0.1060277834839241  0.0006138236192895649  1.0000
  Zr  Zr6       1.0  0.6680482601261277  0.8939663578939164  0.9993759651964069  1.0000
  H   H1        1.0  0.7371072837186221  0.0040207187870109  0.905649431133412  1.0000
  H   H2        1.0  0.35411150109580114  0.003749383428434801  0.9049107851789412  1.0000
  H   H3        1.0  0.2629033975227773  0.9959880674741582  0.094351597338182  1.0000
  H   H4        1.0  0.6459013126343932  0.9962459273406171  0.09509184673099462  1.0000
  H   H5        1.0  0.4909705061926459  0.25504508831060957  0.04353003866538769  1.0000
  H   H6        1.0  0.46765953027217944  0.7475448134823496  0.04511383522414998  1.0000
  H   H7        1.0  0.2608543903214059  0.25218017244598917  0.9545422224703444  1.0000
  H   H8        1.0  0.7891408266833515  0.7450851910879166  0.9569059637486389  1.0000
  H   H9        1.0  0.5090288712724208  0.7449619368728903  0.9564840187045788  1.0000
  H   H10       1.0  0.5323424214846502  0.2524633842799702  0.9548972046636591  1.0000
  H   H11       1.0  0.7391631029846126  0.7478145539981896  0.04545273068495695  1.0000
  H   H12       1.0  0.21087763692239753  0.2549118793942144  0.04308624634986558  1.0000
  H   H13       1.0  0.5061680825811624  0.7196351919271251  0.8182482224599568  1.0000
  H   H14       1.0  0.6729015567763387  0.28132439137119297  0.818042075418546  1.0000
  H   H15       1.0  0.7718145662869846  0.7189871149120323  0.18195526091298567  1.0000
  H   H16       1.0  0.043835946111862256  0.28025554773276445  0.1814855017057653  1.0000
  H   H17       1.0  0.49382282228188495  0.2803700750233845  0.18175103352431415  1.0000
  H   H18       1.0  0.3270953908229546  0.7186826343224271  0.18195964496234038  1.0000
  H   H19       1.0  0.22818611779313622  0.2810052638303304  0.8180477884808965  1.0000
  H   H20       1.0  0.9561707400548445  0.7197526522158242  0.81851054777006  1.0000
  H   H21       1.0  0.6347260997337543  0.8802915390501341  0.6764942958200775  1.0000
  H   H22       1.0  0.6879665895156323  0.12004838717140844  0.6762157263063242  1.0000
  H   H23       1.0  0.48330908562938674  0.8796478486391096  0.3239053780644097  1.0000
  H   H24       1.0  0.1915429364615164  0.11979964461170314  0.32306659048239783  1.0000
  H   H25       1.0  0.3652665813590518  0.11971783011676251  0.3234985147126039  1.0000
  H   H26       1.0  0.3120302447052128  0.8799521930093449  0.32379266816791835  1.0000
  H   H27       1.0  0.5166710093286683  0.12034452680797615  0.6760866215284194  1.0000
  H   H28       1.0  0.8084502423954023  0.8801956621070558  0.6769366437950094  1.0000
  H   H29       1.0  0.5613581116098987  0.6376585884790701  0.7095984548056151  1.0000
  H   H30       1.0  0.7291002834706718  0.3623102316193255  0.7091135030523573  1.0000
  H   H31       1.0  0.7999908921057257  0.6377741551576153  0.29077923739526307  1.0000
  H   H32       1.0  0.9085299184757503  0.36221395148126595  0.290159675475145  1.0000
  H   H33       1.0  0.43863375444806285  0.3623425771965004  0.2904025387456314  1.0000
  H   H34       1.0  0.2708954681263407  0.6376915210204646  0.29088419849930597  1.0000
  H   H35       1.0  0.20000287471424377  0.3622234948658162  0.7092292965471643  1.0000
  H   H36       1.0  0.09147480175330709  0.6377889747985749  0.7098379761501619  1.0000
  H   H37       1.0  0.6925478746648611  0.7980817380346255  0.567330329742333  1.0000
  H   H38       1.0  0.7414981558012812  0.2013167142651753  0.5668128911823229  1.0000
  H   H39       1.0  0.5087817642220716  0.798211654468304  0.4332187557944067  1.0000
  H   H40       1.0  0.05823441893078048  0.20200109249405074  0.4322457496416447  1.0000
  H   H41       1.0  0.30743875458689024  0.20191942707628396  0.4326644970175052  1.0000
  H   H42       1.0  0.2584993898105311  0.7986780075287713  0.4331892447492151  1.0000
  H   H43       1.0  0.49119278358239893  0.20178423480789587  0.5667789568966837  1.0000
  H   H44       1.0  0.9417480802399752  0.7979977276891433  0.5677548374730319  1.0000
  H   H45       1.0  0.7137696399577964  0.5532248158099834  0.612607932646057  1.0000
  H   H46       1.0  0.6755069858557197  0.4463785679298199  0.6125611226762472  1.0000
  H   H47       1.0  0.7338586617469505  0.5533995980165329  0.38737044919481184  1.0000
  H   H48       1.0  0.8793420551503252  0.44674726345723326  0.3869186763595351  1.0000
  H   H49       1.0  0.2862218879410677  0.4467757636727826  0.38739575734984294  1.0000
  H   H50       1.0  0.32449300690959876  0.5536202556438354  0.38744160475951606  1.0000
  H   H51       1.0  0.2661256189155738  0.4466033235314343  0.612634156933204  1.0000
  H   H52       1.0  0.12064258498426049  0.5532585882248783  0.6130793025634559  1.0000
  H   H53       1.0  0.6137536267100221  0.7712677799969468  0.500360456778928  1.0000
  H   H54       1.0  0.8860643099330975  0.22861554298970085  0.4994387363313919  1.0000
  H   H55       1.0  0.3862331938012746  0.22872928322409797  0.49964172852659755  1.0000
  H   H56       1.0  0.11392797321942548  0.7713856234857986  0.5005534833414983  1.0000
  H   H57       1.0  0.7146277010003742  0.11233044806951403  0.03606724068602305  1.0000
  H   H58       1.0  0.2854192913556949  0.8876379199680856  0.9639121272388633  1.0000
  H   H59       1.0  0.13645555749909022  0.11372362569284183  0.03666722158512668  1.0000
  H   H60       1.0  0.8635348684664242  0.88631503531969  0.9633612222643249  1.0000
  C   C1        1.0  0.5319489258441836  0.857609818921745  0.8173606552524432  1.0000
  C   C2        1.0  0.6463963930724933  0.14441899956682397  0.8176082447578421  1.0000
  C   C3        1.0  0.6078159539197614  0.8557189148530214  0.1825474059866961  1.0000
  C   C4        1.0  0.20680425148530193  0.1423791526059404  0.1822970017965986  1.0000
  C   C5        1.0  0.4680562301863631  0.14239076343172744  0.1826418865632958  1.0000
  C   C6        1.0  0.35360830708038565  0.8555833402685451  0.1823959873682952  1.0000
  C   C7        1.0  0.3921853022049222  0.14427463607496804  0.817452443987456  1.0000
  C   C8        1.0  0.7932054075432194  0.8576243609347077  0.8176963520631232  1.0000
  C   C9        1.0  0.5667633459694347  0.8053137270397599  0.7539554176291574  1.0000
  C   C10       1.0  0.6767996787513298  0.19574037271073055  0.7537271622268661  1.0000
  C   C11       1.0  0.6255316111163157  0.804227482286912  0.24633712014927756  1.0000
  C   C12       1.0  0.12594283590409827  0.19466117408052955  0.24569834405097163  1.0000
  C   C13       1.0  0.4332311050367681  0.19468978318529653  0.24604059305973885  1.0000
  C   C14       1.0  0.32319821659795883  0.8042648955826198  0.24627309611715004  1.0000
  C   C15       1.0  0.3744610987328941  0.19576489494934188  0.7536644703378099  1.0000
  C   C16       1.0  0.8740602324450111  0.805338236627378  0.7542969790555104  1.0000
  C   C17       1.0  0.5478088639073775  0.7360956744981595  0.7630845966466352  1.0000
  C   C18       1.0  0.6870645647743391  0.26474717571043277  0.762795152609975  1.0000
  C   C19       1.0  0.7140612087006064  0.7353913942231713  0.2372059434137908  1.0000
  C   C20       1.0  0.0468635475649109  0.26379245225572134  0.23661696425226347  1.0000
  C   C21       1.0  0.45217911382309256  0.2639084200585416  0.23691452392015575  1.0000
  C   C22       1.0  0.31293200867118987  0.7352575062268588  0.2372073456316456  1.0000
  C   C23       1.0  0.28593377327592867  0.2646033269626216  0.762797244619719  1.0000
  C   C24       1.0  0.9531465551331384  0.7362134051745812  0.7633741494336588  1.0000
  C   C25       1.0  0.6193427903850409  0.8268973681039925  0.6828535091330251  1.0000
  C   C26       1.0  0.6968598790630411  0.17349820598787605  0.6825472921206238  1.0000
  C   C27       1.0  0.5520704905922147  0.8262917833010307  0.3175285155058061  1.0000
  C   C28       1.0  0.12910397194836076  0.17315627349049834  0.3167678953320205  1.0000
  C   C29       1.0  0.380652973105228  0.1731073140033318  0.31714487677890446  1.0000
  C   C30       1.0  0.30314094373370903  0.8265012038602112  0.31745296714399973  1.0000
  C   C31       1.0  0.4479119484824779  0.1737064512226496  0.6824689188012839  1.0000
  C   C32       1.0  0.8708986981455739  0.8268419653650911  0.6832269714115425  1.0000
  C   C33       1.0  0.5792771980467041  0.6901756819776497  0.7021314968861673  1.0000
  C   C34       1.0  0.7181456442546978  0.3100113822601287  0.7017042256635404  1.0000
  C   C35       1.0  0.7293373931254764  0.6900323490440387  0.2982282000898094  1.0000
  C   C36       1.0  0.971527219125662  0.3097326872692675  0.2975622468410817  1.0000
  C   C37       1.0  0.4207123836757916  0.30982724111991905  0.2978673492552628  1.0000
  C   C38       1.0  0.2818496755660507  0.6899909559575477  0.2982964004221813  1.0000
  C   C39       1.0  0.27065894551269315  0.3099629585644834  0.7017720168895565  1.0000
  C   C40       1.0  0.02848084811897413  0.6902678963589681  0.7024319313073875  1.0000
  C   C41       1.0  0.6506656643020108  0.7811413738684865  0.6222101861279651  1.0000
  C   C42       1.0  0.7275744806139672  0.21870020813516086  0.62174941125663  1.0000
  C   C43       1.0  0.5672381679286715  0.7809995319619177  0.37827003504847295  1.0000
  C   C44       1.0  0.054069359242817104  0.2189004300091072  0.3774183972528888  1.0000
  C   C45       1.0  0.3493327097895716  0.21885920754210286  0.37778696638885373  1.0000
  C   C46       1.0  0.2724282041616777  0.7812974443426131  0.3782513048312309  1.0000
  C   C47       1.0  0.4327391426386739  0.21899694384860174  0.6217268537221087  1.0000
  C   C48       1.0  0.9459332654367719  0.7810966368091529  0.6225791660273855  1.0000
  C   C49       1.0  0.6301331754365268  0.7124210847153949  0.6305243981553942  1.0000
  C   C50       1.0  0.7398703866733246  0.28738172542233553  0.6300427023767198  1.0000
  C   C51       1.0  0.6566336597242072  0.7124342464147376  0.36989562626264666  1.0000
  C   C52       1.0  0.9731008693881907  0.2875507021909556  0.36914314826268674  1.0000
  C   C53       1.0  0.3698586665200383  0.2875812528641788  0.3694753611721921  1.0000
  C   C54       1.0  0.2601287266209768  0.7126170981880265  0.36995737504240367  1.0000
  C   C55       1.0  0.3433545988577507  0.2875663328299041  0.630102810035943  1.0000
  C   C56       1.0  0.026898040753302394  0.7124492938417363  0.6308488862504901  1.0000
  C   C57       1.0  0.6589279920812108  0.6672309980516715  0.5644897661641151  1.0000
  C   C58       1.0  0.7775992075959198  0.33247132774589283  0.5640643583033976  1.0000
  C   C59       1.0  0.6737060980379824  0.6673253508482163  0.43579625921464754  1.0000
  C   C60       1.0  0.8908448743715881  0.3327023558276636  0.4351921584775127  1.0000
  C   C61       1.0  0.3410565212300017  0.3327707519922498  0.4355116872483863  1.0000
  C   C62       1.0  0.22239849836036996  0.667525738256032  0.4359309222416455  1.0000
  C   C63       1.0  0.32628693899896904  0.33267347144924747  0.5642047347048446  1.0000
  C   C64       1.0  0.10915069030598813  0.6672947095144226  0.5648058647560816  1.0000
  C   C65       1.0  0.7000607364056465  0.5850968484853  0.5637301376475107  1.0000
  C   C66       1.0  0.7377018359975342  0.41459938919890504  0.5635343259539096  1.0000
  C   C67       1.0  0.7155981670954648  0.585187151579696  0.4363020085273134  1.0000
  C   C68       1.0  0.8489170868528507  0.41483224588779427  0.4359046923569208  1.0000
  C   C69       1.0  0.29993187827473383  0.4149019738638558  0.43626916568539537  1.0000
  C   C70       1.0  0.26228820036585204  0.5854000189199127  0.4364601801366702  1.0000
  C   C71       1.0  0.28438782183273065  0.4148145987091284  0.5637001297057579  1.0000
  C   C72       1.0  0.15107724922323487  0.5851700921666136  0.5640954771817518  1.0000
  C   C73       1.0  0.6460422565091625  0.7073879666397076  0.500210995999545  1.0000
  C   C74       1.0  0.85423857181128  0.2924825616071019  0.49957808973268664  1.0000
  C   C75       1.0  0.35395028865546174  0.29261085557612193  0.4997897696464263  1.0000
  C   C76       1.0  0.14575911004360623  0.707515676298833  0.5004159565886965  1.0000
  C   C77       1.0  0.728959789541101  0.5432907827712727  0.49993895617640044  1.0000
  C   C78       1.0  0.77245806898906  0.4565518570429888  0.49981008537854865  1.0000
  C   C79       1.0  0.2710358565454884  0.45670921217166693  0.5000582891044018  1.0000
  C   C80       1.0  0.22753600786338518  0.5434493094257392  0.5001867031710815  1.0000
  O   O1        1.0  0.5486109992691579  0.9211430161146482  0.8003770991820787  1.0000
  O   O2        1.0  0.6509857544911882  0.07902033509761712  0.8008205512396669  1.0000
  O   O3        1.0  0.530098607155708  0.9210136163771098  0.1993772496342955  1.0000
  O   O4        1.0  0.2697604009713644  0.07877018897126221  0.1993314599619254  1.0000
  O   O5        1.0  0.45139865312810934  0.07885756710685143  0.1996260347823123  1.0000
  O   O6        1.0  0.34902960000966504  0.9209779056804521  0.19918244408508906  1.0000
  O   O7        1.0  0.46991265989007774  0.07898696735593091  0.8006236445245489  1.0000
  O   O8        1.0  0.7302471180152214  0.9212350814064155  0.8006672863267921  1.0000
  O   O9        1.0  0.6693171302473153  9.349323832450012e-05  0.9291501920707644  1.0000
  O   O10       1.0  0.40172015294790264  0.9999992963265995  0.9288758500957213  1.0000
  O   O11       1.0  0.3307041217743747  0.9998977185318978  0.07084494357447808  1.0000
  O   O12       1.0  0.5982835236779495  0.9999961653368532  0.07113383537854635  1.0000
  O   O13       1.0  0.4875427602519981  0.0912561600676227  0.9337795368452786  1.0000
  O   O14       1.0  0.5811130018423116  0.9060764851372057  0.932055252090052  1.0000
  O   O15       1.0  0.418892178289646  0.09392292531226333  0.06794852394934026  1.0000
  O   O16       1.0  0.5124821928628547  0.9087344663628373  0.06621792796321548  1.0000
  O   O17       1.0  0.4874948168089335  0.8370794104618684  0.8827593021703418  1.0000
  O   O18       1.0  0.6198543183672814  0.16722278953677971  0.882945036478375  1.0000
  O   O19       1.0  0.6697725577360745  0.8332141230509081  0.11719724621640636  1.0000
  O   O20       1.0  0.20740308892557385  0.16296976127483734  0.11689373264639608  1.0000
  O   O21       1.0  0.5125220962695992  0.16291648681974644  0.11724611526577877  1.0000
  O   O22       1.0  0.3801484609474174  0.8327824795062428  0.11705823575739761  1.0000
  O   O23       1.0  0.3302354790907957  0.16677767132310356  0.882805343316214  1.0000
  O   O24       1.0  0.7926258396123842  0.8370448887117378  0.8830954505796881  1.0000
  O   O25       1.0  0.6947939696903095  0.11284535516314524  0.9943786038941695  1.0000
  O   O26       1.0  0.3052198350455698  0.8871388244101724  0.005614435464401897  1.0000
  O   O27       1.0  0.19760268562666294  0.11310142730678763  0.994518370263961  1.0000
  O   O28       1.0  0.8023950089109135  0.8869073547287133  0.005502038965069183  1.0000
  O   O29       1.0  0.4820464477038728  0.2416898930058551  0.0008136483063551313  1.0000
  O   O30       1.0  0.5179609256199458  0.7583124467860288  0.9991978027131622  1.0000
  O   O31       1.0  0.27597521359906096  0.24154891144201696  0.0004504746930961672  1.0000
  O   O32       1.0  0.7240441172695571  0.7584522603749378  0.9995438355586541  1.0000
