data_image0
_chemical_formula_structural       H8Pb2C16N8O4
_chemical_formula_sum              "H8 Pb2 C16 N8 O4"
_cell_length_a       7.108960284218443
_cell_length_b       7.38977257275707
_cell_length_c       9.343216825279052
_cell_angle_alpha    89.99967122078151
_cell_angle_beta     112.31102940904223
_cell_angle_gamma    90.00161731643949

_space_group_name_H-M_alt    "P 1"
_space_group_IT_number       1

loop_
  _space_group_symop_operation_xyz
  'x, y, z'

loop_
  _atom_site_type_symbol
  _atom_site_label
  _atom_site_symmetry_multiplicity
  _atom_site_fract_x
  _atom_site_fract_y
  _atom_site_fract_z
  _atom_site_occupancy
  H   H1        1.0  0.012179453553088098  0.7715637117485485  0.40088227682075217  1.0000
  H   H2        1.0  0.9878071395488276  0.27157578172171526  0.5991189345664336  1.0000
  H   H3        1.0  0.3885871404932003  0.22828554834025278  0.400522095137063  1.0000
  H   H4        1.0  0.611423937700671  0.7282897117645601  0.5994756814121445  1.0000
  H   H5        1.0  0.16448721955208606  0.7649677732555414  0.6895459151150118  1.0000
  H   H6        1.0  0.8355067681842031  0.2649696902056532  0.3104553216592691  1.0000
  H   H7        1.0  0.52504485417586  0.23495637834229652  0.6892344767478064  1.0000
  H   H8        1.0  0.47496947551746155  0.7349630001871575  0.310763138947344  1.0000
  Pb  Pb1       1.0  0.9392207724590163  9.889443192179995e-05  0.8779078978236323  1.0000
  Pb  Pb2       1.0  0.060780069440205906  0.5000901957054111  0.12209115620543537  1.0000
  C   C1        1.0  0.10599876217391817  4.2617569079099994e-05  0.21179795084965744  1.0000
  C   C2        1.0  0.8939914335435117  0.5000463339992862  0.7882076603095453  1.0000
  C   C3        1.0  0.19175330089721138  0.9999480831916258  0.38341632254460467  1.0000
  C   C4        1.0  0.808240493378001  0.4999361839447189  0.6165805931014814  1.0000
  C   C5        1.0  0.1274289193318197  0.8703258687193621  0.46472567137998755  1.0000
  C   C6        1.0  0.872559266989974  0.37032985220037756  0.5352766274559143  1.0000
  C   C7        1.0  0.337273496559952  0.1295806290062487  0.46454183621624867  1.0000
  C   C8        1.0  0.6627314282066192  0.6295839548662199  0.5354567460594024  1.0000
  C   C9        1.0  0.20769486208617846  0.8700083647962626  0.6257733273003792  1.0000
  C   C10       1.0  0.792300918025667  0.37001810820562747  0.37422046389075797  1.0000
  C   C11       1.0  0.41810965833224856  0.12993703724254144  0.6255840536766824  1.0000
  C   C12       1.0  0.5819013591741465  0.6299298687147326  0.3744194981410444  1.0000
  C   C13       1.0  0.3537538510834181  0.9999748140587953  0.7073316046174725  1.0000
  C   C14       1.0  0.6462414643667385  0.49997440772257556  0.29266896124580183  1.0000
  C   C15       1.0  0.43838743986870543  0.999994291582645  0.8766290584577304  1.0000
  C   C16       1.0  0.5616063558554174  0.4999968800537216  0.12336999795749647  1.0000
  N   N1        1.0  0.4656483431596072  0.9891040271985218  0.11424238485338378  1.0000
  N   N2        1.0  0.5343496704619354  0.4890908038820143  0.8857579390411059  1.0000
  N   N3        1.0  0.6486605140484016  0.010984404472502297  0.11412446141111583  1.0000
  N   N4        1.0  0.3513467526783316  0.5109793747928534  0.8858806811205466  1.0000
  N   N5        1.0  0.33005597866777947  0.9805981128833137  0.9664503223509582  1.0000
  N   N6        1.0  0.6699554517930223  0.4805853694156922  0.03354963474085796  1.0000
  N   N7        1.0  0.636484200500746  0.019438746226484192  0.9662519754889372  1.0000
  N   N8        1.0  0.3635248536372798  0.5194403033002004  0.03375150489680576  1.0000
  O   O1        1.0  0.0849724589421967  0.1485004882289047  0.13735787657813597  1.0000
  O   O2        1.0  0.9150330622577413  0.6484893463347557  0.8626397228528615  1.0000
  O   O3        1.0  0.052541019911885194  0.8516976010649558  0.13719974600348184  1.0000
  O   O4        1.0  0.947457223345978  0.3517039288480176  0.8627991201573336  1.0000
