data_image0
_chemical_formula_structural       Mn4H24C36O28
_chemical_formula_sum              "Mn4 H24 C36 O28"
_cell_length_a       8.509960882831756
_cell_length_b       9.636567260791605
_cell_length_c       11.091264759760302
_cell_angle_alpha    91.21028844860137
_cell_angle_beta     89.9972681590096
_cell_angle_gamma    90.00617355419149

_space_group_name_H-M_alt    "P 1"
_space_group_IT_number       1

loop_
  _space_group_symop_operation_xyz
  'x, y, z'

loop_
  _atom_site_type_symbol
  _atom_site_label
  _atom_site_symmetry_multiplicity
  _atom_site_fract_x
  _atom_site_fract_y
  _atom_site_fract_z
  _atom_site_occupancy
  Mn  Mn1       1.0  0.5104282457802682  0.21265117360348287  0.1334848776945563  1.0000
  Mn  Mn2       1.0  0.010402041013996699  0.2872843041296421  0.8665183339149037  1.0000
  Mn  Mn3       1.0  0.4895225896735838  0.7874118806438873  0.866510460822177  1.0000
  Mn  Mn4       1.0  0.9895722880783779  0.7126447695883799  0.133481496986434  1.0000
  H   H1        1.0  0.4791565152548785  0.40662961920826757  0.7102979608378491  1.0000
  H   H2        1.0  0.9791445925611696  0.09330675621490064  0.2897001842810667  1.0000
  H   H3        1.0  0.5208730450323671  0.5933529088908784  0.28974839689553994  1.0000
  H   H4        1.0  0.0208168163511431  0.9067046632129347  0.7102712167375672  1.0000
  H   H5        1.0  0.5232881309387948  0.316973841985245  0.5023364723413692  1.0000
  H   H6        1.0  0.0232814093227702  0.18303053180749632  0.4976500823610338  1.0000
  H   H7        1.0  0.47673555774562715  0.6830568024180864  0.49767872669693963  1.0000
  H   H8        1.0  0.9766776490726556  0.8169716294605183  0.5023138551703212  1.0000
  H   H9        1.0  0.2607757106804556  0.0202018066326275  0.15016733311253463  1.0000
  H   H10       1.0  0.7607960131915376  0.4798071028483904  0.8498482383575308  1.0000
  H   H11       1.0  0.7392044969766758  0.9797690113463347  0.8498137897845198  1.0000
  H   H12       1.0  0.23922884962278346  0.5202120210373805  0.15017566576409547  1.0000
  H   H13       1.0  0.3102664899017213  0.035693232756273105  0.010174899738416303  1.0000
  H   H14       1.0  0.8102904125794765  0.4643059005516507  0.989834930447948  1.0000
  H   H15       1.0  0.689713718536133  0.9642920846105485  0.989809320105934  1.0000
  H   H16       1.0  0.18971917289542967  0.535692506231456  0.010184807267961605  1.0000
  H   H17       1.0  0.6346655610449119  0.317227448846026  0.9325093274865568  1.0000
  H   H18       1.0  0.13464648334364426  0.1827717541769545  0.0674909117166322  1.0000
  H   H19       1.0  0.3653628252541167  0.6827554837968607  0.06750187664221131  1.0000
  H   H20       1.0  0.8653454750865776  0.8172061117555673  0.9325093362598126  1.0000
  H   H21       1.0  0.5082513575054718  0.2115459068814047  0.8774524437980775  1.0000
  H   H22       1.0  0.0082545876981328  0.2884400765101631  0.12256483808382512  1.0000
  H   H23       1.0  0.49175587891089384  0.7884630654644983  0.12255134979641014  1.0000
  H   H24       1.0  0.9917502986470906  0.7115638618709216  0.8774252946332555  1.0000
  C   C1        1.0  0.3470269049549159  0.3258685590938981  0.31395574421076594  1.0000
  C   C2        1.0  0.8470003709037783  0.17412900727834577  0.6860418354929649  1.0000
  C   C3        1.0  0.6530261616683148  0.6741633217144383  0.6860423562438458  1.0000
  C   C4        1.0  0.1529974632543656  0.8258499694480151  0.3139521308137034  1.0000
  C   C5        1.0  0.2967169528213134  0.3772073002475694  0.43670111688646085  1.0000
  C   C6        1.0  0.7967187913051035  0.12278870460203005  0.5632884031149317  1.0000
  C   C7        1.0  0.7033267113762207  0.6227894473448006  0.563282509111616  1.0000
  C   C8        1.0  0.20326611734459726  0.8772036603826694  0.4367149419329481  1.0000
  C   C9        1.0  0.15135944320653746  0.438217931788266  0.4675984387951574  1.0000
  C   C10       1.0  0.6513534601750948  0.06178497878692472  0.5323976628929047  1.0000
  C   C11       1.0  0.848678343871711  0.561759936326226  0.5324018083743242  1.0000
  C   C12       1.0  0.3486220493392338  0.9382242202840916  0.46758630101008  1.0000
  C   C13       1.0  0.12822865766022318  0.49406099775650614  0.585267025417167  1.0000
  C   C14       1.0  0.6282149370567397  0.005929351676329  0.4147278076577053  1.0000
  C   C15       1.0  0.8718020797534435  0.5059263355572413  0.4147226579049673  1.0000
  C   C16       1.0  0.37176057079053487  0.9940579167617616  0.5852672848869676  1.0000
  C   C17       1.0  0.2472376718651006  0.4840459134076626  0.6723932939205355  1.0000
  C   C18       1.0  0.7472140694001013  0.015966198776297312  0.3275931219461938  1.0000
  C   C19       1.0  0.7528012923911476  0.5159580992163699  0.32759052857143445  1.0000
  C   C20       1.0  0.25275673952107514  0.9840500267163184  0.6724117700758683  1.0000
  C   C21       1.0  0.38742433715479047  0.41650182419373755  0.6427341396531291  1.0000
  C   C22       1.0  0.8874105964076691  0.08350274473676224  0.35725849584074615  1.0000
  C   C23       1.0  0.6126322544269981  0.5835279083747126  0.35727021424698796  1.0000
  C   C24       1.0  0.11256961220797729  0.9164897445163549  0.6427340327898108  1.0000
  C   C25       1.0  0.41163997726837914  0.36527487821134497  0.5262245249602132  1.0000
  C   C26       1.0  0.9116440621649105  0.13471852558892292  0.4737650899133713  1.0000
  C   C27       1.0  0.5883931134242956  0.6347643498961375  0.4737665612572145  1.0000
  C   C28       1.0  0.08831029561418549  0.8652916688712722  0.5262225079208136  1.0000
  C   C29       1.0  0.23202327703307185  0.5409276381427902  0.7990766104555433  1.0000
  C   C30       1.0  0.7320045998104588  0.9590838763058617  0.20091123638602684  1.0000
  C   C31       1.0  0.7679827850524105  0.45908668960495924  0.20091290145317944  1.0000
  C   C32       1.0  0.2679732576312831  0.040898099032432404  0.7990927295736797  1.0000
  C   C33       1.0  0.019803146201823597  0.43526380888299354  0.38130566748641576  1.0000
  C   C34       1.0  0.5197886878128272  0.06474196612388992  0.6187108115742959  1.0000
  C   C35       1.0  0.9802099636854177  0.5647363107529558  0.6187456744101638  1.0000
  C   C36       1.0  0.4801703710463698  0.9352623954236069  0.38124236557442975  1.0000
  O   O1        1.0  0.4103890073660992  0.2054234368614161  0.3103882271119431  1.0000
  O   O2        1.0  0.910382682727267  0.2945802366326192  0.6896008112122018  1.0000
  O   O3        1.0  0.5895535960095584  0.7945611213874458  0.6896617937701067  1.0000
  O   O4        1.0  0.0895869503170701  0.7054153969209267  0.3103890976557509  1.0000
  O   O5        1.0  0.3478098978181663  0.4018954233824418  0.22164921133504834  1.0000
  O   O6        1.0  0.8477638016507854  0.09811966369660041  0.7783659442624044  1.0000
  O   O7        1.0  0.6521797157070707  0.5981869169675705  0.7783845173651402  1.0000
  O   O8        1.0  0.15220818063502148  0.9018624254798128  0.2216281066756665  1.0000
  O   O9        1.0  0.1618174413050042  0.4660652961234249  0.8771463376788378  1.0000
  O   O10       1.0  0.6617733482905378  0.0339241402160724  0.12284359531266631  1.0000
  O   O11       1.0  0.838239148630322  0.5339354065462488  0.12285452645171802  1.0000
  O   O12       1.0  0.3382385858202781  0.9660249665019193  0.877129726792248  1.0000
  O   O13       1.0  0.2989015252611154  0.6541242748650903  0.825521777287996  1.0000
  O   O14       1.0  0.798862570282722  0.8458827611936784  0.17450399597318986  1.0000
  O   O15       1.0  0.701178564066339  0.34585623172430513  0.17452001656315733  1.0000
  O   O16       1.0  0.20114466430167252  0.15409406757252953  0.8254962236755291  1.0000
  O   O17       1.0  0.0299571831459389  0.3675868769381553  0.28480565888457937  1.0000
  O   O18       1.0  0.5299226427077387  0.1324459358450412  0.7152003479072208  1.0000
  O   O19       1.0  0.9700665046418635  0.6324454697758172  0.7152420457714757  1.0000
  O   O20       1.0  0.4700563905747117  0.8675271757266149  0.284761902252825  1.0000
  O   O21       1.0  0.29893931849766625  0.08815848844567141  0.08950732811865691  1.0000
  O   O22       1.0  0.798957080672352  0.4118427937587157  0.9104930701319206  1.0000
  O   O23       1.0  0.7010267893252974  0.9118320903384074  0.9104707226426002  1.0000
  O   O24       1.0  0.2010560299414621  0.5881555613204839  0.08953117439695292  1.0000
  O   O25       1.0  0.533736768597656  0.26746278514876565  0.9496687533220367  1.0000
  O   O26       1.0  0.03372123214797539  0.2325194175373824  0.05034566027801901  1.0000
  O   O27       1.0  0.4662434432129813  0.7325796059937204  0.050317911127663706  1.0000
  O   O28       1.0  0.9662625009881936  0.7674626410754614  0.9496510945781654  1.0000
