data_image0
_chemical_formula_structural       Si4Hg2H40C28I4N4
_chemical_formula_sum              "Si4 Hg2 H40 C28 I4 N4"
_cell_length_a       8.29363618894314
_cell_length_b       8.293618599936798
_cell_length_c       16.01308992944329
_cell_angle_alpha    93.93163579982314
_cell_angle_beta     93.93243978656
_cell_angle_gamma    109.50277386755434

_space_group_name_H-M_alt    "P 1"
_space_group_IT_number       1

loop_
  _space_group_symop_operation_xyz
  'x, y, z'

loop_
  _atom_site_type_symbol
  _atom_site_label
  _atom_site_symmetry_multiplicity
  _atom_site_fract_x
  _atom_site_fract_y
  _atom_site_fract_z
  _atom_site_occupancy
  Si  Si1       1.0  0.5496902336184917  0.6269694195169676  0.4671843878786318  1.0000
  Si  Si2       1.0  0.3730287414322078  0.4503106439093756  0.032815439135696095  1.0000
  Si  Si3       1.0  0.4503124515361564  0.3730331925697001  0.5328150238509152  1.0000
  Si  Si4       1.0  0.6269683025148041  0.5496932401937187  0.9671862968404382  1.0000
  Hg  Hg1       1.0  0.8035332107669007  0.19646317726030557  0.7499988423051176  1.0000
  Hg  Hg2       1.0  0.19646498181234767  0.8035369085861604  0.2499996654123322  1.0000
  H   H1        1.0  0.12938404398322229  0.07908572548861768  0.6836411929329385  1.0000
  H   H2        1.0  0.920910064759326  0.8706100320536194  0.8163574659895401  1.0000
  H   H3        1.0  0.8706180775905495  0.9209117518504611  0.31635736737160153  1.0000
  H   H4        1.0  0.07908544978599252  0.12939269844720508  0.1836391667253778  1.0000
  H   H5        1.0  0.6088667275828001  0.8970204357421423  0.6089379420864842  1.0000
  H   H6        1.0  0.10296776518023877  0.3911366127126071  0.8910582987935596  1.0000
  H   H7        1.0  0.39113713667265426  0.10297840856934928  0.39105699470189137  1.0000
  H   H8        1.0  0.8970283695714727  0.6088750412172246  0.10894246121333848  1.0000
  H   H9        1.0  0.18453517795666136  0.8747750972591036  0.5772504317101761  1.0000
  H   H10       1.0  0.1252272519052298  0.8154714826311887  0.9227519068996058  1.0000
  H   H11       1.0  0.8154686839117319  0.1252171194968952  0.4227517357745895  1.0000
  H   H12       1.0  0.8747704317940831  0.1845376124231208  0.0772475637953391  1.0000
  H   H13       1.0  0.9390373913270551  0.6768716950879464  0.4795973289650774  1.0000
  H   H14       1.0  0.32312846869870526  0.06097152182405809  0.020402887824502593  1.0000
  H   H15       1.0  0.06096294378674827  0.32311401428252384  0.5204081863437864  1.0000
  H   H16       1.0  0.6768702569928494  0.9390336682885516  0.9795977180004484  1.0000
  H   H17       1.0  0.3518459067036802  0.7547769516676724  0.534236723795395  1.0000
  H   H18       1.0  0.2452212785131708  0.648154097563186  0.9657599891357049  1.0000
  H   H19       1.0  0.6481502038156536  0.24522058878817893  0.4657609751265069  1.0000
  H   H20       1.0  0.7547804993707461  0.3518459290762053  0.0342399080890559  1.0000
  H   H21       1.0  0.43523416269939463  0.8656096141164793  0.446558240052738  1.0000
  H   H22       1.0  0.13438793934276563  0.5647672392767973  0.053437796383093386  1.0000
  H   H23       1.0  0.5647624243067356  0.1343892419240973  0.5534382811096987  1.0000
  H   H24       1.0  0.8656091503071011  0.43523669054847147  0.9465620695693174  1.0000
  H   H25       1.0  0.2680203767666498  0.6620305855592219  0.4299515179147518  1.0000
  H   H26       1.0  0.337965002691064  0.7319830187390864  0.07004402784575349  1.0000
  H   H27       1.0  0.7319800216713475  0.33796181232964523  0.5700442733327689  1.0000
  H   H28       1.0  0.6620337077662126  0.26802215613279395  0.9299572013204338  1.0000
  H   H29       1.0  0.7058217618625164  0.5319038645824535  0.3552483718431317  1.0000
  H   H30       1.0  0.4680896052917376  0.2941718957038688  0.1447475261035436  1.0000
  H   H31       1.0  0.2941830510549082  0.4681013386170179  0.6447499786582325  1.0000
  H   H32       1.0  0.5318973111084163  0.705816651182907  0.855251322339619  1.0000
  H   H33       1.0  0.48320271371611073  0.4781520831508743  0.3241917937799953  1.0000
  H   H34       1.0  0.5218462014939007  0.5167904755164088  0.1758074080719112  1.0000
  H   H35       1.0  0.5168028736751182  0.5218518406108287  0.6758059120653996  1.0000
  H   H36       1.0  0.4781479878439542  0.48320178735981045  0.8241956252291158  1.0000
  H   H37       1.0  0.6225706575059676  0.6923598128523663  0.32207518433496307  1.0000
  H   H38       1.0  0.3076378025139875  0.3774226814684027  0.17792434816644226  1.0000
  H   H39       1.0  0.37743245843262935  0.3076440690968595  0.6779249196588422  1.0000
  H   H40       1.0  0.6923557342243427  0.6225709827713712  0.8220743430606346  1.0000
  C   C1        1.0  0.024819936990425662  0.9902420017148258  0.6407379009066999  1.0000
  C   C2        1.0  0.009756943462136358  0.9751828664297761  0.8592631439913274  1.0000
  C   C3        1.0  0.9751794303779918  0.009758044074978  0.35926190110150447  1.0000
  C   C4        1.0  0.9902484025675946  0.024827441035831992  0.14073730461753797  1.0000
  C   C5        1.0  0.7499368638151651  0.7704562354050707  0.5341303698004864  1.0000
  C   C6        1.0  0.2295354243792644  0.2500681906629438  0.9658689277662373  1.0000
  C   C7        1.0  0.2500689930190632  0.22953470757868633  0.465870577295341  1.0000
  C   C8        1.0  0.7704586130782475  0.7499409026355365  0.03413164678636348  1.0000
  C   C9        1.0  0.7339943536829879  0.8879707775910716  0.5974332029785783  1.0000
  C   C10       1.0  0.11202951712466812  0.26601324445869773  0.9025666770163738  1.0000
  C   C11       1.0  0.266005938115029  0.1120215136127314  0.4025669516576257  1.0000
  C   C12       1.0  0.8879728071812777  0.7340022569615741  0.09743323351018769  1.0000
  C   C13       1.0  0.0543802989281374  0.8758866791277028  0.5809566553260195  1.0000
  C   C14       1.0  0.12411129715769682  0.94562455294718  0.919038712397551  1.0000
  C   C15       1.0  0.9456252751533684  0.12410687411926351  0.41904313532506876  1.0000
  C   C16       1.0  0.8758874894709977  0.05438069812832678  0.08095940006243298  1.0000
  C   C17       1.0  0.9165327545867967  0.7658270692757155  0.5271776893388278  1.0000
  C   C18       1.0  0.23417874408787753  0.08347525220906957  0.9728235389665085  1.0000
  C   C19       1.0  0.08347124007853783  0.23416901236532078  0.47282463730669366  1.0000
  C   C20       1.0  0.7658245155703157  0.916536237584438  0.0271818700787421  1.0000
  C   C21       1.0  0.38576449857128386  0.7382928844844017  0.4698423883756816  1.0000
  C   C22       1.0  0.2617050739417692  0.6142356074856109  0.030154521341607694  1.0000
  C   C23       1.0  0.6142344837160466  0.2617059371650328  0.5301548513445481  1.0000
  C   C24       1.0  0.7382939649710778  0.3857670028452347  0.9698459942455954  1.0000
  C   C25       1.0  0.5965992922233951  0.578603365647197  0.3573261051637572  1.0000
  C   C26       1.0  0.42139254561035955  0.40339629201064753  0.1426731447995309  1.0000
  C   C27       1.0  0.4034038389494866  0.4214005315427513  0.6426733754888048  1.0000
  C   C28       1.0  0.5786013914433425  0.5965986116102256  0.857327485374277  1.0000
  I   I1        1.0  0.9871530793206628  0.5301079623245781  0.7319278922218401  1.0000
  I   I2        1.0  0.46989280290802776  0.012850092776353995  0.7680746855092977  1.0000
  I   I3        1.0  0.01285713536746867  0.4698919972883571  0.26807233826086463  1.0000
  I   I4        1.0  0.5301044667036977  0.9871304095525913  0.23193362320544958  1.0000
  N   N1        1.0  0.8665628108227139  0.9955200562248336  0.6487824765910515  1.0000
  N   N2        1.0  0.004477490001122  0.13343691244571687  0.8512151981183533  1.0000
  N   N3        1.0  0.13343855151154577  0.0044787157927288  0.3512161050282145  1.0000
  N   N4        1.0  0.9955199433386072  0.8665644680792325  0.14878333091382953  1.0000
