data_image0
_chemical_formula_structural       Al2H10C21S2Cl2O10
_chemical_formula_sum              "Al2 H10 C21 S2 Cl2 O10"
_cell_length_a       6.638364159940314
_cell_length_b       11.140965482244601
_cell_length_c       12.854649605545545
_cell_angle_alpha    79.82765588704932
_cell_angle_beta     73.04776542232395
_cell_angle_gamma    72.35873591705389

_space_group_name_H-M_alt    "P 1"
_space_group_IT_number       1

loop_
  _space_group_symop_operation_xyz
  'x, y, z'

loop_
  _atom_site_type_symbol
  _atom_site_label
  _atom_site_symmetry_multiplicity
  _atom_site_fract_x
  _atom_site_fract_y
  _atom_site_fract_z
  _atom_site_occupancy
  Al  Al1       1.0  0.4831176790051331  0.501428312731356  0.5010970299932822  1.0000
  Al  Al2       1.0  0.9798138530227191  0.5068872275252261  0.5010929172888796  1.0000
  H   H1        1.0  0.26734621280787946  0.35068290903107163  0.5628965751761896  1.0000
  H   H2        1.0  0.7724117198262376  0.5719278671460017  0.3666752257559553  1.0000
  H   H3        1.0  0.6601087468446778  0.6026119113976947  0.12992615203066296  1.0000
  H   H4        1.0  0.2546259172830432  0.25077281075371616  0.369693041220522  1.0000
  H   H5        1.0  0.4993199544797876  0.7816462531108924  0.3808174691973178  1.0000
  H   H6        1.0  0.7354006184559336  0.8756663521089577  0.5646549677119455  1.0000
  H   H7        1.0  0.613957353637538  0.1111987909143863  0.564207657973178  1.0000
  H   H8        1.0  0.27124274209838717  0.39738679308716496  0.7837525453848713  1.0000
  H   H9        1.0  0.06975743303230784  0.4616962654701311  0.8986158232767708  1.0000
  H   H10       1.0  0.2595043407243196  0.31472499801930093  0.9178313580507408  1.0000
  C   C1        1.0  0.8467172239323517  0.27546920740860514  0.49504007712667425  1.0000
  C   C2        1.0  0.623765718660671  0.5138823661048659  0.6944669580182747  1.0000
  C   C3        1.0  0.13197851582560097  0.7296408938314017  0.4963813777591213  1.0000
  C   C4        1.0  0.3334005673541541  0.508937480053774  0.3023549434157502  1.0000
  C   C5        1.0  0.3886960779541937  0.4749111716522947  0.8897147284785804  1.0000
  C   C6        1.0  0.5489351825071153  0.5637593626176454  0.10704836269229656  1.0000
  C   C7        1.0  0.5509813479641038  0.5214953849712886  0.8129658779824214  1.0000
  C   C8        1.0  0.3886465503904047  0.5162261610443935  0.1828972478483096  1.0000
  C   C9        1.0  0.5457431884413921  0.5533921717361563  0.9995470120723129  1.0000
  C   C10       1.0  0.38699695869525663  0.4952384217306827  0.9958229026627167  1.0000
  C   C11       1.0  0.931216276588472  0.1366164825222071  0.48430576281489834  1.0000
  C   C12       1.0  0.15408975523160956  0.07770597350703667  0.4324295097396487  1.0000
  C   C13       1.0  0.7841559746919485  0.06408238496783979  0.5284796598471218  1.0000
  C   C14       1.0  0.3049185227919438  0.1480835332845487  0.3735705479820126  1.0000
  C   C15       1.0  0.5144296074195508  0.089171120955406  0.3181877014073393  1.0000
  C   C16       1.0  0.06911844773344455  0.8706986251720963  0.48669309929901067  1.0000
  C   C17       1.0  0.8521275485440398  0.9318826021778223  0.529280813512024  1.0000
  C   C18       1.0  0.2245436233035178  0.9419617769507911  0.4344586468436233  1.0000
  C   C19       1.0  0.4420737422070007  0.8840489142986527  0.3784964948500047  1.0000
  C   C20       1.0  0.5839902132714699  0.9549661766720091  0.32065389477105555  1.0000
  C   C21       1.0  0.24129365764846966  0.4080287089593781  0.8702233396946255  1.0000
  S   S1        1.0  0.6954360270086111  0.5887787144238672  0.8697126504847008  1.0000
  S   S2        1.0  0.23431071573403983  0.45910726520500583  0.12448187584740825  1.0000
  Cl  Cl1       1.0  0.6889272449826149  0.1792689334879967  0.24515747690125522  1.0000
  Cl  Cl2       1.0  0.8433636242460023  0.8795894068362172  0.25009897266041753  1.0000
  O   O1        1.0  0.6521714352948393  0.3278963652019016  0.485958374637761  1.0000
  O   O2        1.0  0.8091264646179395  0.5351281107289266  0.6459038542763411  1.0000
  O   O3        1.0  0.9974555480837423  0.6770969426013665  0.48254863886783284  1.0000
  O   O4        1.0  0.4674955975779084  0.5263006488270534  0.3481924750765231  1.0000
  O   O5        1.0  0.3140464271315364  0.6716976126644099  0.5183425417926415  1.0000
  O   O6        1.0  0.1494878964658283  0.4852955183050725  0.3514428911607794  1.0000
  O   O7        1.0  0.9707559530707  0.3309175264118309  0.5161019675713235  1.0000
  O   O8        1.0  0.5019665525710619  0.4850473651185112  0.6479395699784263  1.0000
  O   O9        1.0  0.23447616157285003  0.442205736528315  0.5493537565517813  1.0000
  O   O10       1.0  0.7340917104503074  0.5585666304498034  0.4459012806123469  1.0000
