data_image0
_chemical_formula_structural       Mn2H38C50N4O8
_chemical_formula_sum              "Mn2 H38 C50 N4 O8"
_cell_length_a       9.936700844207852
_cell_length_b       10.815924651030253
_cell_length_c       11.231696519059776
_cell_angle_alpha    112.24073385596797
_cell_angle_beta     102.99935245047101
_cell_angle_gamma    101.29361070175894

_space_group_name_H-M_alt    "P 1"
_space_group_IT_number       1

loop_
  _space_group_symop_operation_xyz
  'x, y, z'

loop_
  _atom_site_type_symbol
  _atom_site_label
  _atom_site_symmetry_multiplicity
  _atom_site_fract_x
  _atom_site_fract_y
  _atom_site_fract_z
  _atom_site_occupancy
  Mn  Mn1       1.0  0.9559602088140834  0.08808014830527358  0.6034862238952315  1.0000
  Mn  Mn2       1.0  0.04403717560163056  0.9119122725408105  0.39651019213398814  1.0000
  H   H1        1.0  0.78875056567135  0.0039081337049538  0.06638778729389834  1.0000
  H   H2        1.0  0.21124583739197075  0.99609063107318  0.9336107146479976  1.0000
  H   H3        1.0  0.3229228917453781  0.010794720986041296  0.162043775818951  1.0000
  H   H4        1.0  0.6770762535500481  0.9892029792444248  0.8379584509410237  1.0000
  H   H5        1.0  0.5426878519767583  0.0369739750613505  0.3406121773069302  1.0000
  H   H6        1.0  0.4573105899826757  0.9630216169955615  0.6593882608616968  1.0000
  H   H7        1.0  0.3821986892512967  0.20942709412955193  0.39636157375959874  1.0000
  H   H8        1.0  0.6177963443892267  0.7905706677847774  0.6036416368614469  1.0000
  H   H9        1.0  0.44742205978589317  0.7048058186384196  0.7097739749871936  1.0000
  H   H10       1.0  0.5525595830391338  0.29519204529295007  0.2902177014060571  1.0000
  H   H11       1.0  0.284698326332574  0.5057225573156003  0.7200106740523752  1.0000
  H   H12       1.0  0.7152905245872034  0.4942752434215123  0.2799859768459428  1.0000
  H   H13       1.0  0.7424619599388792  0.28548432414979175  0.6222310843752581  1.0000
  H   H14       1.0  0.25753785652280925  0.7145122886719336  0.3777673236190042  1.0000
  H   H15       1.0  0.02787494551582631  0.11231740804355182  0.9130834253641424  1.0000
  H   H16       1.0  0.9721324925081019  0.887689660094047  0.08691937038607742  1.0000
  H   H17       1.0  0.8315133562925398  0.5036433903341121  0.13235502315225744  1.0000
  H   H18       1.0  0.16848923626392318  0.4963584416985114  0.8676422533455438  1.0000
  H   H19       1.0  0.1269076964368665  0.11362182440123551  0.12343057204486031  1.0000
  H   H20       1.0  0.8730959367319925  0.8863800369629256  0.8765731547496144  1.0000
  H   H21       1.0  0.03733847480837941  0.16350343425050076  0.24540467058975682  1.0000
  H   H22       1.0  0.9626593298474545  0.836499528973725  0.7545947300300568  1.0000
  H   H23       1.0  0.19500720456571938  0.2842870664343096  0.2613482133928215  1.0000
  H   H24       1.0  0.8049943727756882  0.7157148257717837  0.7386560053321958  1.0000
  H   H25       1.0  0.9562580067613667  0.5285119697658158  0.3506143953265948  1.0000
  H   H26       1.0  0.04374013855695579  0.47149200875968217  0.6493800961618774  1.0000
  H   H27       1.0  0.10374682155971729  0.4593668968469586  0.36824503733991076  1.0000
  H   H28       1.0  0.896253740566401  0.5406381377418868  0.6317547671057895  1.0000
  H   H29       1.0  0.9306974889589199  0.3601177555365069  0.3491408672746915  1.0000
  H   H30       1.0  0.06930133599144747  0.639885165415251  0.6508542696226913  1.0000
  H   H31       1.0  0.6404691044820437  0.46101734640226516  0.739311663199466  1.0000
  H   H32       1.0  0.35953381349873587  0.5389823650193434  0.26068402515919337  1.0000
  H   H33       1.0  0.783775246538937  0.5862084434689618  0.8900071910723995  1.0000
  H   H34       1.0  0.2162311051578598  0.4137922698095266  0.10998776085119744  1.0000
  H   H35       1.0  0.6939310868878364  0.7148474809912742  0.051271272553364625  1.0000
  H   H36       1.0  0.3060766325388116  0.2851511469747336  0.9487294343626829  1.0000
  H   H37       1.0  0.4784306642485063  0.26833510972790003  0.8194977218402643  1.0000
  H   H38       1.0  0.5215815210407797  0.7316645195915256  0.18050423476277183  1.0000
  C   C1        1.0  0.8084487362251525  0.036432651604620496  0.3196847417514094  1.0000
  C   C2        1.0  0.1915500531693866  0.9635639796215686  0.6803143586255731  1.0000
  C   C3        1.0  0.6785900923484292  0.02236819303765  0.2127235378236847  1.0000
  C   C4        1.0  0.32140699204008166  0.9776295201337458  0.7872765023620473  1.0000
  C   C5        1.0  0.687123894878411  0.007170902522062801  0.08693549718014276  1.0000
  C   C6        1.0  0.31287389115293257  0.9928289128558775  0.9130654387620113  1.0000
  C   C7        1.0  0.5668936055570484  0.998942341284149  0.9859214958606729  1.0000
  C   C8        1.0  0.43310245007116077  0.0010553843247080974  0.014078343872867534  1.0000
  C   C9        1.0  0.4258236832240527  0.012242875851555403  0.1425759070922084  1.0000
  C   C10       1.0  0.5741744316179124  0.9877548308493688  0.8574252263806488  1.0000
  C   C11       1.0  0.5464907513979397  0.02540413369916189  0.2407696258377214  1.0000
  C   C12       1.0  0.45350698891866165  0.9745893561512062  0.7592299165744836  1.0000
  C   C13       1.0  0.2130360515570047  0.22549693038552476  0.5511469237397364  1.0000
  C   C14       1.0  0.7869562787937526  0.7745051155267716  0.44886174075999463  1.0000
  C   C15       1.0  0.32194108178917696  0.34567879109921046  0.5556166546436359  1.0000
  C   C16       1.0  0.678050540146124  0.6543211287385303  0.4443875427599693  1.0000
  C   C17       1.0  0.3983641841788598  0.3183390464483509  0.46441547045655807  1.0000
  C   C18       1.0  0.6016281072295512  0.6816597800136391  0.5355840153464086  1.0000
  C   C19       1.0  0.49198146714651614  0.42875133348700717  0.4555207764033186  1.0000
  C   C20       1.0  0.5080070380313018  0.5712454340478318  0.5444781051215699  1.0000
  C   C21       1.0  0.43236946674153404  0.5964908489386219  0.6404968339960605  1.0000
  C   C22       1.0  0.5676187113188149  0.4035080332402359  0.35950274283304406  1.0000
  C   C23       1.0  0.34189721133334666  0.48648869831764324  0.6461882959731682  1.0000
  C   C24       1.0  0.6580995493239997  0.5135111414317635  0.3538142251866462  1.0000
  C   C25       1.0  0.7873214216506527  0.2882292881652546  0.7211206731723794  1.0000
  C   C26       1.0  0.21267944558213978  0.7117704719992872  0.2788781856215864  1.0000
  C   C27       1.0  0.8434650840873699  0.3531185961553688  0.9434148469809855  1.0000
  C   C28       1.0  0.15654065739630604  0.6468895837624374  0.056593352752607115  1.0000
  C   C29       1.0  0.9019347020426238  0.24569649129854557  0.882715852508703  1.0000
  C   C30       1.0  0.09806789390015082  0.7543053526680839  0.11728320965895034  1.0000
  C   C31       1.0  0.9819289495301929  0.1939886783056508  0.960915280888365  1.0000
  C   C32       1.0  0.018076056447760933  0.8060141978563138  0.03908552289681927  1.0000
  C   C33       1.0  0.005446620794572305  0.2523748124718139  0.10064912920547192  1.0000
  C   C34       1.0  0.994558386876541  0.7476280696571534  0.8993525674146313  1.0000
  C   C35       1.0  0.9516587660162867  0.36524886904091136  0.16294345929112103  1.0000
  C   C36       1.0  0.04834694329765914  0.6347561152946072  0.8370591330854112  1.0000
  C   C37       1.0  0.8698699339637983  0.41574860072420705  0.08406429301126657  1.0000
  C   C38       1.0  0.13013779900787634  0.584253157187085  0.9159322000776627  1.0000
  C   C39       1.0  0.09497681393405341  0.2006669987542864  0.18659234883941883  1.0000
  C   C40       1.0  0.9050254345736162  0.799333806043066  0.8134080511198719  1.0000
  C   C41       1.0  0.9869014441301829  0.43219733196703186  0.3152333515670662  1.0000
  C   C42       1.0  0.013100819615665695  0.5678066087426004  0.6847637274000391  1.0000
  C   C43       1.0  0.6989321501954463  0.48419679285130696  0.8447587822981222  1.0000
  C   C44       1.0  0.30107420319451  0.5158039263941776  0.15523706246040098  1.0000
  C   C45       1.0  0.5965326997934  0.4907681461564053  0.9256976887624405  1.0000
  C   C46       1.0  0.40347401119058907  0.5092336480603593  0.07430217521400108  1.0000
  C   C47       1.0  0.6080765737616717  0.6205820691463302  0.027819094353802153  1.0000
  C   C48       1.0  0.39193289807892023  0.37942180836904527  0.9721829591183708  1.0000
  C   C49       1.0  0.4881751874405112  0.37014912901558017  0.8985880248712307  1.0000
  C   C50       1.0  0.5118376977984554  0.6298525965433939  0.10141393465330141  1.0000
  N   N1        1.0  0.8666517130859219  0.20884085378377648  0.7441005620050092  1.0000
  N   N2        1.0  0.1333508608460576  0.7911578304025609  0.25589824981513243  1.0000
  N   N3        1.0  0.7692581789466643  0.37600087448841174  0.8364543697944101  1.0000
  N   N4        1.0  0.23074371196696566  0.6239988553376604  0.1635420109469763  1.0000
  O   O1        1.0  0.8232312723898404  0.11217249377265404  0.4432762779367109  1.0000
  O   O2        1.0  0.17678093152392907  0.8878302833930577  0.556724143343985  1.0000
  O   O3        1.0  0.8967769001449568  0.9716042219750065  0.2804618044932283  1.0000
  O   O4        1.0  0.10321253389789578  0.0283798522322201  0.7195300262493234  1.0000
  O   O5        1.0  0.13377732448952884  0.251973094273808  0.6267560782642863  1.0000
  O   O6        1.0  0.8662242342276015  0.7480225678767309  0.37326103228959073  1.0000
  O   O7        1.0  0.20428376429642006  0.1025634453798148  0.4678690417545043  1.0000
  O   O8        1.0  0.79569897501446  0.8974438914219505  0.5321244789683989  1.0000
