data_image0
_chemical_formula_structural       Na4Cd2H30C14N14O20
_chemical_formula_sum              "Na4 Cd2 H30 C14 N14 O20"
_cell_length_a       6.886902693440179
_cell_length_b       10.647958623748371
_cell_length_c       13.196992702035304
_cell_angle_alpha    113.7910403244973
_cell_angle_beta     104.62857883741808
_cell_angle_gamma    90.00923896032742

_space_group_name_H-M_alt    "P 1"
_space_group_IT_number       1

loop_
  _space_group_symop_operation_xyz
  'x, y, z'

loop_
  _atom_site_type_symbol
  _atom_site_label
  _atom_site_symmetry_multiplicity
  _atom_site_fract_x
  _atom_site_fract_y
  _atom_site_fract_z
  _atom_site_occupancy
  Na  Na1       1.0  0.3854955623531708  0.3331516050374716  0.418505764225138  1.0000
  Na  Na2       1.0  0.11447400161912205  0.914588849301637  0.5814707522485493  1.0000
  Na  Na3       1.0  0.6145222452402095  0.6668437204685275  0.5814992802891439  1.0000
  Na  Na4       1.0  0.8855368489662753  0.0854095695738621  0.4185275538889783  1.0000
  Cd  Cd1       1.0  0.2499523576749992  0.925880172682106  0.9999886782005235  1.0000
  Cd  Cd2       1.0  0.7500082753980949  0.07411416777807027  8.964015521289288e-07  1.0000
  H   H1        1.0  0.9687303449725067  0.20461368334836288  0.27556510544560103  1.0000
  H   H2        1.0  0.5313096876472089  0.9290334977743908  0.7243734574776398  1.0000
  H   H3        1.0  0.031277941966585746  0.7953961113266244  0.7244388223886064  1.0000
  H   H4        1.0  0.46868830376821086  0.07095974201840247  0.2756093423460797  1.0000
  H   H5        1.0  0.11342111985747752  0.08897021835085178  0.27189237415480966  1.0000
  H   H6        1.0  0.3865961669114668  0.8171048296894765  0.7281129893696986  1.0000
  H   H7        1.0  0.886577106854361  0.911033385407478  0.7281074563153923  1.0000
  H   H8        1.0  0.6134065643295585  0.1828987656475221  0.2718859195185744  1.0000
  H   H9        1.0  0.5377323608022807  0.2701197260986205  0.6392446468620322  1.0000
  H   H10       1.0  0.9621568876018642  0.6308421803725818  0.36083015572496174  1.0000
  H   H11       1.0  0.4622503086837995  0.7298808181230141  0.36076273957643684  1.0000
  H   H12       1.0  0.037839376355336185  0.36915007751954926  0.6391748294577511  1.0000
  H   H13       1.0  0.36723375983987694  0.36978628802583546  0.6411249359133748  1.0000
  H   H14       1.0  0.13259786290388578  0.7286078168952344  0.35882585121204613  1.0000
  H   H15       1.0  0.6327521004787969  0.6302152727973862  0.3588771407478504  1.0000
  H   H16       1.0  0.8673988553198697  0.27137822656935373  0.6411711174336717  1.0000
  H   H17       1.0  0.7663561061308073  0.44985205725606636  0.4200395871680058  1.0000
  H   H18       1.0  0.7335372522114981  0.0299427269585522  0.580036098323248  1.0000
  H   H19       1.0  0.2336498766370525  0.550144313474199  0.5799634721967026  1.0000
  H   H20       1.0  0.26645461807179055  0.9700588187751078  0.4199629807469165  1.0000
  H   H21       1.0  0.7947319846058319  0.39658623864324477  0.5203995565910517  1.0000
  H   H22       1.0  0.7052941865344593  0.876333554430516  0.47966057831600045  1.0000
  H   H23       1.0  0.20529430225538192  0.6034059702773504  0.4796025696545102  1.0000
  H   H24       1.0  0.2947051772771303  0.12366799105731727  0.5203432819812264  1.0000
  H   H25       1.0  0.2321340937789529  0.37012959457580746  0.8193616605504701  1.0000
  H   H26       1.0  0.26771430922045164  0.5506334973364488  0.18039490404013495  1.0000
  H   H27       1.0  0.767906317031688  0.6298749980295425  0.18064559350508352  1.0000
  H   H28       1.0  0.7323337818099916  0.44937211834205476  0.8196129412289539  1.0000
  H   H29       1.0  0.2500763136765372  0.34266788184971375  0.9998933276888095  1.0000
  H   H30       1.0  0.7500403493522401  0.6573438616016245  0.0001278601609015602  1.0000
  C   C1        1.0  0.2351234945487022  0.6176159227141227  0.7955599214078576  1.0000
  C   C2        1.0  0.26480842502478197  0.8218183859322962  0.2042713805214404  1.0000
  C   C3        1.0  0.7648363260168196  0.3823825706427327  0.20443922718556004  1.0000
  C   C4        1.0  0.7351665726537107  0.17818112694234856  0.7957316243853113  1.0000
  C   C5        1.0  0.24187531855742614  0.5932993027146336  0.902193927205552  1.0000
  C   C6        1.0  0.2578861574663946  0.690963010752938  0.09755167307251614  1.0000
  C   C7        1.0  0.758093859212842  0.40670124525902185  0.09780636915146354  1.0000
  C   C8        1.0  0.7420967037585201  0.30903855182337736  0.9024492491615136  1.0000
  C   C9        1.0  0.24002739850582344  0.4603280545513471  0.8988326374796856  1.0000
  C   C10       1.0  0.25978052835788645  0.5613512296847315  0.10091502106298832  1.0000
  C   C11       1.0  0.7599901499247179  0.5396745004273454  0.10117244323988926  1.0000
  C   C12       1.0  0.7402465538742434  0.4386544131583461  0.8990915657884743  1.0000
  C   C13       1.0  0.2500106772769399  0.4449318220056782  0.9998914133392918  1.0000
  C   C14       1.0  0.7500422647466181  0.5550758583657183  0.00011925933896610977  1.0000
  N   N1        1.0  0.2498792219644415  0.70486190872829  0.9998841245903379  1.0000
  N   N2        1.0  0.7500794547715514  0.29513864951812235  0.00011402643059442774  1.0000
  N   N3        1.0  0.10921832753785311  0.1321652587583557  0.07942846338402632  1.0000
  N   N4        1.0  0.39084301872212995  0.052787722644936294  0.9206113168280581  1.0000
  N   N5        1.0  0.8907794920158167  0.867844513094063  0.9205581578413914  1.0000
  N   N6        1.0  0.609117183950829  0.9471952388045467  0.07936920745923712  1.0000
  N   N7        1.0  0.1996920951670802  0.24176669390292455  0.14899682367552464  1.0000
  N   N8        1.0  0.3004224471132205  0.09273704184843007  0.8509797561718956  1.0000
  N   N9        1.0  0.8003057951754826  0.7582348268125826  0.8509947094217624  1.0000
  N   N10       1.0  0.6995634552665068  0.9072644776056363  0.14900336889844829  1.0000
  N   N11       1.0  0.2865891575855031  0.34881762246827447  0.21779119714994274  1.0000
  N   N12       1.0  0.21355321915326894  0.13091293001442486  0.7821294558385858  1.0000
  N   N13       1.0  0.7134103895526991  0.6511849496480763  0.7822099892610269  1.0000
  N   N14       1.0  0.7864728469290512  0.8691040405907553  0.21786172510955037  1.0000
  O   O1        1.0  0.2441818642176585  0.7416308961558682  0.8057489241508409  1.0000
  O   O2        1.0  0.2558167120863216  0.9357263486568711  0.19423498720523477  1.0000
  O   O3        1.0  0.755774780657248  0.25836656570650257  0.19424871164710572  1.0000
  O   O4        1.0  0.7441509568836298  0.0642742092945525  0.8057689012881752  1.0000
  O   O5        1.0  0.2194480106118561  0.5122526469720369  0.7018269560272898  1.0000
  O   O6        1.0  0.2805949790582076  0.8100133544670383  0.2979518594715458  1.0000
  O   O7        1.0  0.7805119899153964  0.4877468763228662  0.2981710348071402  1.0000
  O   O8        1.0  0.7193808143034418  0.1899820220585866  0.7020491520802212  1.0000
  O   O9        1.0  0.07107161210529969  0.17302786520281185  0.32458387312653514  1.0000
  O   O10       1.0  0.4291026721910783  0.8483405201976382  0.6753797619877632  1.0000
  O   O11       1.0  0.9289411844103057  0.8269819160865453  0.6754168589348312  1.0000
  O   O12       1.0  0.5708964479118848  0.15165066959848866  0.3246108579811562  1.0000
  O   O13       1.0  0.42390050739783197  0.293293502212272  0.5893489794743729  1.0000
  O   O14       1.0  0.07587698565958324  0.7040276750254718  0.4106580008306865  1.0000
  O   O15       1.0  0.5760902039139567  0.7067101233038497  0.41065592459602135  1.0000
  O   O16       1.0  0.9241366709105352  0.29595215512550505  0.5893422280412111  1.0000
  O   O17       1.0  0.7198881270064633  0.45638063451247035  0.4866955031443041  1.0000
  O   O18       1.0  0.7801732483357355  0.9698493589858685  0.5134517000668738  1.0000
  O   O19       1.0  0.2801343533007454  0.5436157240936054  0.5133127684744991  1.0000
  O   O20       1.0  0.2198302634464611  0.030150114895000996  0.4865520380391218  1.0000
