data_image0
_chemical_formula_structural       Ni2H12C4N4O8
_chemical_formula_sum              "Ni2 H12 C4 N4 O8"
_cell_length_a       6.752972891071706
_cell_length_b       7.412702900099179
_cell_length_c       7.578165017486921
_cell_angle_alpha    71.32479195623478
_cell_angle_beta     63.5008562337714
_cell_angle_gamma    62.85931598966329

_space_group_name_H-M_alt    "P 1"
_space_group_IT_number       1

loop_
  _space_group_symop_operation_xyz
  'x, y, z'

loop_
  _atom_site_type_symbol
  _atom_site_label
  _atom_site_symmetry_multiplicity
  _atom_site_fract_x
  _atom_site_fract_y
  _atom_site_fract_z
  _atom_site_occupancy
  Ni  Ni1       1.0  0.7548420843002436  0.24993592530893244  0.7499758621249625  1.0000
  Ni  Ni2       1.0  0.2451424178787321  0.7500515246375272  0.25003438676042583  1.0000
  H   H1        1.0  0.43409798399995503  0.6051463412470995  0.8055961408449265  1.0000
  H   H2        1.0  0.8449615824978952  0.894865765299798  0.6941638081992849  1.0000
  H   H3        1.0  0.565849062635927  0.3949201325000189  0.1942672829075535  1.0000
  H   H4        1.0  0.1548908957779604  0.10507309388484026  0.30593417230993225  1.0000
  H   H5        1.0  0.3069022047060559  0.4438232037046888  0.949459225977179  1.0000
  H   H6        1.0  0.7001076356658801  0.0565279576981936  0.5505688749602412  1.0000
  H   H7        1.0  0.6930286846428189  0.5563339692607983  0.05044989366655272  1.0000
  H   H8        1.0  0.2998374785305416  0.9433510967045322  0.449534709500746  1.0000
  H   H9        1.0  0.3339016153445585  0.5067402078942607  0.7120946935747695  1.0000
  H   H10       1.0  0.5526614140177846  0.9935433343029703  0.7879336073556402  1.0000
  H   H11       1.0  0.6661755127716802  0.49322217561269355  0.2878138358982837  1.0000
  H   H12       1.0  0.4472830494826141  0.006490520200792101  0.212155784870717  1.0000
  C   C1        1.0  0.9992564355313076  0.5282701034374854  0.5901597866147908  1.0000
  C   C2        1.0  0.11791777013969851  0.9717302545954992  0.9098498266124864  1.0000
  C   C3        1.0  0.0008153095775257207  0.47166663741353443  0.4098344986470437  1.0000
  C   C4        1.0  0.8821141825940018  0.0283353716628554  0.09015853151291255  1.0000
  N   N1        1.0  0.42050712011726465  0.47207897355617223  0.8076897210986402  1.0000
  N   N2        1.0  0.7003213293859718  0.0280877969833853  0.6922549782145566  1.0000
  N   N3        1.0  0.5794240086154332  0.5280093696904942  0.19225424522092996  1.0000
  N   N4        1.0  0.29961952917634027  0.9718185876643943  0.3077934783036369  1.0000
  O   O1        1.0  0.8806285356506577  0.4636873231664894  0.7626789125517562  1.0000
  O   O2        1.0  0.10745349468967215  0.0361702512095192  0.7373327567647293  1.0000
  O   O3        1.0  0.11945687930352036  0.536313841218778  0.23732081233551836  1.0000
  O   O4        1.0  0.8926684763969915  0.963814104583044  0.26268131525710464  1.0000
  O   O5        1.0  0.11839612899071046  0.6377757311499436  0.5515547578382822  1.0000
  O   O6        1.0  0.3080758955157991  0.8622888041561725  0.9485288404543225  1.0000
  O   O7        1.0  0.8817209612197419  0.3621682553982168  0.44835719375427613  1.0000
  O   O8        1.0  0.6919312155038214  0.13777272215445893  0.051579281308257084  1.0000
