data_image0
_chemical_formula_structural       Cd6H84C72N24O30
_chemical_formula_sum              "Cd6 H84 C72 N24 O30"
_cell_length_a       12.042096362186273
_cell_length_b       16.137848691776618
_cell_length_c       16.138034653869575
_cell_angle_alpha    114.05434279486991
_cell_angle_beta     104.38953327236739
_cell_angle_gamma    104.38882917327139

_space_group_name_H-M_alt    "P 1"
_space_group_IT_number       1

loop_
  _space_group_symop_operation_xyz
  'x, y, z'

loop_
  _atom_site_type_symbol
  _atom_site_label
  _atom_site_symmetry_multiplicity
  _atom_site_fract_x
  _atom_site_fract_y
  _atom_site_fract_z
  _atom_site_occupancy
  Cd  Cd1       1.0  0.7500015627943952  0.25365968170890346  0.7463331129856884  1.0000
  Cd  Cd2       1.0  0.4964549215340882  0.4928652478621985  0.7463928223682786  1.0000
  Cd  Cd3       1.0  0.0035439697822852545  0.2536079389802382  0.5071371831564236  1.0000
  Cd  Cd4       1.0  0.24999664313471479  0.7463355397434485  0.253665571888142  1.0000
  Cd  Cd5       1.0  0.5035477153284944  0.5071388396963386  0.25361153589291524  1.0000
  Cd  Cd6       1.0  0.996458047408133  0.7463931930449591  0.4928652364921931  1.0000
  H   H1        1.0  0.7244333540103869  0.3961999865070638  0.6770571110856168  1.0000
  H   H2        1.0  0.3284254605453185  0.2810103684469994  0.6038191106621654  1.0000
  H   H3        1.0  0.047256786260405276  0.3229361492127938  0.7190456328298681  1.0000
  H   H4        1.0  0.45273849842961783  0.28095420512143937  0.6770628646590781  1.0000
  H   H5        1.0  0.7755657276674769  0.32293984713952995  0.6037974221544361  1.0000
  H   H6        1.0  0.17156845782672292  0.3961793873260292  0.7189894015535219  1.0000
  H   H7        1.0  0.5006271491008647  0.14332645169461952  0.5443413232778624  1.0000
  H   H8        1.0  0.48609990144971965  0.046758784417669105  0.3501153615108521  1.0000
  H   H9        1.0  0.6832321340055431  0.869283409755802  0.3505445844377278  1.0000
  H   H10       1.0  0.6576931220341323  0.8531192656764831  0.23162401739678995  1.0000
  H   H11       1.0  0.6476326058112107  0.018292519726472306  0.28413718410961053  1.0000
  H   H12       1.0  0.7903891143225366  0.029171835569698604  0.3610379283188578  1.0000
  H   H13       1.0  0.3576098647430399  0.401278969096886  0.8566335059270642  1.0000
  H   H14       1.0  0.439700880798263  0.30389250073690033  0.9533968266811359  1.0000
  H   H15       1.0  0.8144946514066193  0.4814745012679966  0.13104909899165315  1.0000
  H   H16       1.0  0.804689310309783  0.37836728482902515  0.14662348260577568  1.0000
  H   H17       1.0  0.6294839452812512  0.2662633776557258  0.9816321863507724  1.0000
  H   H18       1.0  0.7613845716392832  0.33221527041170873  0.9707110240356445  1.0000
  H   H19       1.0  0.9561941476575911  0.45579322513408743  0.5987552694260216  1.0000
  H   H20       1.0  0.13596587808676464  0.6498818348429936  0.6963355744105827  1.0000
  H   H21       1.0  0.3326820707886142  0.649330201774525  0.5187403555512162  1.0000
  H   H22       1.0  0.42613576483319093  0.76816768946113  0.6216316421197661  1.0000
  H   H23       1.0  0.3632420778560147  0.7155984741090651  0.7341110782869508  1.0000
  H   H24       1.0  0.4293311855446476  0.6387747818324883  0.6681730951963659  1.0000
  H   H25       1.0  0.5438128440280536  0.4012479598546577  0.5442120320746684  1.0000
  H   H26       1.0  0.3640431480472159  0.30367124591835903  0.35012239992111205  1.0000
  H   H27       1.0  0.1673195928741223  0.4812594413554765  0.3506658732714031  1.0000
  H   H28       1.0  0.07386480521751088  0.37836469902583064  0.23183096709271928  1.0000
  H   H29       1.0  0.13676001838084065  0.2658876491432168  0.28440580936675997  1.0000
  H   H30       1.0  0.07067357090093657  0.3318319550867201  0.36122981087329725  1.0000
  H   H31       1.0  0.9993700628227842  0.4556563131455038  0.856665670556808  1.0000
  H   H32       1.0  0.013901057380870595  0.649887415429021  0.9532492756613639  1.0000
  H   H33       1.0  0.816768931386271  0.6494563099299883  0.13071966179880695  1.0000
  H   H34       1.0  0.8423046351386885  0.7683759678777448  0.14688021823758382  1.0000
  H   H35       1.0  0.8523667556232724  0.7158623328383913  0.9817109821885172  1.0000
  H   H36       1.0  0.7096128146622149  0.6389636240981036  0.9708324471175163  1.0000
  H   H37       1.0  0.1423921387575504  0.1433638166678719  0.5987218482106655  1.0000
  H   H38       1.0  0.06029948488398421  0.046600973997648516  0.6961069687129324  1.0000
  H   H39       1.0  0.6855056494096986  0.8689482639006344  0.5185215097664368  1.0000
  H   H40       1.0  0.6953062590901455  0.8533749490103165  0.6216283980333801  1.0000
  H   H41       1.0  0.8705179452457231  0.0183642574501874  0.7337317291510175  1.0000
  H   H42       1.0  0.7386176593654737  0.0292897260562341  0.6677822077084841  1.0000
  H   H43       1.0  0.49936981911518075  0.8566628571641673  0.45564666785575286  1.0000
  H   H44       1.0  0.5139164541819172  0.9532452987488115  0.6498803876947079  1.0000
  H   H45       1.0  0.31677356409576163  0.13071993712223673  0.6494538438002807  1.0000
  H   H46       1.0  0.3423102418825438  0.1468811259049048  0.7683721540734183  1.0000
  H   H47       1.0  0.3523752953827996  0.9817100874222581  0.7158588731267204  1.0000
  H   H48       1.0  0.20961927485853257  0.9708300326416366  0.6389579184933325  1.0000
  H   H49       1.0  0.642380838419399  0.5987029524816736  0.1433527916889761  1.0000
  H   H50       1.0  0.5602963367826918  0.6960990258078257  0.04659707134560893  1.0000
  H   H51       1.0  0.1855038178926876  0.518528109125839  0.8689538839556123  1.0000
  H   H52       1.0  0.19531038566322675  0.6216360641266973  0.853379409237661  1.0000
  H   H53       1.0  0.37051978627334153  0.7337377542715873  0.018371171136252123  1.0000
  H   H54       1.0  0.23861683899448868  0.6677880781685207  0.02929156627981671  1.0000
  H   H55       1.0  0.04380173735069804  0.5442042129711808  0.40124264827624506  1.0000
  H   H56       1.0  0.8640295180446884  0.3501163430325108  0.3036662718149544  1.0000
  H   H57       1.0  0.6673128239436751  0.35066354322760424  0.48126083118540924  1.0000
  H   H58       1.0  0.5738596323363295  0.23183048744272133  0.378365866323449  1.0000
  H   H59       1.0  0.636754426082952  0.284401920223587  0.26589187644382417  1.0000
  H   H60       1.0  0.5706664259052445  0.3612278292349132  0.33183220740603764  1.0000
  H   H61       1.0  0.45618844744294046  0.5987568668984339  0.45579299721624994  1.0000
  H   H62       1.0  0.6359592382640785  0.6963306250646897  0.6498810089124449  1.0000
  H   H63       1.0  0.8326824253543779  0.5187416896980752  0.6493322085949061  1.0000
  H   H64       1.0  0.9261381886885189  0.6216349544305403  0.7681679332916859  1.0000
  H   H65       1.0  0.8632411417016428  0.7341134828615171  0.715595831521057  1.0000
  H   H66       1.0  0.9293266135040242  0.6681706545151871  0.6387710114964309  1.0000
  H   H67       1.0  0.0006249637429009318  0.544341126188563  0.14333704553335022  1.0000
  H   H68       1.0  0.986097279788446  0.35011150091048654  0.04675341729874564  1.0000
  H   H69       1.0  0.18323505071960974  0.3505470385728133  0.8692846451158546  1.0000
  H   H70       1.0  0.15769763260301775  0.23162738072294087  0.8531231508386768  1.0000
  H   H71       1.0  0.1476359999571955  0.2841402769637114  0.01829279614678824  1.0000
  H   H72       1.0  0.29038970348248233  0.3610419412168826  0.0291724910695664  1.0000
  H   H73       1.0  0.8576123189613583  0.856633620115126  0.4012770405844963  1.0000
  H   H74       1.0  0.9397043662782779  0.9533986793403744  0.3038920907490734  1.0000
  H   H75       1.0  0.31449305777027803  0.13105139056389706  0.48147845427948255  1.0000
  H   H76       1.0  0.30469269849281494  0.14662692216850104  0.3783731351233684  1.0000
  H   H77       1.0  0.12948516722989478  0.9816339183885533  0.2662672109906767  1.0000
  H   H78       1.0  0.2613881567122365  0.9707121437593927  0.33221873901957394  1.0000
  H   H79       1.0  0.27556632899541006  0.6037981902214754  0.3229430517952069  1.0000
  H   H80       1.0  0.6715690923351829  0.7189929808023832  0.396180967666055  1.0000
  H   H81       1.0  0.9527400872443295  0.6770649836612891  0.28095645203628555  1.0000
  H   H82       1.0  0.5472566744196429  0.7190520993836813  0.3229379129153431  1.0000
  H   H83       1.0  0.22443150243580604  0.6770568520488001  0.39620106388448323  1.0000
  H   H84       1.0  0.8284284158263019  0.6038217454092488  0.2810120636294471  1.0000
  C   C1        1.0  0.7302350481706341  0.0835156835346211  0.5227794420155191  1.0000
  C   C2        1.0  0.5630593813850169  0.1140884914880118  0.5159237211774936  1.0000
  C   C3        1.0  0.5563415107735139  0.07014290776343303  0.4209019915475168  1.0000
  C   C4        1.0  0.6367372939083964  0.8879086790626333  0.2970077091643476  1.0000
  C   C5        1.0  0.4956031066802712  0.840941389811896  0.26571501494519384  1.0000
  C   C6        1.0  0.6890032383057161  0.9995329312363526  0.33911094854798335  1.0000
  C   C7        1.0  0.6470318572344739  0.4397187199604673  0.9165386845291152  1.0000
  C   C8        1.0  0.4492752212347213  0.40216966103641033  0.8859057184527614  1.0000
  C   C9        1.0  0.4865800552307604  0.3512759850213314  0.9300030421523219  1.0000
  C   C10       1.0  0.7491807933675004  0.4093024648194685  0.11216587463400166  1.0000
  C   C11       1.0  0.6549888759499113  0.42489500026995597  0.1591575447798946  1.0000
  C   C12       1.0  0.6897382296206801  0.33999583025796215  0.0004767060895929761  1.0000
  C   C13       1.0  0.2074298501074311  0.47695510822179443  0.560667138413706  1.0000
  C   C14       1.0  0.047070846710894905  0.4840485722076693  0.5979872490944304  1.0000
  C   C15       1.0  0.13538337697130498  0.5790149979887859  0.649011336342447  1.0000
  C   C16       1.0  0.33974781312561225  0.7028432773724307  0.590939414320559  1.0000
  C   C17       1.0  0.2300257059268773  0.7342918484860378  0.5753393640132175  1.0000
  C   C18       1.0  0.3498188089626028  0.6606625254088245  0.6603834463445184  1.0000
  C   C19       1.0  0.2925744861700395  0.43933520245054336  0.5230473895720067  1.0000
  C   C20       1.0  0.452935671233611  0.40201670476371026  0.5159566652739684  1.0000
  C   C21       1.0  0.3646242505586699  0.3509940221820146  0.42099049700188834  1.0000
  C   C22       1.0  0.16025097204907013  0.40905736766077894  0.2971551769840205  1.0000
  C   C23       1.0  0.26997538906418583  0.4246548145560143  0.26570541733266145  1.0000
  C   C24       1.0  0.1501874530498668  0.3396196983301252  0.3393389895153902  1.0000
  C   C25       1.0  0.769766148025937  0.4772174926263375  0.9164810562025423  1.0000
  C   C26       1.0  0.9369402555386233  0.4840766031505057  0.8859081596670537  1.0000
  C   C27       1.0  0.9436608633052616  0.5790959952680765  0.9298603340793367  1.0000
  C   C28       1.0  0.8632626844464897  0.7029914629271162  0.11209320838450776  1.0000
  C   C29       1.0  0.00439545274669232  0.734287169963551  0.1590641338673109  1.0000
  C   C30       1.0  0.8109981109956269  0.660888482691377  0.00046934675476984085  1.0000
  C   C31       1.0  0.852970053062954  0.08345918623802362  0.5602772481721559  1.0000
  C   C32       1.0  0.05072421878259802  0.11409099005195604  0.5978287753825526  1.0000
  C   C33       1.0  0.013419898060973903  0.0699929666903998  0.6487203471345852  1.0000
  C   C34       1.0  0.750818612883066  0.8878327975757119  0.590695322606422  1.0000
  C   C35       1.0  0.845010803646538  0.8408393173317849  0.5751044371540817  1.0000
  C   C36       1.0  0.810260490700422  0.9995202180501439  0.6599996032159725  1.0000
  C   C37       1.0  0.26977088721815085  0.9164847079693388  0.47721844605389674  1.0000
  C   C38       1.0  0.43694213677898847  0.8859082054429097  0.4840681240512198  1.0000
  C   C39       1.0  0.44366712970033023  0.9298611763293609  0.5790917062763797  1.0000
  C   C40       1.0  0.3632671778157999  0.11209392897589514  0.7029895708111127  1.0000
  C   C41       1.0  0.5044011276081547  0.15906417373952314  0.734283424882044  1.0000
  C   C42       1.0  0.3110072346569979  0.00046967555733350017  0.6608855859211716  1.0000
  C   C43       1.0  0.35296268193733493  0.5602794577557619  0.08346176325243715  1.0000
  C   C44       1.0  0.5507145181793264  0.597818911338159  0.11408682739011072  1.0000
  C   C45       1.0  0.5134156982407208  0.6487177584743905  0.06999210683003569  1.0000
  C   C46       1.0  0.2508182827850548  0.5906979287417189  0.8878356982800357  1.0000
  C   C47       1.0  0.3450098307851734  0.5751046546109891  0.8408442783155864  1.0000
  C   C48       1.0  0.3102632997309841  0.6600060405658185  0.9995253042999794  1.0000
  C   C49       1.0  0.7925703337043473  0.523047501935345  0.43933616268877534  1.0000
  C   C50       1.0  0.952924919579509  0.5159503436540406  0.40201124853372533  1.0000
  C   C51       1.0  0.8646136151030179  0.4209846572676598  0.3509907882810027  1.0000
  C   C52       1.0  0.6602459872112547  0.29715342298331393  0.4090615338238593  1.0000
  C   C53       1.0  0.7699678447484858  0.265702634461377  0.4246569166044481  1.0000
  C   C54       1.0  0.6501781825185375  0.3393371304028464  0.3396211570116849  1.0000
  C   C55       1.0  0.7074260669109053  0.5606681465256501  0.47695628103222293  1.0000
  C   C56       1.0  0.5470661079278474  0.597987383329603  0.4840493929591788  1.0000
  C   C57       1.0  0.6353764206469777  0.6490078495929554  0.579015072409206  1.0000
  C   C58       1.0  0.8397506764653643  0.590943024990139  0.7028443944301019  1.0000
  C   C59       1.0  0.7300279736661255  0.5753455781358313  0.7342957116030533  1.0000
  C   C60       1.0  0.8498157912591467  0.6603821718405458  0.6606614799798366  1.0000
  C   C61       1.0  0.23022986851915322  0.522783640088477  0.08351963021962669  1.0000
  C   C62       1.0  0.06305465260576437  0.5159223136623938  0.11409389698261668  1.0000
  C   C63       1.0  0.05633661675611991  0.420902921050974  0.070141580119973  1.0000
  C   C64       1.0  0.13674007128227575  0.29701114673618184  0.8879099502676129  1.0000
  C   C65       1.0  0.995606326859658  0.26571691771334127  0.840940065316275  1.0000
  C   C66       1.0  0.18900329934155027  0.3391148661664617  0.9995344829270679  1.0000
  C   C67       1.0  0.14703625100181503  0.9165419446402158  0.4397234881317617  1.0000
  C   C68       1.0  0.9492768097630846  0.8859064473432314  0.402170096785362  1.0000
  C   C69       1.0  0.9865819881858329  0.9300044701700261  0.3512768250613833  1.0000
  C   C70       1.0  0.24918046386267184  0.11216759543025033  0.4093037715748693  1.0000
  C   C71       1.0  0.15498556920051246  0.15915738197489304  0.4248938898072297  1.0000
  C   C72       1.0  0.18974078869313624  0.0004794356429230001  0.3399989790132096  1.0000
  N   N1        1.0  0.6709451926256166  0.12197657019553533  0.5788338069722273  1.0000
  N   N2        1.0  0.6623690359969318  0.05090422688374471  0.42559848986769583  1.0000
  N   N3        1.0  0.5492508757908043  0.45716634070126366  0.8779643958517411  1.0000
  N   N4        1.0  0.6118564924701104  0.37529475153673536  0.949311476689097  1.0000
  N   N5        1.0  0.09207049281442893  0.421011279834076  0.543058294191205  1.0000
  N   N6        1.0  0.2367321079452084  0.5741774143811612  0.6251563024362384  1.0000
  N   N7        1.0  0.4079340290014529  0.4569430211209991  0.5789909441656677  1.0000
  N   N8        1.0  0.26327407287206483  0.3748478202320271  0.4258267751487282  1.0000
  N   N9        1.0  0.8290543100618636  0.4211615283592424  0.878016702878604  1.0000
  N   N10       1.0  0.8376297163198816  0.5744006157322233  0.9490986689805966  1.0000
  N   N11       1.0  0.9507496182578592  0.12203276608371992  0.5428322325603717  1.0000
  N   N12       1.0  0.8881425282587543  0.0506844079893867  0.6247006273883643  1.0000
  N   N13       1.0  0.32905840857853996  0.8780208660117741  0.42116182432938865  1.0000
  N   N14       1.0  0.33764303261206424  0.9490998575684986  0.5743995623657626  1.0000
  N   N15       1.0  0.45074218704579766  0.5428288810447415  0.12203147550687285  1.0000
  N   N16       1.0  0.38814184558899006  0.6247041639699308  0.05068749817188241  1.0000
  N   N17       1.0  0.9079253921938532  0.5789861582711924  0.4569396235110618  1.0000
  N   N18       1.0  0.7632669677624548  0.425822979596447  0.3748471295273675  1.0000
  N   N19       1.0  0.5920666435388641  0.5430588494047087  0.42100904809673534  1.0000
  N   N20       1.0  0.7367262296575986  0.6251533121686633  0.5741759460278644  1.0000
  N   N21       1.0  0.17094145593194554  0.5788373877800765  0.12198303411592805  1.0000
  N   N22       1.0  0.1623675266023171  0.4256012558221017  0.0509031657041206  1.0000
  N   N23       1.0  0.049255459281504085  0.8779676260938135  0.4571679751641826  1.0000
  N   N24       1.0  0.11186095348602992  0.9493145066683939  0.3752986822550783  1.0000
  O   O1        1.0  0.42369375167330525  0.8715528451828835  0.22742434445931556  1.0000
  O   O2        1.0  0.45671782250311577  0.7695062088535422  0.282425519423434  1.0000
  O   O3        1.0  0.5526228849884164  0.3558528777978864  0.12859835744193057  1.0000
  O   O4        1.0  0.6872494756494163  0.5130893942516792  0.2304606832592243  1.0000
  O   O5        1.0  0.19666324006373534  0.7729497192591528  0.6443564265196431  1.0000
  O   O6        1.0  0.17420961620692327  0.717295563477251  0.4871054544782753  1.0000
  O   O7        1.0  0.3033332801496087  0.3556367402683946  0.22705103995437528  1.0000
  O   O8        1.0  0.32578872218302735  0.5128897033407044  0.28269960123916604  1.0000
  O   O9        1.0  0.07630856315599041  0.7725780089463968  0.12845681686825133  1.0000
  O   O10       1.0  0.043278143455118864  0.7175770810968701  0.23049954941497935  1.0000
  O   O11       1.0  0.9473782775970464  0.871400658014423  0.6441478067456787  1.0000
  O   O12       1.0  0.8127508531881419  0.7695353404590152  0.4869123988767188  1.0000
  O   O13       1.0  0.7499941730535796  0.33939625733224693  0.6605955280268249  1.0000
  O   O14       1.0  0.41103190910578047  0.321303955030139  0.6603084267339838  1.0000
  O   O15       1.0  0.08895749581876804  0.33969709154926164  0.6786956740585595  1.0000
  O   O16       1.0  0.5763134242461732  0.12845345627732033  0.7725724633697482  1.0000
  O   O17       1.0  0.5432837207055314  0.23050083336458024  0.7175755018296216  1.0000
  O   O18       1.0  0.4473766792994882  0.6441467766870945  0.871402385364789  1.0000
  O   O19       1.0  0.3127492307890805  0.4869102609068819  0.7695423792026334  1.0000
  O   O20       1.0  0.803323940993714  0.22704402528122364  0.3556365120034429  1.0000
  O   O21       1.0  0.825785398726211  0.2826967023803705  0.5128889555005856  1.0000
  O   O22       1.0  0.6966695945936365  0.6443643913608456  0.7729502994054798  1.0000
  O   O23       1.0  0.6742132953039859  0.4871114284068769  0.717301579043074  1.0000
  O   O24       1.0  0.9236944425308806  0.2274268178476149  0.8715497699442593  1.0000
  O   O25       1.0  0.956724612125349  0.2824255287052325  0.7695042289203258  1.0000
  O   O26       1.0  0.05261784440212842  0.12859382499437544  0.3558508101543651  1.0000
  O   O27       1.0  0.1872458890763724  0.230462097527905  0.5130856779031561  1.0000
  O   O28       1.0  0.2500013425372387  0.6606004420927789  0.3394026398568785  1.0000
  O   O29       1.0  0.5889594650044857  0.6787016115457334  0.3396932040778112  1.0000
  O   O30       1.0  0.9110382832905516  0.6603069966784361  0.3213061722153939  1.0000
