data_image0
_chemical_formula_structural       Co2H40C36N8O12
_chemical_formula_sum              "Co2 H40 C36 N8 O12"
_cell_length_a       8.890803418947376
_cell_length_b       9.249611038403163
_cell_length_c       14.422281210999344
_cell_angle_alpha    73.29316585024918
_cell_angle_beta     81.88424676544726
_cell_angle_gamma    79.99682608510874

_space_group_name_H-M_alt    "P 1"
_space_group_IT_number       1

loop_
  _space_group_symop_operation_xyz
  'x, y, z'

loop_
  _atom_site_type_symbol
  _atom_site_label
  _atom_site_symmetry_multiplicity
  _atom_site_fract_x
  _atom_site_fract_y
  _atom_site_fract_z
  _atom_site_occupancy
  Co  Co1       1.0  0.12369193943635544  0.29497119810363165  0.03455560329641828  1.0000
  Co  Co2       1.0  0.8763143680945263  0.7050290741256477  0.965442642126355  1.0000
  H   H1        1.0  0.6361884756648594  0.012939537512515604  0.4367525085715727  1.0000
  H   H2        1.0  0.36383334599297273  0.987054994316054  0.5632496724822785  1.0000
  H   H3        1.0  0.5816152943386329  0.8318308799914863  0.4913699847173873  1.0000
  H   H4        1.0  0.41839889053589024  0.16816139608371838  0.5086311905879342  1.0000
  H   H5        1.0  0.6167889751361529  0.8186516420967465  0.7739962250533877  1.0000
  H   H6        1.0  0.38322065587941984  0.18134876462681865  0.2260121145532992  1.0000
  H   H7        1.0  0.6306387123291016  0.9022125109763623  0.6481033032383862  1.0000
  H   H8        1.0  0.36937531451236083  0.09778900378417893  0.3519044540036518  1.0000
  H   H9        1.0  0.8922130810620603  0.08870702633749523  0.0397154234271753  1.0000
  H   H10       1.0  0.10777502659703946  0.9113104258555541  0.9602790242219255  1.0000
  H   H11       1.0  0.7347313527098578  0.9128288453689851  0.16065818028789633  1.0000
  H   H12       1.0  0.26526509743581533  0.0871771801410404  0.8393391151291637  1.0000
  H   H13       1.0  0.8926467637771012  0.05729764414262919  0.3853395153161259  1.0000
  H   H14       1.0  0.10737001936954729  0.9426923042885851  0.6146598012598046  1.0000
  H   H15       1.0  0.046556297744878315  0.22786307391736224  0.2534761985391825  1.0000
  H   H16       1.0  0.9534530555609708  0.772131471830541  0.746522181741767  1.0000
  H   H17       1.0  0.2164499867099253  0.3340681287218247  0.8177811023886505  1.0000
  H   H18       1.0  0.7835394230252534  0.6659481543672997  0.1822120699453933  1.0000
  H   H19       1.0  0.34375741250265435  0.5135517742336406  0.6802093691179393  1.0000
  H   H20       1.0  0.6562390973779345  0.48646223377095044  0.3197871005898989  1.0000
  H   H21       1.0  0.47095500997528467  0.7141895362854671  0.8897444465332  1.0000
  H   H22       1.0  0.5290422940158663  0.2858097654967723  0.11026167936407205  1.0000
  H   H23       1.0  0.33546559112657093  0.5277739444094109  0.01816577438245303  1.0000
  H   H24       1.0  0.6645315950571273  0.4722264339780582  0.9818359968484315  1.0000
  H   H25       1.0  0.43947615579062227  0.8950233845925556  0.20257104366947226  1.0000
  H   H26       1.0  0.5605225789095132  0.10496556221969663  0.7974306844796573  1.0000
  H   H27       1.0  0.5253776778071783  0.8995729018569423  0.08443895341071782  1.0000
  H   H28       1.0  0.47461153508317727  0.10041946544004081  0.9155587717531545  1.0000
  H   H29       1.0  0.42225297311208027  0.6602289825628916  0.15071328136525602  1.0000
  H   H30       1.0  0.5777315083769639  0.3397646094931305  0.8492880791428091  1.0000
  H   H31       1.0  0.3117299235065546  0.7742875266843898  0.05612269779680187  1.0000
  H   H32       1.0  0.6882612762399916  0.2257151610551916  0.9438784488875385  1.0000
  H   H33       1.0  0.21733333286141493  0.7538078910214666  0.27192096003864913  1.0000
  H   H34       1.0  0.7826472196070285  0.24619820406298487  0.7280748946346308  1.0000
  H   H35       1.0  0.1031034977016319  0.8417135590589101  0.17443360822426965  1.0000
  H   H36       1.0  0.8968832060516617  0.15828906555736216  0.8255616904561548  1.0000
  H   H37       1.0  0.21782145381014573  0.4979227251951955  0.24499697780221652  1.0000
  H   H38       1.0  0.7821736648593075  0.502084522238029  0.7550050524335248  1.0000
  H   H39       1.0  0.030653674898182732  0.5890986919110333  0.2693639348912171  1.0000
  H   H40       1.0  0.9693373120258286  0.4108971533223454  0.7306378342402979  1.0000
  C   C1        1.0  0.8895091311177411  0.07895891668287902  0.1168587335302576  1.0000
  C   C2        1.0  0.1104818515886024  0.9210539807087276  0.8831377214171566  1.0000
  C   C3        1.0  0.8013249353483617  0.9804692501204143  0.18512028339523573  1.0000
  C   C4        1.0  0.19867279335326776  0.019535648541108203  0.8148785043096609  1.0000
  C   C5        1.0  0.8004549799472541  0.9695539233378345  0.2838287646271525  1.0000
  C   C6        1.0  0.19955157990401776  0.03043607585628651  0.7161700211281924  1.0000
  C   C7        1.0  0.8889613544281902  0.06070789175599602  0.3095461564528462  1.0000
  C   C8        1.0  0.11104989566418061  0.9392809566260854  0.6904538372633908  1.0000
  C   C9        1.0  0.975307996489633  0.15556151180653194  0.23687597655320045  1.0000
  C   C10       1.0  0.024697479988134336  0.8444364884338641  0.7631227701693106  1.0000
  C   C11       1.0  0.7116329508806274  0.8566987397048537  0.3580829345415423  1.0000
  C   C12       1.0  0.28837470670118404  0.14330836704277772  0.6419145936584058  1.0000
  C   C13       1.0  0.2716203304354323  0.42121233161912397  0.831215875169363  1.0000
  C   C14       1.0  0.7283783882869843  0.5787936884790598  0.16878192259711255  1.0000
  C   C15       1.0  0.3432379479070066  0.5222631486720958  0.7539257974781178  1.0000
  C   C16       1.0  0.6567638528051633  0.4777451696946997  0.24607407704021966  1.0000
  C   C17       1.0  0.41537196210396155  0.6326031879328654  0.7725768319927439  1.0000
  C   C18       1.0  0.5846346104419737  0.3673948782666657  0.22742666325918034  1.0000
  C   C19       1.0  0.41477287337333024  0.6333590402622067  0.8695978574389612  1.0000
  C   C20       1.0  0.5852362915646978  0.36663670885719324  0.13040447098429547  1.0000
  C   C21       1.0  0.3389007124137892  0.5288260636791338  0.9423038374858591  1.0000
  C   C22       1.0  0.6611066549704676  0.47116624975929994  0.05769721457265578  1.0000
  C   C23       1.0  0.48619717257413003  0.7449634120196009  0.6880387285094968  1.0000
  C   C24       1.0  0.5138152460159945  0.2550415518215915  0.31196989752351806  1.0000
  C   C25       1.0  0.32011944057092023  0.05327983283488891  0.08779111110145267  1.0000
  C   C26       1.0  0.6798795304718795  0.9467159142281429  0.9122072269976016  1.0000
  C   C27       1.0  0.41400472293306495  0.9008236122482673  0.12900319312445416  1.0000
  C   C28       1.0  0.5859934751291718  0.0991608037260789  0.87100082664994  1.0000
  C   C29       1.0  0.33873384639570503  0.7636669804481216  0.13010479196389474  1.0000
  C   C30       1.0  0.6612568402330582  0.23633113419813165  0.8698958787428167  1.0000
  C   C31       1.0  0.19309366224382535  0.7467000239688346  0.20061460676421206  1.0000
  C   C32       1.0  0.8068907376525588  0.2533026694423982  0.7993843409711374  1.0000
  C   C33       1.0  0.13250278693256942  0.595918269691076  0.21553608106565753  1.0000
  C   C34       1.0  0.8674851659765322  0.40408328089596784  0.7844641694062346  1.0000
  C   C35       1.0  0.08170339123941521  0.5727516219970215  0.12514084204696016  1.0000
  C   C36       1.0  0.9182908542821057  0.42724533926118374  0.8748604394955563  1.0000
  N   N1        1.0  0.976292082034263  0.16503781248643892  0.14189780773914146  1.0000
  N   N2        1.0  0.023707473621300303  0.8349704690367761  0.8580987968268801  1.0000
  N   N3        1.0  0.6486371856538327  0.9001287228905  0.4387355904123282  1.0000
  N   N4        1.0  0.3513834743208975  0.09985777104822803  0.561263359722048  1.0000
  N   N5        1.0  0.2656110458674733  0.4251627451392751  0.9246033152113355  1.0000
  N   N6        1.0  0.7343944364903265  0.574835244537262  0.0753947396104451  1.0000
  N   N7        1.0  0.5879389866864317  0.8230778273323838  0.7057567907025658  1.0000
  N   N8        1.0  0.41206323212843193  0.17692714501630047  0.29424853690697017  1.0000
  O   O1        1.0  0.7022433565068412  0.7323141105581287  0.3441671972355492  1.0000
  O   O2        1.0  0.2977430511688795  0.26767373131279026  0.6558323172041653  1.0000
  O   O3        1.0  0.44813833721988067  0.7638868689269247  0.6041885965162805  1.0000
  O   O4        1.0  0.5518701161348577  0.23612257319272353  0.3958125817882774  1.0000
  O   O5        1.0  0.3246037123701982  0.16791293269198354  0.1202286996746622  1.0000
  O   O6        1.0  0.6753925131928754  0.8320862714395504  0.8797706019910194  1.0000
  O   O7        1.0  0.23518793128864965  0.07006163884935294  0.020436018707656  1.0000
  O   O8        1.0  0.7648137911139088  0.9299306405813258  0.9795606639240402  1.0000
  O   O9        1.0  0.02284622984019079  0.6895891332264414  0.06277283404060799  1.0000
  O   O10       1.0  0.9771611787042784  0.3104031062649997  0.9372233747128291  1.0000
  O   O11       1.0  0.097667589914721  0.4370461315651186  0.1182283294653388  1.0000
  O   O12       1.0  0.9023319060059267  0.5629541674635234  0.8817691008098976  1.0000
