data_image0
_chemical_formula_structural       Zn4H64C80N24O16
_chemical_formula_sum              "Zn4 H64 C80 N24 O16"
_cell_length_a       12.852734635003449
_cell_length_b       14.568108050003499
_cell_length_c       14.568098029002307
_cell_angle_alpha    89.99995826340452
_cell_angle_beta     90.00004934683491
_cell_angle_gamma    90.00006768620875

_space_group_name_H-M_alt    "P 1"
_space_group_IT_number       1

loop_
  _space_group_symop_operation_xyz
  'x, y, z'

loop_
  _atom_site_type_symbol
  _atom_site_label
  _atom_site_symmetry_multiplicity
  _atom_site_fract_x
  _atom_site_fract_y
  _atom_site_fract_z
  _atom_site_occupancy
  Zn  Zn1       1.0  0.9992833945258964  0.5000002453681134  1.9868895150000008e-07  1.0000
  Zn  Zn2       1.0  0.4992837632794788  0.999999525988798  0.49999989363923464  1.0000
  Zn  Zn3       1.0  0.4992836724041823  0.5000003066324865  0.999999456999902  1.0000
  Zn  Zn4       1.0  0.9992840816943483  3.3958152559999997e-07  0.49999907561875295  1.0000
  H   H1        1.0  0.008283220975542297  0.8106739540571792  0.8118695879309428  1.0000
  H   H2        1.0  0.5082838833336182  0.6893243910986939  0.3118704414744685  1.0000
  H   H3        1.0  0.008284058287884498  0.18932582429395237  0.1881301893895255  1.0000
  H   H4        1.0  0.5082838133503172  0.3106745364213736  0.6881297169531849  1.0000
  H   H5        1.0  0.5082840662004812  0.6881305502560904  0.6893239700950604  1.0000
  H   H6        1.0  0.008283696895581697  0.8118692570122833  0.1893250396798862  1.0000
  H   H7        1.0  0.0082843604112526  0.1881298349088212  0.8106733647783103  1.0000
  H   H8        1.0  0.5082836304844988  0.31187043655702945  0.310675501900434  1.0000
  H   H9        1.0  0.133307999579543  0.9104220762088601  0.7231840345626284  1.0000
  H   H10       1.0  0.6333077505620038  0.5895771505012205  0.22318427434839808  1.0000
  H   H11       1.0  0.13330878986749178  0.08957783267576501  0.2768158380533379  1.0000
  H   H12       1.0  0.633307900216593  0.41042259398271597  0.7768152929425014  1.0000
  H   H13       1.0  0.6333088320290584  0.7768161555201158  0.5895779515259678  1.0000
  H   H14       1.0  0.1333075661348033  0.7231838549271501  0.08957771286197412  1.0000
  H   H15       1.0  0.1333092233114428  0.2768153675267868  0.9104214733228346  1.0000
  H   H16       1.0  0.6333075967944097  0.22318358896397675  0.41042230219663633  1.0000
  H   H17       1.0  0.38909553136192443  0.7487367973346578  0.8283674480148024  1.0000
  H   H18       1.0  0.8890954984665954  0.751263992690177  0.32836688356830024  1.0000
  H   H19       1.0  0.3890964354091722  0.2512633786081082  0.17163193313439962  1.0000
  H   H20       1.0  0.8890945515926488  0.2487367052819209  0.6716335651181  1.0000
  H   H21       1.0  0.8890956510232612  0.6716330454533902  0.7512642590759527  1.0000
  H   H22       1.0  0.3890945257248219  0.8283664278635425  0.25126394377807776  1.0000
  H   H23       1.0  0.38909666300182266  0.17163237521619826  0.7487374966655411  1.0000
  H   H24       1.0  0.8890943990355209  0.3283669660877778  0.24873618961070323  1.0000
  H   H25       1.0  0.26415789444733656  0.6518366780691237  0.9145818473203919  1.0000
  H   H26       1.0  0.764157991076928  0.8481652915851255  0.41458052584278  1.0000
  H   H27       1.0  0.264158066072909  0.3481640538616516  0.0854174385991797  1.0000
  H   H28       1.0  0.7641560527306696  0.15183527594430757  0.5854191411828397  1.0000
  H   H29       1.0  0.764155692316251  0.5854185926285922  0.8481643321715142  1.0000
  H   H30       1.0  0.2641562383482352  0.9145806796713601  0.3481646404917812  1.0000
  H   H31       1.0  0.2641589441267556  0.0854179929657164  0.6518360182910572  1.0000
  H   H32       1.0  0.7641560173572728  0.4145812884686891  0.151835334853466  1.0000
  H   H33       1.0  0.43833498862271364  0.9399984447207003  0.8339329829384783  1.0000
  H   H34       1.0  0.9383354781157252  0.5600010197978589  0.3339332442731405  1.0000
  H   H35       1.0  0.4383340755088411  0.06000109619893829  0.16606712217264175  1.0000
  H   H36       1.0  0.9383340034372621  0.4399990431525751  0.6660672419446599  1.0000
  H   H37       1.0  0.9383341029176862  0.6660675588015792  0.5600018381651709  1.0000
  H   H38       1.0  0.4383337631036497  0.833932791651705  0.060001518812384816  1.0000
  H   H39       1.0  0.43833607907448874  0.16606880856063808  0.9399999591610925  1.0000
  H   H40       1.0  0.9383346005920146  0.3339338770100752  0.4399993344832397  1.0000
  H   H41       1.0  0.20962319175628613  0.9115904853339386  0.5478770330985443  1.0000
  H   H42       1.0  0.7096237192230036  0.5884110080237547  0.04787727373506102  1.0000
  H   H43       1.0  0.20962492913211858  0.08841018966009528  0.4521222112545616  1.0000
  H   H44       1.0  0.7096240410413727  0.4115888161388098  0.9521223517249313  1.0000
  H   H45       1.0  0.7096234472792275  0.9521224188865104  0.588410983359104  1.0000
  H   H46       1.0  0.2096235031445772  0.5478769856580212  0.0884094995573648  1.0000
  H   H47       1.0  0.20962383969824566  0.452121630042555  0.9115904312276015  1.0000
  H   H48       1.0  0.7096243129862714  0.04787809170648669  0.4115900149634513  1.0000
  H   H49       1.0  0.24478685723106247  0.7993871767230586  0.5838488387281089  1.0000
  H   H50       1.0  0.7447875346772719  0.7006136407184511  0.0838489976160375  1.0000
  H   H51       1.0  0.244788709580277  0.2006135349838019  0.4161511188586502  1.0000
  H   H52       1.0  0.7447876715097052  0.2993862201571885  0.9161506546462096  1.0000
  H   H53       1.0  0.744787978840641  0.9161506697743887  0.7006144009144821  1.0000
  H   H54       1.0  0.24478730474447016  0.5838486897653394  0.20061357733565197  1.0000
  H   H55       1.0  0.24478670597733299  0.41615133550977385  0.7993863802507661  1.0000
  H   H56       1.0  0.7447872273470039  0.08384919110074657  0.2993866242105768  1.0000
  H   H57       1.0  0.3196767513843781  0.8554048166845191  0.49673726939553836  1.0000
  H   H58       1.0  0.8196755064088491  0.6445971510997168  0.9967369179597727  1.0000
  H   H59       1.0  0.31967783558605584  0.14459528678063552  0.503262745273233  1.0000
  H   H60       1.0  0.8196763858045201  0.35540347439486186  0.0032627913830936  1.0000
  H   H61       1.0  0.8196756844769268  0.0032634858200210996  0.6445971543317983  1.0000
  H   H62       1.0  0.31967556227977667  0.49673723171284917  0.1445960299320461  1.0000
  H   H63       1.0  0.3196759125120394  0.5032621853197483  0.8554039847357944  1.0000
  H   H64       1.0  0.8196762077372312  0.9967378261052462  0.3554032414422253  1.0000
  C   C1        1.0  0.05425704831100829  0.6638401849472969  0.9180736395108798  1.0000
  C   C2        1.0  0.5542571288944346  0.836158817290247  0.4180736996426404  1.0000
  C   C3        1.0  0.0542579785381108  0.3361596414031211  0.0819268592828806  1.0000
  C   C4        1.0  0.5542544251529549  0.1638408446580115  0.5819271802565638  1.0000
  C   C5        1.0  0.5542540502383061  0.5819272997006947  0.8361578817414428  1.0000
  C   C6        1.0  0.05425460093702131  0.9180724486245635  0.33615750108644704  1.0000
  C   C7        1.0  0.05425497959885921  0.08192669129282851  0.6638409384112693  1.0000
  C   C8        1.0  0.55425516967572  0.41807373510870605  0.16384162529357132  1.0000
  C   C9        1.0  0.12915552361473456  0.7261166883317569  0.8689354532328865  1.0000
  C   C10       1.0  0.6291562990005133  0.7738851736162217  0.3689348723057791  1.0000
  C   C11       1.0  0.12915564037426458  0.2738839026477606  0.13106510264891114  1.0000
  C   C12       1.0  0.629156060452864  0.22611456653313414  0.63106469182069  1.0000
  C   C13       1.0  0.6291556225480688  0.6310655198132906  0.7738848353137585  1.0000
  C   C14       1.0  0.12915610756511597  0.8689343520671711  0.2738851768911346  1.0000
  C   C15       1.0  0.1291558344678378  0.1310648660506359  0.7261160654228578  1.0000
  C   C16       1.0  0.6291567369057702  0.36893490676700214  0.22611472881246192  1.0000
  C   C17       1.0  0.0919323388406426  0.7986086001673556  0.81474989038135  1.0000
  C   C18       1.0  0.5919314612377135  0.7013925759495336  0.3147479894070884  1.0000
  C   C19       1.0  0.09193318947834678  0.2013919519492617  0.18525063712872486  1.0000
  C   C20       1.0  0.5919305942792121  0.2986078117651729  0.685252232777039  1.0000
  C   C21       1.0  0.5919316385866011  0.6852516981955217  0.7013914671244877  1.0000
  C   C22       1.0  0.09193127312828152  0.8147468147558925  0.20139116174951255  1.0000
  C   C23       1.0  0.0919334771432077  0.18525030520615363  0.7986079928987097  1.0000
  C   C24       1.0  0.5919311949748689  0.3147486895195897  0.29860875505993084  1.0000
  C   C25       1.0  0.16085620568195214  0.8539871558632368  0.7659535471789883  1.0000
  C   C26       1.0  0.6608560320997655  0.6460134413223599  0.2659516865528176  1.0000
  C   C27       1.0  0.16085702978303826  0.14601278178341195  0.23404634643458885  1.0000
  C   C28       1.0  0.6608560646953237  0.3539856454934238  0.7340458424417308  1.0000
  C   C29       1.0  0.6608570539147819  0.7340466972107578  0.6460143084401369  1.0000
  C   C30       1.0  0.16085584518994273  0.7659533008955535  0.1460147250466761  1.0000
  C   C31       1.0  0.1608573902751331  0.2340452638884827  0.8539872278616161  1.0000
  C   C32       1.0  0.6608565989720959  0.2659544488976309  0.35398596627987905  1.0000
  C   C33       1.0  0.267472418122061  0.8359354484381709  0.7725646152499126  1.0000
  C   C34       1.0  0.767470712579886  0.6640652552458947  0.27256205503963576  1.0000
  C   C35       1.0  0.2674732599193348  0.16406528695327438  0.22743535962769107  1.0000
  C   C36       1.0  0.7674691585259551  0.3359360021736038  0.7274369280794775  1.0000
  C   C37       1.0  0.7674709454351074  0.7274371028398152  0.6640654381397015  1.0000
  C   C38       1.0  0.2674697455429893  0.7725616205704001  0.16406310420548215  1.0000
  C   C39       1.0  0.2674743764054455  0.22743430980420237  0.8359354978104678  1.0000
  C   C40       1.0  0.7674697037149015  0.2725620952865384  0.3359356042746739  1.0000
  C   C41       1.0  0.30620267559517333  0.7643709057246965  0.826352048123006  1.0000
  C   C42       1.0  0.8062026218024484  0.735630485653644  0.32635149506694466  1.0000
  C   C43       1.0  0.3062035607062086  0.235629183672593  0.17364795627557336  1.0000
  C   C44       1.0  0.8062032538751609  0.2643701257745477  0.6736475175752119  1.0000
  C   C45       1.0  0.8062035575717347  0.6736469962313975  0.7356307514999048  1.0000
  C   C46       1.0  0.30620320762531605  0.8263517154964999  0.23563043766992567  1.0000
  C   C47       1.0  0.3062030286758172  0.1736470010384252  0.7643709395919629  1.0000
  C   C48       1.0  0.8062030961501633  0.3263522423348348  0.2643696340058597  1.0000
  C   C49       1.0  0.23624945588440477  0.7096602470811676  0.8743466388085823  1.0000
  C   C50       1.0  0.7362494752204611  0.7903403498772122  0.3743433001662169  1.0000
  C   C51       1.0  0.23624958937454468  0.29033976928003824  0.1256539987018641  1.0000
  C   C52       1.0  0.7362476533259611  0.2096601885138298  0.6256570320186159  1.0000
  C   C53       1.0  0.7362472334406434  0.6256558075439357  0.7903393253099653  1.0000
  C   C54       1.0  0.23624850373197856  0.8743421048705073  0.29033966294696256  1.0000
  C   C55       1.0  0.23625054152387998  0.1256537929053536  0.7096602881335772  1.0000
  C   C56       1.0  0.7362475609709094  0.37434335798427304  0.20966032044307073  1.0000
  C   C57       1.0  0.42266591306585605  0.9384855693810363  0.7608417615006291  1.0000
  C   C58       1.0  0.9226664045805747  0.5615146184423025  0.2608399624385741  1.0000
  C   C59       1.0  0.42266662919450954  0.061514641610912704  0.23915833166768152  1.0000
  C   C60       1.0  0.9226649990114735  0.43848611458013653  0.7391591389730223  1.0000
  C   C61       1.0  0.922665891569153  0.7391607751041248  0.5615147003837324  1.0000
  C   C62       1.0  0.4226662320978463  0.7608402443200291  0.06151443428509402  1.0000
  C   C63       1.0  0.4226670882054719  0.23915859381095564  0.9384842860212077  1.0000
  C   C64       1.0  0.9226662900681004  0.2608399579182219  0.43848577389096743  1.0000
  C   C65       1.0  0.3463023117741884  0.9050001032321119  0.6304396841339328  1.0000
  C   C66       1.0  0.8463028480494045  0.5950007862656577  0.1304392335376576  1.0000
  C   C67       1.0  0.3463031995673731  0.09500071446233699  0.3695610372602759  1.0000
  C   C68       1.0  0.8463023026679153  0.4049998670287565  0.8695604961003699  1.0000
  C   C69       1.0  0.8463024795548435  0.8695606345156859  0.595000807013932  1.0000
  C   C70       1.0  0.3463018677351073  0.6304389079299356  0.09500063592197713  1.0000
  C   C71       1.0  0.346302087516122  0.36956053690208523  0.9049993990407261  1.0000
  C   C72       1.0  0.8463026711628174  0.13044001877847927  0.4049996090555014  1.0000
  C   C73       1.0  0.27583320144896106  0.8656010156050512  0.5606385213377082  1.0000
  C   C74       1.0  0.7758330123442715  0.6343998511541782  0.06063941489865951  1.0000
  C   C75       1.0  0.2758342098343576  0.13439972851589488  0.4393607734812549  1.0000
  C   C76       1.0  0.7758340383153594  0.3656000421350569  0.9393609474585958  1.0000
  C   C77       1.0  0.7758334953479747  0.93936099922864  0.634400544521398  1.0000
  C   C78       1.0  0.2758327902275326  0.5606391273791899  0.1343997378528243  1.0000
  C   C79       1.0  0.2758322869215917  0.4393602438784256  0.8656002433971537  1.0000
  C   C80       1.0  0.7758335553124526  0.0606395804912694  0.3656005042670075  1.0000
  N   N1        1.0  0.47691973348783273  0.9799618372240104  0.6969686383897767  1.0000
  N   N2        1.0  0.9769193915193737  0.5200391401921391  0.19696961527144202  1.0000
  N   N3        1.0  0.47691967829107534  0.020038430412086  0.3030308096998127  1.0000
  N   N4        1.0  0.9769188815925529  0.4799616494734521  0.80303158678705  1.0000
  N   N5        1.0  0.9769197378568889  0.8030318439783243  0.5200391394324271  1.0000
  N   N6        1.0  0.4769199930103269  0.6969685758657177  0.0200396063004504  1.0000
  N   N7        1.0  0.4769201968158399  0.3030337510625856  0.9799625875143009  1.0000
  N   N8        1.0  0.9769193132997102  0.1969696321188579  0.4799613761947016  1.0000
  N   N9        1.0  0.4284755141834822  0.9585561795015421  0.6151899358446045  1.0000
  N   N10       1.0  0.9284759788711696  0.5414434340341215  0.11519089713137733  1.0000
  N   N11       1.0  0.4284763452289794  0.041444037556296116  0.3848094753205018  1.0000
  N   N12       1.0  0.9284755199185212  0.45855730505386555  0.8848095815715242  1.0000
  N   N13       1.0  0.9284756377223004  0.8848097600907323  0.5414440816851638  1.0000
  N   N14       1.0  0.4284757835639823  0.6151899071546437  0.0414439217036318  1.0000
  N   N15       1.0  0.42847529780473076  0.38481099633347077  0.9585561758923336  1.0000
  N   N16       1.0  0.9284758610673833  0.11519097899724777  0.4585563970177376  1.0000
  N   N17       1.0  0.34027016859693754  0.8914066744747657  0.7233770075892425  1.0000
  N   N18       1.0  0.8402707230425079  0.6085941410382816  0.2233772335205302  1.0000
  N   N19       1.0  0.34027020607074115  0.10859413692156039  0.2766230227754534  1.0000
  N   N20       1.0  0.8402700690456867  0.3914058195269872  0.7766231779513504  1.0000
  N   N21       1.0  0.8402710227854585  0.7766226831125849  0.6085949261186274  1.0000
  N   N22       1.0  0.34027053519369593  0.7233768431355256  0.10859400088273932  1.0000
  N   N23       1.0  0.3402698394735281  0.27662328182987034  0.8914060294822053  1.0000
  N   N24       1.0  0.8402705473480694  0.22337796388377026  0.391406171784709  1.0000
  O   O1        1.0  0.09791077202340398  0.5980464722491803  0.9647434649183708  1.0000
  O   O2        1.0  0.5979109405522038  0.9019518551443823  0.4647448499773575  1.0000
  O   O3        1.0  0.09791096673234989  0.4019527132473327  0.0352563807173851  1.0000
  O   O4        1.0  0.5979104375811133  0.09804785238202382  0.5352567496275995  1.0000
  O   O5        1.0  0.5979101301699001  0.5352561729700085  0.9019509926989786  1.0000
  O   O6        1.0  0.0979099652087783  0.964743573016939  0.4019512644715491  1.0000
  O   O7        1.0  0.09791021745689929  0.03525561247950999  0.5980465218694065  1.0000
  O   O8        1.0  0.5979112479634523  0.4647455938502035  0.09804786117961582  1.0000
  O   O9        1.0  0.9584879687604371  0.6766789771090274  0.9115199323862201  1.0000
  O   O10       1.0  0.4584891708513368  0.8233197655125578  0.41152168006006923  1.0000
  O   O11       1.0  0.9584881101597418  0.3233211068826947  0.08848056919269003  1.0000
  O   O12       1.0  0.4584880467368251  0.17667979644891565  0.5884791268441563  1.0000
  O   O13       1.0  0.4584876581853194  0.5884799240689488  0.8233188298557794  1.0000
  O   O14       1.0  0.9584886175469761  0.911520255651581  0.32331952151300675  1.0000
  O   O15       1.0  0.9584905735512733  0.0884812012043739  0.6766789207723748  1.0000
  O   O16       1.0  0.45848800331492606  0.41152238361594573  0.1766806041840425  1.0000
