data_image0
_chemical_formula_structural       Cu4H20C28Br4N4
_chemical_formula_sum              "Cu4 H20 C28 Br4 N4"
_cell_length_a       3.9078509036833435
_cell_length_b       10.889832232925421
_cell_length_c       17.243401405500585
_cell_angle_alpha    89.99927209267628
_cell_angle_beta     90.00046927567519
_cell_angle_gamma    99.06806366012536

_space_group_name_H-M_alt    "P 1"
_space_group_IT_number       1

loop_
  _space_group_symop_operation_xyz
  'x, y, z'

loop_
  _atom_site_type_symbol
  _atom_site_label
  _atom_site_symmetry_multiplicity
  _atom_site_fract_x
  _atom_site_fract_y
  _atom_site_fract_z
  _atom_site_occupancy
  Cu  Cu1       1.0  0.6704628352383396  0.9108920236715081  0.9565178305421043  1.0000
  Cu  Cu2       1.0  0.8295417330430155  0.5890974735581765  0.4565168884187472  1.0000
  Cu  Cu3       1.0  0.3295093617732192  0.08911451537371562  0.04348498208031511  1.0000
  Cu  Cu4       1.0  0.1704780877047085  0.4108878968193396  0.5434847644587109  1.0000
  H   H1        1.0  0.6764462271045629  0.432992440306613  0.9725721407707368  1.0000
  H   H2        1.0  0.8235576134189341  0.06699583877287552  0.4725870121725819  1.0000
  H   H3        1.0  0.3235302291859198  0.5670057598362774  0.0274225528386509  1.0000
  H   H4        1.0  0.17645555654439002  0.9329857923488095  0.5274152206452882  1.0000
  H   H5        1.0  0.8549481241715142  0.24033242539545802  0.9207189722805396  1.0000
  H   H6        1.0  0.6450996893288021  0.2596681928791399  0.4207332635551353  1.0000
  H   H7        1.0  0.1450996522753414  0.7596836898473003  0.0792710818655706  1.0000
  H   H8        1.0  0.35488196054623  0.7403114595653054  0.5792724488356952  1.0000
  H   H9        1.0  0.15146388112653142  0.24305113378660087  0.7936622353496291  1.0000
  H   H10       1.0  0.34857626752700815  0.25696230202277803  0.29367688712624584  1.0000
  H   H11       1.0  0.8485929375381218  0.7569807989158978  0.20633013847280784  1.0000
  H   H12       1.0  0.6513921854625833  0.7430163709937718  0.7063305650531717  1.0000
  H   H13       1.0  0.2664941243128212  0.4392417050630399  0.7161502081862849  1.0000
  H   H14       1.0  0.23350925643352835  0.06077683964894481  0.21616439574626162  1.0000
  H   H15       1.0  0.733514756610674  0.5607918990273221  0.2838444853177648  1.0000
  H   H16       1.0  0.76649698630073  0.9392066214492163  0.7838384169909601  1.0000
  H   H17       1.0  0.09271684589701586  0.6330331214988549  0.7678578134652341  1.0000
  H   H18       1.0  0.40728119276177915  0.8669778465783652  0.2678682606598812  1.0000
  H   H19       1.0  0.9072625923485943  0.3669910848497582  0.2321432593011892  1.0000
  H   H20       1.0  0.592749261667656  0.13300849334492432  0.7321287527669611  1.0000
  C   C1        1.0  0.8754563333631111  0.5453574003410536  0.8736557877918969  1.0000
  C   C2        1.0  0.6245476710227466  0.954644878833975  0.3736680059448858  1.0000
  C   C3        1.0  0.12452583973946217  0.4546547476422306  0.12634064556604588  1.0000
  C   C4        1.0  0.375457809455483  0.045336722561280914  0.6263336469346895  1.0000
  C   C5        1.0  0.8073151019754335  0.43424821652214957  0.9168402018125336  1.0000
  C   C6        1.0  0.692695182281689  0.06574862007212091  0.4168519641184787  1.0000
  C   C7        1.0  0.19267683795055754  0.5657565421687851  0.0831550717172505  1.0000
  C   C8        1.0  0.30729966446077855  0.9342320118116666  0.5831508486198018  1.0000
  C   C9        1.0  0.9060552447160576  0.3263083629992566  0.887442776005706  1.0000
  C   C10       1.0  0.5939739739626404  0.17369377182787826  0.3874570451751111  1.0000
  C   C11       1.0  0.09397088313124867  0.673704883369112  0.1125490179289983  1.0000
  C   C12       1.0  0.4060033118059889  0.8262877205266292  0.612546927409241  1.0000
  C   C13       1.0  0.07067591225808911  0.32802728208350374  0.8153634847053156  1.0000
  C   C14       1.0  0.4293454440199085  0.17198193706634873  0.3153777475065311  1.0000
  C   C15       1.0  0.9293536456872856  0.6719943329822443  0.1846300489969011  1.0000
  C   C16       1.0  0.5706245334276759  0.8280004553903099  0.6846285447962828  1.0000
  C   C17       1.0  0.13697549121380348  0.4377525521310943  0.7721842937103816  1.0000
  C   C18       1.0  0.36303465205342894  0.06225840854838792  0.2721986867100128  1.0000
  C   C19       1.0  0.8630368868857444  0.5622708532568268  0.22781097976672274  1.0000
  C   C20       1.0  0.6369551730640027  0.937728702591997  0.727805285863795  1.0000
  C   C21       1.0  0.04079782597103342  0.5467746033273005  0.8009153757602833  1.0000
  C   C22       1.0  0.45920380289266666  0.9532357228951087  0.3009264242193979  1.0000
  C   C23       1.0  0.9591954666966769  0.4532459430912258  0.19908221743950352  1.0000
  C   C24       1.0  0.5408010200038832  0.046750517886714214  0.6990740687783017  1.0000
  C   C25       1.0  0.7751550209967701  0.6560067424938653  0.9027290201775955  1.0000
  C   C26       1.0  0.724825674789372  0.8439920847499068  0.40273701454395194  1.0000
  C   C27       1.0  0.22480255927359855  0.3440015968185578  0.09727205262991129  1.0000
  C   C28       1.0  0.2751860753182171  0.1559923260668796  0.5972617386704258  1.0000
  Br  Br1       1.0  0.2484228072210612  0.03283877786867612  0.9037788482999858  1.0000
  Br  Br2       1.0  0.25160358239842395  0.4671742774090574  0.4037755269928454  1.0000
  Br  Br3       1.0  0.7515679223870465  0.967181758576253  0.0962251241495338  1.0000
  Br  Br4       1.0  0.7484214693410252  0.5328176118793593  0.5962261258645967  1.0000
  N   N1        1.0  0.6930327556752899  0.7481606196833184  0.9259746004402416  1.0000
  N   N2        1.0  0.8069477953721959  0.7518293904638116  0.425981101936685  1.0000
  N   N3        1.0  0.3069200794327358  0.2518486296419695  0.0740287920878373  1.0000
  N   N4        1.0  0.19306793770478242  0.24815225059717255  0.5740182312233699  1.0000
