data_image0
_chemical_formula_structural       Al4H28C64O36
_chemical_formula_sum              "Al4 H28 C64 O36"
_cell_length_a       6.646582580987376
_cell_length_b       18.382157569111218
_cell_length_c       17.80558972615197
_cell_angle_alpha    90.00019631931866
_cell_angle_beta     90.00042991128133
_cell_angle_gamma    89.81252676558897

_space_group_name_H-M_alt    "P 1"
_space_group_IT_number       1

loop_
  _space_group_symop_operation_xyz
  'x, y, z'

loop_
  _atom_site_type_symbol
  _atom_site_label
  _atom_site_symmetry_multiplicity
  _atom_site_fract_x
  _atom_site_fract_y
  _atom_site_fract_z
  _atom_site_occupancy
  Al  Al1       1.0  0.24666724736272982  0.7496400938254058  0.7447402693708298  1.0000
  Al  Al2       1.0  0.7533302930272684  0.2503613728326215  0.25525841396314763  1.0000
  Al  Al3       1.0  0.2533273297024153  0.2503562719761305  0.24474191708685566  1.0000
  Al  Al4       1.0  0.7466627490948666  0.7496370361052414  0.7552618208147874  1.0000
  H   H1        1.0  0.75681572571618  0.38768757842814955  0.44840474918908046  1.0000
  H   H2        1.0  0.24317275486741607  0.6123182421442195  0.5515894411688365  1.0000
  H   H3        1.0  0.7431841737178217  0.6123169077961279  0.9484099080823611  1.0000
  H   H4        1.0  0.2568133463112048  0.387687278902142  0.05158709039222489  1.0000
  H   H5        1.0  0.25794200520810046  0.11327048675229895  0.051313098035464584  1.0000
  H   H6        1.0  0.7420721013887288  0.8867288004817132  0.9486900782888908  1.0000
  H   H7        1.0  0.24204718901350472  0.886723064578334  0.5513130445494382  1.0000
  H   H8        1.0  0.7579428938299628  0.1132696994907221  0.44868844686570236  1.0000
  H   H9        1.0  0.48686762954100266  0.42156484323943744  0.33009383234082884  1.0000
  H   H10       1.0  0.5131179682295937  0.5784241137041805  0.669912713653815  1.0000
  H   H11       1.0  0.013158784996413401  0.578427990139538  0.8300690250436203  1.0000
  H   H12       1.0  0.9868627912402701  0.4215783676390715  0.16992011076896318  1.0000
  H   H13       1.0  0.986421361201984  0.07144418183990102  0.17309433790382656  1.0000
  H   H14       1.0  0.013574674765969496  0.9285572851454877  0.826915577855786  1.0000
  H   H15       1.0  0.5135790618309315  0.9285528658858058  0.6730876163179431  1.0000
  H   H16       1.0  0.48642152020234863  0.07144424808943481  0.3269133134981458  1.0000
  H   H17       1.0  0.49745404460227854  0.4568904738437356  0.6222033020799669  1.0000
  H   H18       1.0  0.5025284952215472  0.5431050118124433  0.3777981893294466  1.0000
  H   H19       1.0  0.0025440508482005987  0.5431098381485102  0.1222069678089213  1.0000
  H   H20       1.0  0.9974730321610394  0.4568938005190901  0.8777855377209107  1.0000
  H   H21       1.0  0.0012656785352476  0.046795649892985104  0.8766276063983439  1.0000
  H   H22       1.0  0.9987514290055374  0.9532047247424488  0.12337669317489738  1.0000
  H   H23       1.0  0.49874056086807883  0.9532038696188678  0.3766273656094299  1.0000
  H   H24       1.0  0.5012570527377419  0.0467878048805304  0.6233690712218163  1.0000
  H   H25       1.0  0.5133679668650473  0.7592081495178535  0.6509397777473891  1.0000
  H   H26       1.0  0.4866296467407736  0.24078352498154496  0.3490566590838569  1.0000
  H   H27       1.0  0.9866200308800616  0.2407812114149906  0.150943166293402  1.0000
  H   H28       1.0  0.013379095443717397  0.7592093747657955  0.8490577635091369  1.0000
  C   C1        1.0  0.4916315664720231  0.6494811125135131  0.8378033449039249  1.0000
  C   C2        1.0  0.5083554055641812  0.35052525238555193  0.16219646166670995  1.0000
  C   C3        1.0  0.008370902478297599  0.3505155593630179  0.3378012924921094  1.0000
  C   C4        1.0  0.991625169973176  0.64948101152266  0.662195144345631  1.0000
  C   C5        1.0  0.9911489237857722  0.8503467301228087  0.6618860448034312  1.0000
  C   C6        1.0  0.0088652438204733  0.14964439697839546  0.3381148850210564  1.0000
  C   C7        1.0  0.5088512858705271  0.1496486485795288  0.16188833931268926  1.0000
  C   C8        1.0  0.4911432007206642  0.850358802795441  0.8381131521345253  1.0000
  C   C9        1.0  0.027415225849210897  0.4137564472583862  0.3894981177528578  1.0000
  C   C10       1.0  0.9725657768099154  0.5862433907624907  0.6104955109626713  1.0000
  C   C11       1.0  0.47259277315990994  0.5862436584543644  0.8894976472932328  1.0000
  C   C12       1.0  0.5274198044380967  0.41375889313174957  0.11050047444226149  1.0000
  C   C13       1.0  0.5268607402793393  0.08578597137855581  0.11084866170534717  1.0000
  C   C14       1.0  0.47314884459147066  0.9142144048019037  0.8891561994787762  1.0000
  C   C15       1.0  0.9731354367113595  0.9142086953870247  0.6108459807064861  1.0000
  C   C16       1.0  0.026862156612644104  0.0857856991656121  0.389156633964788  1.0000
  C   C17       1.0  0.7702742792058929  0.4869441171453773  0.5616968942243188  1.0000
  C   C18       1.0  0.22970828904865928  0.5130475604422174  0.4382995425859305  1.0000
  C   C19       1.0  0.7297179275664191  0.513046579869787  0.06169603354856431  1.0000
  C   C20       1.0  0.27029016078247997  0.4869527085818818  0.9382964719610313  1.0000
  C   C21       1.0  0.27110080770161454  0.014065626567017403  0.938023252123827  1.0000
  C   C22       1.0  0.7289117536551047  0.9859391010590884  0.061978239343808576  1.0000
  C   C23       1.0  0.228903646631089  0.985935728336749  0.4380263048237864  1.0000
  C   C24       1.0  0.7710954349528265  0.014060841941493204  0.5619763098534065  1.0000
  C   C25       1.0  0.8015001065595085  0.5406259241210165  0.6157879115931377  1.0000
  C   C26       1.0  0.19846738372552153  0.45937010861248945  0.38420178574710206  1.0000
  C   C27       1.0  0.6984750292103072  0.4593790994632201  0.1157980066771529  1.0000
  C   C28       1.0  0.3015495886979309  0.5406229056372427  0.8841961837244766  1.0000
  C   C29       1.0  0.3034574328271874  0.9608315235067124  0.8834718748013015  1.0000
  C   C30       1.0  0.6965476180998847  0.03917157364416111  0.11653354800267829  1.0000
  C   C31       1.0  0.1965429221772581  0.039168563851127706  0.3834720568883653  1.0000
  C   C32       1.0  0.8034366370070457  0.9608231143541063  0.6165243799176849  1.0000
  C   C33       1.0  0.11292547566961988  0.5766994155050612  0.554094027863691  1.0000
  C   C34       1.0  0.8870720972764445  0.4232976990850404  0.44590521708403935  1.0000
  C   C35       1.0  0.387074261521235  0.42330012693973634  0.054092728100151484  1.0000
  C   C36       1.0  0.6129353232817251  0.5767002492295958  0.9459053936273206  1.0000
  C   C37       1.0  0.6126395806045154  0.9230102169613094  0.9459082509008138  1.0000
  C   C38       1.0  0.38735800466669457  0.07698526562244722  0.05410278809318209  1.0000
  C   C39       1.0  0.8873662825806433  0.07699480378329332  0.4459079760347251  1.0000
  C   C40       1.0  0.11264924724876833  0.9230153633260729  0.5541025013888472  1.0000
  C   C41       1.0  0.08756547033839009  0.5226600767289398  0.4983709463017758  1.0000
  C   C42       1.0  0.9124215382604889  0.47734139208339615  0.5016232440463994  1.0000
  C   C43       1.0  0.4124311962282121  0.4773382152517983  0.9983699234739801  1.0000
  C   C44       1.0  0.5875769328143645  0.5226556331147308  0.0016231436474640995  1.0000
  C   C45       1.0  0.5875255028768223  0.9771121195270215  0.0016009191668686998  1.0000
  C   C46       1.0  0.4124930888268068  0.0228909748379849  0.9984005723063016  1.0000
  C   C47       1.0  0.9124789980586954  0.022883272330261703  0.5015971690932375  1.0000
  C   C48       1.0  0.08750206972953833  0.9771078615575423  0.49839926771395676  1.0000
  C   C49       1.0  0.3423605963246317  0.4502707676548356  0.31885395244876236  1.0000
  C   C50       1.0  0.6576114442528435  0.5497203680858861  0.6811424843458339  1.0000
  C   C51       1.0  0.15765656887151638  0.5497214864697995  0.8188401180881542  1.0000
  C   C52       1.0  0.8423650196450723  0.45028323929503966  0.1811563187995944  1.0000
  C   C53       1.0  0.8365698201622607  0.04652349623219721  0.18304938543302274  1.0000
  C   C54       1.0  0.1634412977592063  0.9534730715847601  0.8169588454748364  1.0000
  C   C55       1.0  0.6634277901939285  0.9534741289973071  0.6830448550653684  1.0000
  C   C56       1.0  0.33656526920329805  0.04652298652852241  0.3169600060899284  1.0000
  C   C57       1.0  0.582421662966965  0.44466541203615145  0.569540161652597  1.0000
  C   C58       1.0  0.4175684768340773  0.5553197359114892  0.43046076812779427  1.0000
  C   C59       1.0  0.9175737392732444  0.5553215022007196  0.0695388514596971  1.0000
  C   C60       1.0  0.0824358373299177  0.4446799619756233  0.9304530924344332  1.0000
  C   C61       1.0  0.08318097138551649  0.056791932007776304  0.9304170267455373  1.0000
  C   C62       1.0  0.9168315818618709  0.9432138836401763  0.06958727283093677  1.0000
  C   C63       1.0  0.41682781489297577  0.9432132049072595  0.4304170835955574  1.0000
  C   C64       1.0  0.5831787567822388  0.056787715890166617  0.56958216137145  1.0000
  O   O1        1.0  0.6643721574891686  0.8237805413503382  0.825110688704086  1.0000
  O   O2        1.0  0.3356434292017028  0.1762220096218527  0.17488967952115786  1.0000
  O   O3        1.0  0.8356358034265767  0.17622190353981892  0.3251156742491616  1.0000
  O   O4        1.0  0.1643542835196214  0.8237703165261936  0.6748891868933455  1.0000
  O   O5        1.0  0.16392660881227533  0.6767735193724038  0.6742278984897467  1.0000
  O   O6        1.0  0.8360454236897893  0.32321870439572825  0.3257747161420212  1.0000
  O   O7        1.0  0.33605747248182627  0.3232291435365938  0.1742294728001355  1.0000
  O   O8        1.0  0.6639565568416825  0.6767804798665013  0.8257770732706787  1.0000
  O   O9        1.0  0.3256431476348141  0.6732942633242374  0.8115046721358964  1.0000
  O   O10       1.0  0.6743648879157718  0.3267120972550687  0.18849738094969123  1.0000
  O   O11       1.0  0.1743602516482312  0.32670830550450364  0.31150917696267294  1.0000
  O   O12       1.0  0.8256222678485513  0.6732899001974957  0.6884939993156749  1.0000
  O   O13       1.0  0.8244231453873071  0.8255660779222965  0.6862792316424589  1.0000
  O   O14       1.0  0.17557143076276557  0.17442940527075027  0.31372675275485307  1.0000
  O   O15       1.0  0.67558202022245  0.17443590851357277  0.18628432563215105  1.0000
  O   O16       1.0  0.32443051678930607  0.8255720831752954  0.8137239052978555  1.0000
  O   O17       1.0  0.5017742199526721  0.7502034808681233  0.7043499395829116  1.0000
  O   O18       1.0  0.4982203357798838  0.24979472235590097  0.29564874374113964  1.0000
  O   O19       1.0  0.9982208021132452  0.24979530334241676  0.20434946096050055  1.0000
  O   O20       1.0  0.0017722327976698996  0.7502050762229969  0.795648099122495  1.0000
  O   O21       1.0  0.301117759165919  0.474404243054984  0.25673973529572436  1.0000
  O   O22       1.0  0.6988647480905286  0.5255955946672657  0.7432600712571682  1.0000
  O   O23       1.0  0.1989041491115842  0.5255910687692307  0.756725369291473  1.0000
  O   O24       1.0  0.801109953365561  0.47440876246503205  0.2432727524413494  1.0000
  O   O25       1.0  0.7864200952355702  0.024765965620396502  0.24515000028002015  1.0000
  O   O26       1.0  0.2135639084636338  0.9752349598176696  0.7548542992479736  1.0000
  O   O27       1.0  0.7135711573411709  0.9752432904006484  0.7451428786368692  1.0000
  O   O28       1.0  0.2864248093497181  0.0247674247134313  0.2548563663326178  1.0000
  O   O29       1.0  0.5128606998767039  0.4006035623120853  0.5247130525254561  1.0000
  O   O30       1.0  0.4871414762732016  0.5993815831761327  0.47529461672837664  1.0000
  O   O31       1.0  0.9871699655832556  0.599375580360665  0.024710407250310595  1.0000
  O   O32       1.0  0.012851675844729  0.40062207329507526  0.9752877144891912  1.0000
  O   O33       1.0  0.0104849537019831  0.09889681127890533  0.9766990948388852  1.0000
  O   O34       1.0  0.9895246148879622  0.9011057409350446  0.023305204727662992  1.0000
  O   O35       1.0  0.4895232639843883  0.9011079347717516  0.4766997676579265  1.0000
  O   O36       1.0  0.5104818112650377  0.09889189831265102  0.5232966691981317  1.0000
