data_image0
_chemical_formula_structural       Cu2Sb2H16C16N8F12
_chemical_formula_sum              "Cu2 Sb2 H16 C16 N8 F12"
_cell_length_a       7.99198722656455
_cell_length_b       8.353466142370918
_cell_length_c       10.74339523923012
_cell_angle_alpha    88.37955537198383
_cell_angle_beta     84.36832206061395
_cell_angle_gamma    65.29493233186632

_space_group_name_H-M_alt    "P 1"
_space_group_IT_number       1

loop_
  _space_group_symop_operation_xyz
  'x, y, z'

loop_
  _atom_site_type_symbol
  _atom_site_label
  _atom_site_symmetry_multiplicity
  _atom_site_fract_x
  _atom_site_fract_y
  _atom_site_fract_z
  _atom_site_occupancy
  Cu  Cu1       1.0  0.7286489907700042  0.5792887193314868  0.26667077679299206  1.0000
  Cu  Cu2       1.0  0.2713397888003898  0.42071579512037255  0.7333223149148081  1.0000
  Sb  Sb1       1.0  0.5724833234016984  0.17818254902922354  0.21182146303403465  1.0000
  Sb  Sb2       1.0  0.42753528249794936  0.8218171391497221  0.7881742870418049  1.0000
  H   H1        1.0  0.4020314194041246  0.6808827919597105  0.11653060834377978  1.0000
  H   H2        1.0  0.5979546276565912  0.3191081840976223  0.8834749359257897  1.0000
  H   H3        1.0  0.07672754620437426  0.917890381171233  0.14367221539258418  1.0000
  H   H4        1.0  0.923268110293968  0.0821154406940678  0.856329695780438  1.0000
  H   H5        1.0  0.16805571131833827  0.0398118266622376  0.4962004866281473  1.0000
  H   H6        1.0  0.8319433101083932  0.9601727810854255  0.5038023789833516  1.0000
  H   H7        1.0  0.49201507753598855  0.8072370796821744  0.46888504956875454  1.0000
  H   H8        1.0  0.5079669495230662  0.1927379338867539  0.5311172401300579  1.0000
  H   H9        1.0  0.8068991066752956  0.3413981975843328  0.4874042609055208  1.0000
  H   H10       1.0  0.1930903128607682  0.6586073693982613  0.5126064607968955  1.0000
  H   H11       1.0  0.9845398192277557  0.7162897741714004  0.34064817276428977  1.0000
  H   H12       1.0  0.01543888293041821  0.2837088235941039  0.6593708179521298  1.0000
  H   H13       1.0  0.7469953117309627  0.7884555669629661  0.044603204068998516  1.0000
  H   H14       1.0  0.2530176163969883  0.21154014832211487  0.9553855377955001  1.0000
  H   H15       1.0  0.024225656125118202  0.26187094374002834  0.14320137154030013  1.0000
  H   H16       1.0  0.9758081410874767  0.7381421545340601  0.8568034106283873  1.0000
  C   C1        1.0  0.3490369398962655  0.7615556233359727  0.20137271691218211  1.0000
  C   C2        1.0  0.6509423200123621  0.2384391956502938  0.7986341794171635  1.0000
  C   C3        1.0  0.169050159919962  0.8926881504453661  0.21730909219027686  1.0000
  C   C4        1.0  0.8309280446769876  0.1073174469313685  0.7826875074181103  1.0000
  C   C5        1.0  0.21853769940873502  0.9618574573990057  0.40993304789081714  1.0000
  C   C6        1.0  0.7814460856234219  0.038146643496830286  0.5900799412606189  1.0000
  C   C7        1.0  0.3986970240856704  0.8317583241140555  0.396158992365848  1.0000
  C   C8        1.0  0.6012883357812483  0.16822892549323137  0.6038298882213055  1.0000
  C   C9        1.0  0.8928817399439449  0.4126863970898498  0.49346536514673284  1.0000
  C   C10       1.0  0.10710887550808215  0.587316367684153  0.5065555476052876  1.0000
  C   C11       1.0  0.9916912369890125  0.6192598989362849  0.412044225561523  1.0000
  C   C12       1.0  0.008299932613162793  0.3807389351382894  0.5879739036875619  1.0000
  C   C13       1.0  0.861155444624643  0.6598623003226436  0.025541134154408972  1.0000
  C   C14       1.0  0.13886736408234404  0.34012830174712855  0.9744460578953776  1.0000
  C   C15       1.0  0.012869651184530529  0.36801767523844825  0.07863910612312708  1.0000
  C   C16       1.0  0.9871546360871265  0.631986137754559  0.9213543412799152  1.0000
  N   N1        1.0  0.4649800839277418  0.7315107240989176  0.29111577743175576  1.0000
  N   N2        1.0  0.5350066142595863  0.2684817754417422  0.7088785330915852  1.0000
  N   N3        1.0  0.10251595183278557  0.9941995729219638  0.3209208378319416  1.0000
  N   N4        1.0  0.8974735196118078  0.005808865476190309  0.6790768134088905  1.0000
  N   N5        1.0  0.8828498327216886  0.532758712251578  0.4042868981475819  1.0000
  N   N6        1.0  0.11713935175382768  0.4672335307105229  0.5957258618505816  1.0000
  N   N7        1.0  0.8732109689401355  0.5281903386676204  0.10555437789280116  1.0000
  N   N8        1.0  0.12681954881324486  0.4718134557517501  0.8944470185723004  1.0000
  F   F1        1.0  0.6812374130071179  0.30693538636469947  0.2966121871872857  1.0000
  F   F2        1.0  0.3187931151871479  0.6930688486232199  0.7033622077138018  1.0000
  F   F3        1.0  0.36995095990479854  0.2562331803804127  0.34091219332734807  1.0000
  F   F4        1.0  0.6300772182715234  0.7438145910742264  0.6590785953396077  1.0000
  F   F5        1.0  0.7007171256505271  0.9711589785762698  0.3070350902210918  1.0000
  F   F6        1.0  0.29925368825588083  0.028851627357397498  0.6929721977926845  1.0000
  F   F7        1.0  0.7797922955057642  0.10079322368828506  0.0862634843719903  1.0000
  F   F8        1.0  0.2202354854312532  0.8991613640218358  0.9137377618647802  1.0000
  F   F9        1.0  0.4459554006352348  0.3815665425688478  0.11411581759958977  1.0000
  F   F10       1.0  0.5540903661137974  0.6184182904230228  0.8858428672310764  1.0000
  F   F11       1.0  0.4616393254356481  0.051401537158092495  0.13019864341202236  1.0000
  F   F12       1.0  0.5383200402575737  0.9486313371198135  0.8698156812124648  1.0000
