data_image0
_chemical_formula_structural       Al2H18C30O18
_chemical_formula_sum              "Al2 H18 C30 O18"
_cell_length_a       3.9306173350121147
_cell_length_b       17.18748319518523
_cell_length_c       17.187565920394015
_cell_angle_alpha    120.00049132763309
_cell_angle_beta     89.99974578498914
_cell_angle_gamma    90.00002798151145

_space_group_name_H-M_alt    "P 1"
_space_group_IT_number       1

loop_
  _space_group_symop_operation_xyz
  'x, y, z'

loop_
  _atom_site_type_symbol
  _atom_site_label
  _atom_site_symmetry_multiplicity
  _atom_site_fract_x
  _atom_site_fract_y
  _atom_site_fract_z
  _atom_site_occupancy
  Al  Al1       1.0  0.017026199531393598  0.4999987158330441  0.49999912053747403  1.0000
  Al  Al2       1.0  0.9827259115948337  0.1666663051262913  0.8333332458848302  1.0000
  H   H1        1.0  0.2585499268264968  0.11007005871807962  0.5246113675613486  1.0000
  H   H2        1.0  0.71107422451945  0.10807838369892411  0.5284039153733531  1.0000
  H   H3        1.0  0.7415156394334159  0.19116184383327803  0.4434314791491615  1.0000
  H   H4        1.0  0.28895316443465197  0.19490654885763076  0.44145712247250657  1.0000
  H   H5        1.0  0.25854989439122983  0.9145422249186765  0.8899310219879268  1.0000
  H   H6        1.0  0.7110793062952466  0.9203267414901573  0.8919215692287421  1.0000
  H   H7        1.0  0.7415229641509599  0.7522699788584504  0.8088380611406903  1.0000
  H   H8        1.0  0.28895540709032014  0.7465498828747669  0.8050946556042289  1.0000
  H   H9        1.0  0.2585570706035512  0.4753918351699298  0.08545796589638129  1.0000
  H   H10       1.0  0.7110814575899838  0.47159586885285165  0.07967324688469542  1.0000
  H   H11       1.0  0.7415230059064158  0.5565688104417035  0.2477294674889094  1.0000
  H   H12       1.0  0.2889579114018304  0.5585456466318844  0.2534505332870721  1.0000
  H   H13       1.0  0.3873934029685345  0.54232418321871  0.7251055978278698  1.0000
  H   H14       1.0  0.612371723794837  0.39183613168124515  0.8757165014843125  1.0000
  H   H15       1.0  0.38739102325768476  0.6827835997623595  0.45767720122956485  1.0000
  H   H16       1.0  0.6123622220877536  0.9838772829268975  0.608161433854704  1.0000
  H   H17       1.0  0.3873919027680656  0.27489448457077253  0.3172155586062572  1.0000
  H   H18       1.0  0.6123592661212243  0.12428407954582348  0.01611875218524969  1.0000
  C   C1        1.0  0.5165749244757691  0.42906116390197707  0.36147026049729897  1.0000
  C   C2        1.0  0.5165780190500797  0.432412443627335  0.5709378832639586  1.0000
  C   C3        1.0  0.5165859157638693  0.6385287998594434  0.5675908786324368  1.0000
  C   C4        1.0  0.4832147692323545  0.2376407152464636  0.7658276222646164  1.0000
  C   C5        1.0  0.4831891248077724  0.028186127539214515  0.7623624142304662  1.0000
  C   C6        1.0  0.4832178893265393  0.2341717209048467  0.971812604876767  1.0000
  C   C7        1.0  0.4953024618859417  0.2865157674123464  0.7157323734062472  1.0000
  C   C8        1.0  0.5046913226909666  0.38231269021947156  0.6198339639723044  1.0000
  C   C9        1.0  0.48877761333233855  0.2421983795780206  0.6219918680634108  1.0000
  C   C10       1.0  0.4876931406511459  0.4289666582213058  0.7146997557164596  1.0000
  C   C11       1.0  0.5112224198738601  0.28860686831391996  0.5755698416330333  1.0000
  C   C12       1.0  0.5126251033415058  0.3813627137839859  0.7623032187932209  1.0000
  C   C13       1.0  0.48931004138174927  0.15068531820137568  0.5372443483303043  1.0000
  C   C14       1.0  0.5108110479236673  0.20381173017690912  0.4840567550576793  1.0000
  C   C15       1.0  0.4953032079942474  0.9292236980112774  0.7134863702030642  1.0000
  C   C16       1.0  0.5046866554621373  0.7375134330119053  0.6176820041226776  1.0000
  C   C17       1.0  0.4887795813047973  0.8797820701845678  0.7578017038693331  1.0000
  C   C18       1.0  0.48768982459598925  0.7857423528893717  0.571040766150112  1.0000
  C   C19       1.0  0.5112216865241449  0.786972243160079  0.7114023063379731  1.0000
  C   C20       1.0  0.51261686011442  0.8809301513817188  0.6186357027233454  1.0000
  C   C21       1.0  0.48931043939295177  0.8865585753556857  0.8493130889387075  1.0000
  C   C22       1.0  0.5108138096915198  0.7802456521733702  0.7961879799434894  1.0000
  C   C23       1.0  0.49530097717214255  0.2842683099445793  0.07077962454737727  1.0000
  C   C24       1.0  0.5046845514390909  0.3801658629147582  0.2624807084795576  1.0000
  C   C25       1.0  0.48877746316775017  0.37801177125376023  0.12020873218186513  1.0000
  C   C26       1.0  0.48769011840261806  0.2853019255293105  0.21426168803024123  1.0000
  C   C27       1.0  0.5112183977609205  0.424431961751921  0.21303218721640596  1.0000
  C   C28       1.0  0.5126183545907922  0.2377003440142573  0.11906232817625546  1.0000
  C   C29       1.0  0.4893144346081825  0.4627567007491393  0.11344114670470866  1.0000
  C   C30       1.0  0.5108164643715227  0.5159435302142653  0.21975347095283118  1.0000
  O   O1        1.0  0.7533296778212062  0.5997398889488393  0.5860795363940879  1.0000
  O   O2        1.0  0.7533262336595072  0.4863398765925524  0.4002594845420049  1.0000
  O   O3        1.0  0.7533276147649132  0.41391752286738626  0.5136586441661705  1.0000
  O   O4        1.0  0.2879404291846939  0.5967844584857501  0.5069779633087989  1.0000
  O   O5        1.0  0.2879446106091024  0.4930188592629392  0.5898052297357879  1.0000
  O   O6        1.0  0.2879386641572808  0.4101923613997158  0.40321272027742333  1.0000
  O   O7        1.0  0.7117497508911583  0.1735215216058916  0.9300467600237708  1.0000
  O   O8        1.0  0.7117559203562962  0.25652634023038695  0.8264789342700496  1.0000
  O   O9        1.0  0.7117565015230909  0.06995203786070886  0.7434726485711066  1.0000
  O   O10       1.0  0.24642850341009387  0.25268769499043503  0.9330497317114564  1.0000
  O   O11       1.0  0.246437007886307  0.06694868581001844  0.8196343076493092  1.0000
  O   O12       1.0  0.24643528128986963  0.18036499870241576  0.7473129534167524  1.0000
  O   O13       1.0  0.4665434179280651  0.5201896160871939  0.7646188082220958  1.0000
  O   O14       1.0  0.5337787276881231  0.4313377867116229  0.8535185927541987  1.0000
  O   O15       1.0  0.46653366604591173  0.7444246239025033  0.4798081418237884  1.0000
  O   O16       1.0  0.5337718209608012  0.9221840207739334  0.5686654005396719  1.0000
  O   O17       1.0  0.46654031861757517  0.23538285797687306  0.25557286625368647  1.0000
  O   O18       1.0  0.5337679946003037  0.1464834948993001  0.07781790453230998  1.0000
