data_image0
_chemical_formula_structural       Cd8H32C56N8O36
_chemical_formula_sum              "Cd8 H32 C56 N8 O36"
_cell_length_a       7.090057737001792
_cell_length_b       14.093562271128512
_cell_length_c       14.854073147941403
_cell_angle_alpha    90.99289601111731
_cell_angle_beta     90.00007831869198
_cell_angle_gamma    89.99997679789088

_space_group_name_H-M_alt    "P 1"
_space_group_IT_number       1

loop_
  _space_group_symop_operation_xyz
  'x, y, z'

loop_
  _atom_site_type_symbol
  _atom_site_label
  _atom_site_symmetry_multiplicity
  _atom_site_fract_x
  _atom_site_fract_y
  _atom_site_fract_z
  _atom_site_occupancy
  Cd  Cd1       1.0  0.3643202434465422  0.3267993084445493  0.24667268740258666  1.0000
  Cd  Cd2       1.0  0.864319778417581  0.1731994161115793  0.7533275024358802  1.0000
  Cd  Cd3       1.0  0.6356810995619071  0.6732000061714276  0.7533278552189844  1.0000
  Cd  Cd4       1.0  0.1356787437384099  0.8267999007474245  0.24667236700899056  1.0000
  Cd  Cd5       1.0  0.3874982297844412  0.9525257031145669  0.7459268010065545  1.0000
  Cd  Cd6       1.0  0.8874978506878862  0.5474741579988915  0.2540729119614582  1.0000
  Cd  Cd7       1.0  0.6125017027963294  0.047473615987058806  0.25407239526299463  1.0000
  Cd  Cd8       1.0  0.11250067146757202  0.45252657815377273  0.7459269850735879  1.0000
  H   H1        1.0  0.20349968876477217  0.37481701818156676  0.5547327899654635  1.0000
  H   H2        1.0  0.7035026138318231  0.12518528305098195  0.445268037342494  1.0000
  H   H3        1.0  0.7964988333911122  0.6251851350219938  0.4452678078355348  1.0000
  H   H4        1.0  0.29650155002663325  0.8748154531011353  0.5547318596943853  1.0000
  H   H5        1.0  0.5163757971820928  0.4130571151443974  0.5332930038752295  1.0000
  H   H6        1.0  0.0163770848268072  0.086941678043857  0.4667062863007488  1.0000
  H   H7        1.0  0.48362413539991417  0.5869414920676448  0.46670685177500815  1.0000
  H   H8        1.0  0.983624258181372  0.9130583462189534  0.5332942701159098  1.0000
  H   H9        1.0  0.6883548493106701  0.4324026584693641  0.6779191690098474  1.0000
  H   H10       1.0  0.18835856030705136  0.06759823084468762  0.3220802744984042  1.0000
  H   H11       1.0  0.3116408519945111  0.5675973657939865  0.3220813874049712  1.0000
  H   H12       1.0  0.8116427827011279  0.9324017934181227  0.6779202819182546  1.0000
  H   H13       1.0  0.22849558610550957  0.9019607392490985  0.9366012773156103  1.0000
  H   H14       1.0  0.7284946214059858  0.5980377329092548  0.06339830456253992  1.0000
  H   H15       1.0  0.7715043464755311  0.098037870205701  0.06339790515885113  1.0000
  H   H16       1.0  0.2715053111767105  0.4019615817068569  0.936602238058569  1.0000
  H   H17       1.0  0.3853662864645955  0.23983335037667797  0.9784506079869291  1.0000
  H   H18       1.0  0.8853664814782434  0.2601653679209406  0.021550268727025906  1.0000
  H   H19       1.0  0.6146350565453531  0.7601645427028884  0.021550580220257104  1.0000
  H   H20       1.0  0.11463063025269091  0.7398346563422679  0.9784502876882615  1.0000
  H   H21       1.0  0.40907677376436163  0.15652626357965727  0.82885082628345  1.0000
  H   H22       1.0  0.9090745078866076  0.34347245243687047  0.17114939268776652  1.0000
  H   H23       1.0  0.5909245692433984  0.8434723436322499  0.17114902936724974  1.0000
  H   H24       1.0  0.0909240142703425  0.6565268621793762  0.8288511499328878  1.0000
  H   H25       1.0  0.21696366673247516  0.7781489755715187  0.7065958085534592  1.0000
  H   H26       1.0  0.7169646693438095  0.7218516254847245  0.2934044803799055  1.0000
  H   H27       1.0  0.7830348554229757  0.2218517605811456  0.29340408848158017  1.0000
  H   H28       1.0  0.2830366736638438  0.2781498180717393  0.7065961036269216  1.0000
  H   H29       1.0  0.0552711182509427  0.8253708632000425  0.7689099804842172  1.0000
  H   H30       1.0  0.5552719810553839  0.674629056818368  0.23109086257937153  1.0000
  H   H31       1.0  0.9447274039050484  0.17462845365896126  0.23108988896065347  1.0000
  H   H32       1.0  0.4447293619534989  0.3253716748485047  0.7689103808081585  1.0000
  C   C1        1.0  0.05167298451524971  0.38304735282124364  0.5472732358176486  1.0000
  C   C2        1.0  0.5516745271247032  0.11695426773390949  0.4527274788663079  1.0000
  C   C3        1.0  0.9483269480663806  0.6169548003821818  0.4527273619838113  1.0000
  C   C4        1.0  0.4483268158822468  0.8830464684184848  0.5472724181696549  1.0000
  C   C5        1.0  0.9673663982290178  0.3735807611981202  0.4628919825683441  1.0000
  C   C6        1.0  0.4673692654794479  0.1264207733122547  0.5371110222304625  1.0000
  C   C7        1.0  0.03263071350399831  0.626421385277304  0.5371106347595501  1.0000
  C   C8        1.0  0.5326348983818932  0.8735799561115983  0.4628908943337678  1.0000
  C   C9        1.0  0.7717643092847337  0.3862377429271647  0.4561977436731085  1.0000
  C   C10       1.0  0.2717657954676937  0.11376313047215092  0.5438017541280901  1.0000
  C   C11       1.0  0.22823421287071707  0.6137629932254924  0.5438021533619377  1.0000
  C   C12       1.0  0.7282369579650093  0.8862376056801013  0.4561981429083347  1.0000
  C   C13       1.0  0.6687003734599202  0.40421783691401464  0.5347961935668054  1.0000
  C   C14       1.0  0.1687016496597735  0.09578021756312441  0.46520318196662913  1.0000
  C   C15       1.0  0.3312995591223569  0.5957800606512011  0.4652036482883518  1.0000
  C   C16       1.0  0.8313011037731927  0.9042198089423013  0.5347967012747007  1.0000
  C   C17       1.0  0.7636912492407292  0.4144667961313005  0.6160806931631984  1.0000
  C   C18       1.0  0.26369512238044723  0.08553336691858963  0.3839194587644813  1.0000
  C   C19       1.0  0.23630445206472217  0.5855325184852164  0.38391984945653956  1.0000
  C   C20       1.0  0.7363062206274691  0.9144673669910476  0.6160811114472652  1.0000
  C   C21       1.0  0.0844482301245364  0.35744537894606765  0.38042103146467815  1.0000
  C   C22       1.0  0.58444881823727  0.14255694724507606  0.6195790451726426  1.0000
  C   C23       1.0  0.9155531128825772  0.6425574839040495  0.6195795801323243  1.0000
  C   C24       1.0  0.4155553456202199  0.8574437911497981  0.38042017868845335  1.0000
  C   C25       1.0  0.6726352290710764  0.38518853060391933  0.36681888701284043  1.0000
  C   C26       1.0  0.17263555930554728  0.11481307135666444  0.6331805600570279  1.0000
  C   C27       1.0  0.3273647035098576  0.6148129151954367  0.6331810238177482  1.0000
  C   C28       1.0  0.8273671941271558  0.8851876647955949  0.3668193369793898  1.0000
  C   C29       1.0  0.2597280394293264  0.9770070716486573  0.947716799676549  1.0000
  C   C30       1.0  0.7597256932646343  0.5229913945505161  0.05228280253127341  1.0000
  C   C31       1.0  0.7402718931529435  0.022990825916551196  0.05228304217860821  1.0000
  C   C32       1.0  0.2402728288923157  0.4770079200657307  0.947717740089381  1.0000
  C   C33       1.0  0.24375969235464368  0.017383322828031605  0.033830664847855005  1.0000
  C   C34       1.0  0.7437595850222676  0.4826161343784463  0.9661694603094021  1.0000
  C   C35       1.0  0.7562388298013474  0.9826159940309794  0.9661692045970087  1.0000
  C   C36       1.0  0.25623893713537876  0.5173838876418699  0.03383176928212352  1.0000
  C   C37       1.0  0.28976916921445917  0.11352322137518911  0.04598771743573592  1.0000
  C   C38       1.0  0.7897705153572757  0.3864762292950702  0.9540117644951283  1.0000
  C   C39       1.0  0.710229352941802  0.8864753858369883  0.9540121382140472  1.0000
  C   C40       1.0  0.21022941722323907  0.6135237994533825  0.04598744556950152  1.0000
  C   C41       1.0  0.3465683147685894  0.16531128288123403  0.9712290771413308  1.0000
  C   C42       1.0  0.8465698805457436  0.3346874473046172  0.02877042796676221  1.0000
  C   C43       1.0  0.6534330282403927  0.8346866124410894  0.028771437890071604  1.0000
  C   C44       1.0  0.1534286416102475  0.6653118695543868  0.9712294414781086  1.0000
  C   C45       1.0  0.35948771426348713  0.11969403109059581  0.8880372020658458  1.0000
  C   C46       1.0  0.8594866599377866  0.38030540179173045  0.11196367159765692  1.0000
  C   C47       1.0  0.6405136287464614  0.8803038619889706  0.11196398614133332  1.0000
  C   C48       1.0  0.14051186221985998  0.6196946202285859  0.8880375579938617  1.0000
  C   C49       1.0  0.19350031318933247  0.9575523058422917  0.11246173071089063  1.0000
  C   C50       1.0  0.6934989269121985  0.5424454655893101  0.8875371414168002  1.0000
  C   C51       1.0  0.8064982089662321  0.04244559396581591  0.887537437968021  1.0000
  C   C52       1.0  0.30649959524379267  0.45755385126970083  0.11246272802806352  1.0000
  C   C53       1.0  0.2819202566330148  0.1651226153055916  0.13531446450991783  1.0000
  C   C54       1.0  0.7819242101956335  0.33487683461927287  0.8646856854884961  1.0000
  C   C55       1.0  0.718076855097223  0.8348767015535472  0.8646854049344912  1.0000
  C   C56       1.0  0.2180771328128159  0.6651224799967042  0.13531485713307495  1.0000
  N   N1        1.0  0.31856423238286175  0.0266517881253137  0.8765651151979557  1.0000
  N   N2        1.0  0.8185617251306284  0.47334694291872387  0.12343571803169343  1.0000
  N   N3        1.0  0.6814371106261206  0.9733461071970028  0.12343539983344703  1.0000
  N   N4        1.0  0.18143679702605198  0.5266530813443494  0.8765648383840415  1.0000
  N   N5        1.0  0.9529859110828625  0.40590822036492824  0.621730997270575  1.0000
  N   N6        1.0  0.45298976115612527  0.094093328103007  0.3782686322889434  1.0000
  N   N7        1.0  0.047011200646579696  0.5940932254346976  0.3782689135590971  1.0000
  N   N8        1.0  0.5470115818498655  0.9059074102921373  0.6217305915712288  1.0000
  O   O1        1.0  0.6314860401102322  0.3044095977550683  0.33154318051978754  1.0000
  O   O2        1.0  0.1314849953381341  0.1955927217039459  0.6684562535595122  1.0000
  O   O3        1.0  0.3685167133219309  0.6955925576908445  0.6684567441068057  1.0000
  O   O4        1.0  0.868516347668816  0.8044080144484482  0.33154364347645077  1.0000
  O   O5        1.0  0.6244959110115859  0.46406416427281294  0.3353933625136564  1.0000
  O   O6        1.0  0.12449357397851199  0.0359388661669016  0.6646060808102235  1.0000
  O   O7        1.0  0.37550543199483133  0.5359379911732346  0.6646065621124749  1.0000
  O   O8        1.0  0.8755077690281753  0.964062579632319  0.3353938300208199  1.0000
  O   O9        1.0  0.016129910188482196  0.38038802669623806  0.30467876226754953  1.0000
  O   O10       1.0  0.5161279123826573  0.11961218359014941  0.6953212285132581  1.0000
  O   O11       1.0  0.9838728432451875  0.6196127072132641  0.6953218079446517  1.0000
  O   O12       1.0  0.4838720201981133  0.8803871355114837  0.3046779677562839  1.0000
  O   O13       1.0  0.24876003708323677  0.322448741988147  0.390082095638988  1.0000
  O   O14       1.0  0.7487619797096698  0.17755284544728767  0.6099174009832852  1.0000
  O   O15       1.0  0.751238485070992  0.6775527060541011  0.6099171420153555  1.0000
  O   O16       1.0  0.2512421841478272  0.8224478929475938  0.39008182287781074  1.0000
  O   O17       1.0  0.1291471878286288  0.2041633732868533  0.15837036811531394  1.0000
  O   O18       1.0  0.6291525175364326  0.2958361102732638  0.841628336087503  1.0000
  O   O19       1.0  0.8708485134748969  0.7958359458151779  0.8416288281528568  1.0000
  O   O20       1.0  0.3708488254714836  0.7041646236363732  0.15837223412424353  1.0000
  O   O21       1.0  0.43915880485638326  0.1773606009818494  0.17683557361639402  1.0000
  O   O22       1.0  0.9391640601325193  0.32264094788147446  0.8231647201189036  1.0000
  O   O23       1.0  0.5608368964475758  0.8226401351710779  0.8231643234177357  1.0000
  O   O24       1.0  0.0608386933021094  0.6773597837852707  0.17683652326908836  1.0000
  O   O25       1.0  0.2296214153532077  0.9901883653323368  0.19081328556848123  1.0000
  O   O26       1.0  0.7296198316540482  0.5098101088540261  0.8091856238665189  1.0000
  O   O27       1.0  0.7703785172281029  0.009809534475635904  0.8091858831108851  1.0000
  O   O28       1.0  0.27037728007645967  0.49018849835828604  0.19081423178280943  1.0000
  O   O29       1.0  0.12183377225861139  0.8755974383207317  0.09784176132881582  1.0000
  O   O30       1.0  0.6218337718685376  0.6244003467850661  0.9021570641494707  1.0000
  O   O31       1.0  0.8781633394712003  0.1244004614875109  0.9021574073496411  1.0000
  O   O32       1.0  0.37816475028649427  0.3755989723166948  0.09784213211961662  1.0000
  O   O33       1.0  0.1567793917975635  0.8390503343127449  0.72540859555118  1.0000
  O   O34       1.0  0.6567818003620117  0.660950280469578  0.2745909810311532  1.0000
  O   O35       1.0  0.8432177199311752  0.1609504040828114  0.2745906283076209  1.0000
  O   O36       1.0  0.3432195426446753  0.3390511653296429  0.7254089297998974  1.0000
