data_image0
_chemical_formula_structural       Sm2H12C12N18
_chemical_formula_sum              "Sm2 H12 C12 N18"
_cell_length_a       8.649803282187355
_cell_length_b       8.649540584699439
_cell_length_c       9.355387230024656
_cell_angle_alpha    62.46036379027902
_cell_angle_beta     62.464364264679936
_cell_angle_gamma    59.99684930967073

_space_group_name_H-M_alt    "P 1"
_space_group_IT_number       1

loop_
  _space_group_symop_operation_xyz
  'x, y, z'

loop_
  _atom_site_type_symbol
  _atom_site_label
  _atom_site_symmetry_multiplicity
  _atom_site_fract_x
  _atom_site_fract_y
  _atom_site_fract_z
  _atom_site_occupancy
  Sm  Sm1       1.0  0.8068450598282413  0.8068394873265772  0.5794652902455657  1.0000
  Sm  Sm2       1.0  0.19315437605632024  0.1931602868239039  0.420534523773668  1.0000
  H   H1        1.0  0.3238790873277253  0.7744648744012606  0.7954039533765638  1.0000
  H   H2        1.0  0.7746070168580989  0.10611267425815638  0.7953668652495054  1.0000
  H   H3        1.0  0.10620914237152594  0.32390977273190896  0.7953572378831241  1.0000
  H   H4        1.0  0.6761198380568844  0.22553629973052125  0.20459548162006774  1.0000
  H   H5        1.0  0.22539316760315145  0.8938870990365826  0.20463350450665277  1.0000
  H   H6        1.0  0.8937908040129803  0.6760886014372713  0.20464295515871805  1.0000
  H   H7        1.0  0.14900959386277918  0.5128082353146793  0.9637471465919561  1.0000
  H   H8        1.0  0.5128642726786482  0.37430066397102724  0.9637032058209414  1.0000
  H   H9        1.0  0.3744648046265059  0.14915752464207796  0.9635930724301005  1.0000
  H   H10       1.0  0.8509916577029202  0.4871915395739491  0.03625215290485771  1.0000
  H   H11       1.0  0.48713740893596486  0.6256991076122274  0.03629827540907388  1.0000
  H   H12       1.0  0.6255346312580559  0.8508422495084033  0.03640674158913284  1.0000
  C   C1        1.0  0.13031873792622425  0.6361827489990757  0.8550985640275928  1.0000
  C   C2        1.0  0.6362291613722634  0.3782950787657667  0.8550653362213155  1.0000
  C   C3        1.0  0.3784431929270512  0.13046886842457175  0.8549628057474904  1.0000
  C   C4        1.0  0.8696799493816484  0.36381702600714755  0.14490069425471572  1.0000
  C   C5        1.0  0.3637728387701173  0.6217046952671195  0.14493451901243057  1.0000
  C   C6        1.0  0.6215562429575102  0.8695309057259094  0.14503700827174287  1.0000
  C   C7        1.0  0.21696110295648902  0.7665721555170459  0.7719981794534194  1.0000
  C   C8        1.0  0.7666605305110324  0.24436528973904356  0.7719776027399375  1.0000
  C   C9        1.0  0.24444582631015538  0.21704360327686345  0.7719242145569255  1.0000
  C   C10       1.0  0.7830381409558956  0.2334290210643601  0.2279996295469431  1.0000
  C   C11       1.0  0.23334064060362902  0.7556358818255119  0.2280234994674758  1.0000
  C   C12       1.0  0.7555530529699015  0.7829547692984347  0.228077048744254  1.0000
  N   N1        1.0  0.01912245204206895  0.8452663267687438  0.6485562524361798  1.0000
  N   N2        1.0  0.8452742141427765  0.487004078295655  0.6485684609387193  1.0000
  N   N3        1.0  0.4870438914120643  0.019144245212089593  0.6485310178317151  1.0000
  N   N4        1.0  0.9808777324191738  0.15473344652599505  0.35144411731998554  1.0000
  N   N5        1.0  0.1547265269229714  0.5129970965742742  0.3514304595354929  1.0000
  N   N6        1.0  0.5129555444724901  0.9808555289383915  0.3514687961875184  1.0000
  N   N7        1.0  0.007137895418303494  0.6891920279413809  0.7752819368014557  1.0000
  N   N8        1.0  0.6891817224206208  0.528312385153029  0.7752592803629099  1.0000
  N   N9        1.0  0.5284296950669544  0.0072684688062735975  0.7751635687536337  1.0000
  N   N10       1.0  0.9928622890429395  0.3108077453533653  0.2247184329547025  1.0000
  N   N11       1.0  0.310818462040622  0.47168738814171707  0.2247410893932553  1.0000
  N   N12       1.0  0.47156848174097377  0.9927327061812504  0.22483531050607297  1.0000
  N   N13       1.0  0.14529734790018986  0.8952862494885562  0.643146676287941  1.0000
  N   N14       1.0  0.8953622671703131  0.3161909005572524  0.6431551798377202  1.0000
  N   N15       1.0  0.31622988522148177  0.14527677490841734  0.6431502444846728  1.0000
  N   N16       1.0  0.8547031550888278  0.10471352625581429  0.35685206747194786  1.0000
  N   N17       1.0  0.10463665821430379  0.6838102735745224  0.3568442551589115  1.0000
  N   N18       1.0  0.6837702992397607  0.8547229983863217  0.35685012527148524  1.0000
