data_image0
_chemical_formula_structural       Al2H18C48O12F12
_chemical_formula_sum              "Al2 H18 C48 O12 F12"
_cell_length_a       3.975491156040356
_cell_length_b       28.687408116276266
_cell_length_c       28.687351287052362
_cell_angle_alpha    119.99990007057112
_cell_angle_beta     89.99967554326957
_cell_angle_gamma    90.00051621448814

_space_group_name_H-M_alt    "P 1"
_space_group_IT_number       1

loop_
  _space_group_symop_operation_xyz
  'x, y, z'

loop_
  _atom_site_type_symbol
  _atom_site_label
  _atom_site_symmetry_multiplicity
  _atom_site_fract_x
  _atom_site_fract_y
  _atom_site_fract_z
  _atom_site_occupancy
  Al  Al1       1.0  0.0003251553498912999  0.5000015218646254  0.49999976693953124  1.0000
  Al  Al2       1.0  0.00033228437548159993  0.16666781783274584  0.8333320028736608  1.0000
  H   H1        1.0  0.4994716864919154  0.22912485268442848  0.6429580286588106  1.0000
  H   H2        1.0  0.5001347144262667  0.37583038249912454  0.7989126759267152  1.0000
  H   H3        1.0  0.5001602151466357  0.29082473509174633  0.5343961585393872  1.0000
  H   H4        1.0  0.4994749814635994  0.4375200540229259  0.6903603188997353  1.0000
  H   H5        1.0  0.5000159024682347  0.38475714476174255  0.7222661724280499  1.0000
  H   H6        1.0  0.5000300009224218  0.2818885030999424  0.6110444628016722  1.0000
  H   H7        1.0  0.49947627871521394  0.9138360175244246  0.7708750435502695  1.0000
  H   H8        1.0  0.5001462964082961  0.9230829540029432  0.624168257561706  1.0000
  H   H9        1.0  0.5001587293634273  0.7435749663440276  0.7091761234974783  1.0000
  H   H10       1.0  0.4994880325903068  0.7528398705437097  0.5624792559000369  1.0000
  H   H11       1.0  0.5000204304321514  0.837510332992011  0.615241081804868  1.0000
  H   H12       1.0  0.5000305388602797  0.8291580591964306  0.7181109536930778  1.0000
  H   H13       1.0  0.49947266325877837  0.35704076379634847  0.08616431644320949  1.0000
  H   H14       1.0  0.5001444013277095  0.2010873463078013  0.0769167101741175  1.0000
  H   H15       1.0  0.5001567759677954  0.4656030334345687  0.25642540109474504  1.0000
  H   H16       1.0  0.499487799333913  0.3096422987721326  0.24716001321544206  1.0000
  H   H17       1.0  0.5000193136595428  0.2777343045231717  0.1624906841190707  1.0000
  H   H18       1.0  0.5000278071748312  0.38895532785240755  0.1708410196589583  1.0000
  C   C1        1.0  0.5002161242150649  0.46269068880066294  0.41770782052756056  1.0000
  C   C2        1.0  0.5002133208051873  0.45501983952179603  0.5373108997891265  1.0000
  C   C3        1.0  0.5002198388899115  0.5822927959641077  0.5449811621654135  1.0000
  C   C4        1.0  0.5002124101134912  0.21164439139479174  0.7960167082195397  1.0000
  C   C5        1.0  0.5002109227797502  0.08437474457124228  0.7883549881209646  1.0000
  C   C6        1.0  0.5002146376910872  0.2039817752702432  0.9156248005457712  1.0000
  C   C7        1.0  0.5001536956870678  0.24460177086297824  0.768997003624655  1.0000
  C   C8        1.0  0.49435107015847274  0.22111979910047092  0.7127770816560215  1.0000
  C   C9        1.0  0.49768300035571394  0.2507177570641944  0.6867603755305468  1.0000
  C   C10       1.0  0.49982230338918754  0.3073520673991935  0.717291041426094  1.0000
  C   C11       1.0  0.5021235117018462  0.3321476034292274  0.7737953081570125  1.0000
  C   C12       1.0  0.5057567388325239  0.30087781174448475  0.7981743872665846  1.0000
  C   C13       1.0  0.49971074432995977  0.3416040197613767  0.6932399594933543  1.0000
  C   C14       1.0  0.49971888301521267  0.3250423249141574  0.6400713729598664  1.0000
  C   C15       1.0  0.5021331924480492  0.3345112285727794  0.5595216657312463  1.0000
  C   C16       1.0  0.49982113407872936  0.3592968253446997  0.6160212289084441  1.0000
  C   C17       1.0  0.49768423580267296  0.41593244472512225  0.6465596468815704  1.0000
  C   C18       1.0  0.49436038472896376  0.4455359367286817  0.620546466656748  1.0000
  C   C19       1.0  0.5001663878763906  0.4220596713160346  0.5643278157128151  1.0000
  C   C20       1.0  0.5057720227142753  0.3657826055937078  0.5351465822098688  1.0000
  C   C21       1.0  0.5001593544235375  0.02439708930500465  0.755397894166947  1.0000
  C   C22       1.0  0.4943597911602922  0.9916603975651982  0.7788797725854408  1.0000
  C   C23       1.0  0.4976890082145927  0.9360438410394494  0.7492827331775588  1.0000
  C   C24       1.0  0.49982746292864977  0.9099410154768391  0.692646105202904  1.0000
  C   C25       1.0  0.5021331478082375  0.9416489217003701  0.6678526165425823  1.0000
  C   C26       1.0  0.5057665578444883  0.9972979103927669  0.6991211130086442  1.0000
  C   C27       1.0  0.49971812242564784  0.8516359883560085  0.6583963346477333  1.0000
  C   C28       1.0  0.499724117057653  0.8150322561524278  0.6749551510615818  1.0000
  C   C29       1.0  0.5021336527964948  0.7250133206997234  0.6654888387292387  1.0000
  C   C30       1.0  0.4998285866089915  0.756726036072081  0.6407037848913718  1.0000
  C   C31       1.0  0.4976958711480179  0.7306283183875237  0.5840662299520148  1.0000
  C   C32       1.0  0.49436427605170497  0.6750102308045098  0.5544644438052442  1.0000
  C   C33       1.0  0.500170790672456  0.6422698868817492  0.5779409119340002  1.0000
  C   C34       1.0  0.505772300318334  0.669367247180233  0.6342188249833427  1.0000
  C   C35       1.0  0.500156387832824  0.23100304279837044  0.9756033959621321  1.0000
  C   C36       1.0  0.4943531740894187  0.2872216836675889  0.008339583387566959  1.0000
  C   C37       1.0  0.4976807296650846  0.3132407694518591  0.063957029616283  1.0000
  C   C38       1.0  0.49982230454964577  0.2827078545662189  0.09005954476209155  1.0000
  C   C39       1.0  0.5021302801835362  0.2262051529446865  0.0583515152991723  1.0000
  C   C40       1.0  0.5057629252720162  0.20182612400062544  0.0027016854858458784  1.0000
  C   C41       1.0  0.4997136850407031  0.3067613171955017  0.1483627979004396  1.0000
  C   C42       1.0  0.49972219054634337  0.3599274164029466  0.1849684100168218  1.0000
  C   C43       1.0  0.5021301561770172  0.44047719718455614  0.2749853813051359  1.0000
  C   C44       1.0  0.4998273810136666  0.3839796176957507  0.2432736217723956  1.0000
  C   C45       1.0  0.49769527005611996  0.3534407744081705  0.2693702113428174  1.0000
  C   C46       1.0  0.49436452867509917  0.3794564889358156  0.32499032840859593  1.0000
  C   C47       1.0  0.5001636960467337  0.4356733240161006  0.35772950532400216  1.0000
  C   C48       1.0  0.5057645376346186  0.4648540309579872  0.33063462117389253  1.0000
  O   O1        1.0  0.7364085336859602  0.5576634055731304  0.5535556147096301  1.0000
  O   O2        1.0  0.7364114004334538  0.495893960134417  0.44233626277660676  1.0000
  O   O3        1.0  0.7364109789529606  0.44644517403544615  0.5041063479941242  1.0000
  O   O4        1.0  0.2640477737596498  0.5604504225414573  0.5109584964197964  1.0000
  O   O5        1.0  0.2640446139004098  0.48904208552444567  0.5494906231367125  1.0000
  O   O6        1.0  0.26404066783956637  0.45051101148578  0.43955022055614285  1.0000
  O   O7        1.0  0.7364113065545012  0.17077811860525544  0.8909976722262911  1.0000
  O   O8        1.0  0.7364167588398941  0.22022213237596586  0.8292212046222787  1.0000
  O   O9        1.0  0.7364116576756813  0.10900196723058289  0.7797780545444795  1.0000
  O   O10       1.0  0.2640534880252758  0.2161603896834307  0.8937804433403899  1.0000
  O   O11       1.0  0.26404889734161696  0.10621909895235856  0.8223775330158531  1.0000
  O   O12       1.0  0.26405457256755943  0.1776219125439907  0.783839077840291  1.0000
  F   F1        1.0  0.5050118377454424  0.32606075210038876  0.8526912391823556  1.0000
  F   F2        1.0  0.4949611790238322  0.16664175037564638  0.6824577396961119  1.0000
  F   F3        1.0  0.49495012747593836  0.5000129114906146  0.6508703690266558  1.0000
  F   F4        1.0  0.505037861427567  0.3406041709590469  0.4806294068564583  1.0000
  F   F5        1.0  0.505028489009412  0.026630656443657485  0.6739371101029831  1.0000
  F   F6        1.0  0.4949655986326106  0.015818738834660357  0.833358037572232  1.0000
  F   F7        1.0  0.4949582853082646  0.6508586099376786  0.49998712290815933  1.0000
  F   F8        1.0  0.5050363021577836  0.6400297812006882  0.6593991761121956  1.0000
  F   F9        1.0  0.5050235342650141  0.14730905457202684  0.9733692999611989  1.0000
  F   F10       1.0  0.4949596800897992  0.31754160602708487  0.9841823165794636  1.0000
  F   F11       1.0  0.49496420416809167  0.34913115051942617  0.3491409436466739  1.0000
  F   F12       1.0  0.5050286804023046  0.5193705879934213  0.359970090722875  1.0000
