data_image0
_chemical_formula_structural       Sm4P4H28C12O40
_chemical_formula_sum              "Sm4 P4 H28 C12 O40"
_cell_length_a       6.852700444861702
_cell_length_b       10.166459113578323
_cell_length_c       13.292181794030562
_cell_angle_alpha    90.00024273835491
_cell_angle_beta     89.99990768390457
_cell_angle_gamma    100.90271460353343

_space_group_name_H-M_alt    "P 1"
_space_group_IT_number       1

loop_
  _space_group_symop_operation_xyz
  'x, y, z'

loop_
  _atom_site_type_symbol
  _atom_site_label
  _atom_site_symmetry_multiplicity
  _atom_site_fract_x
  _atom_site_fract_y
  _atom_site_fract_z
  _atom_site_occupancy
  Sm  Sm1       1.0  0.1577259479897108  0.2791561875242081  0.8980771737089553  1.0000
  Sm  Sm2       1.0  0.8422881584581887  0.2208373433899027  0.39808059683495856  1.0000
  Sm  Sm3       1.0  0.8422924852608203  0.7208512780675063  0.10192159955860088  1.0000
  Sm  Sm4       1.0  0.15770949083890434  0.7791469949354808  0.6019226903362238  1.0000
  P   P1        1.0  0.7805888331919845  0.07164956583875441  0.053902875626270906  1.0000
  P   P2        1.0  0.21941444885040076  0.42834904824973546  0.5539051460483293  1.0000
  P   P3        1.0  0.219411912454497  0.9283517919419285  0.9460951453174926  1.0000
  P   P4        1.0  0.7805840307156303  0.5716492956373501  0.44609362721352136  1.0000
  H   H1        1.0  0.5420357289298252  0.19622628751824323  0.0547660992739267  1.0000
  H   H2        1.0  0.4579626305800417  0.3037703012077841  0.5547722628626559  1.0000
  H   H3        1.0  0.4579707424728241  0.8037801052702351  0.9452296647095719  1.0000
  H   H4        1.0  0.5420325104183874  0.69622102212076  0.4452302719990371  1.0000
  H   H5        1.0  0.9029005303557369  0.9880783266494788  0.2574969159733769  1.0000
  H   H6        1.0  0.0971175615332172  0.5119108808200608  0.7575009575697109  1.0000
  H   H7        1.0  0.0971023084618921  0.011909043318908602  0.7424935817273663  1.0000
  H   H8        1.0  0.9028833052198949  0.4880854775223398  0.24250157729753843  1.0000
  H   H9        1.0  0.7967227359720822  0.35000453603051085  0.9562961834344106  1.0000
  H   H10       1.0  0.2032746785235702  0.1499872064458785  0.4563059770561537  1.0000
  H   H11       1.0  0.20326750954308187  0.6499957578357752  0.04369807590270369  1.0000
  H   H12       1.0  0.7967384182026862  0.8500112263518462  0.5436935485211265  1.0000
  H   H13       1.0  0.8795036907555129  0.4879050420029926  0.9014144836397832  1.0000
  H   H14       1.0  0.1204976709791339  0.012095429594047899  0.4014141255670864  1.0000
  H   H15       1.0  0.12049162315617684  0.5121032830152928  0.09858880357132449  1.0000
  H   H16       1.0  0.8795116979491128  0.9878999804252829  0.5985884092947629  1.0000
  H   H17       1.0  0.602057157464138  0.3248202218297608  0.8200732974482108  1.0000
  H   H18       1.0  0.3979412411678283  0.17517379400449332  0.32007396766982776  1.0000
  H   H19       1.0  0.3979389349098525  0.6751801076222038  0.17992923742765038  1.0000
  H   H20       1.0  0.6020567021561121  0.824822546544063  0.6799240532670864  1.0000
  H   H21       1.0  0.46257547742638383  0.3433243001609443  0.7268546838967254  1.0000
  H   H22       1.0  0.5374211932726141  0.1566732039160215  0.2268581765223772  1.0000
  H   H23       1.0  0.5374199575983879  0.6566790253927977  0.27314333705264454  1.0000
  H   H24       1.0  0.4625823287928342  0.8433221705337887  0.7731421013762512  1.0000
  H   H25       1.0  0.0983768813448904  0.0957583071639334  0.1382039078111887  1.0000
  H   H26       1.0  0.9016268256863073  0.4042427630472788  0.6382152594815123  1.0000
  H   H27       1.0  0.9016226707097916  0.904244043382015  0.8617895992030852  1.0000
  H   H28       1.0  0.09837908356373504  0.5957506258679572  0.3617925416322193  1.0000
  C   C1        1.0  0.9606315798677513  0.1329841985692113  0.15516994019588987  1.0000
  C   C2        1.0  0.03936148353485442  0.36702089829244505  0.6551751850125028  1.0000
  C   C3        1.0  0.03935308690441281  0.8670170614018817  0.8448243191453242  1.0000
  C   C4        1.0  0.9606394091188405  0.6329864606250767  0.3448296068383812  1.0000
  C   C5        1.0  0.005934054229534508  0.2844061616429201  0.1598831645562697  1.0000
  C   C6        1.0  0.9940580515855545  0.21558995437705158  0.6598765174007326  1.0000
  C   C7        1.0  0.9940331930534113  0.7155899922116548  0.8401201226478889  1.0000
  C   C8        1.0  0.005946664077157494  0.7844044272852742  0.34011999888603833  1.0000
  C   C9        1.0  0.4542685610796157  0.55492335483072  0.9736963731007149  1.0000
  C   C10       1.0  0.54576671678808  0.9450941210812758  0.47370229736039693  1.0000
  C   C11       1.0  0.5457796945316602  0.44510829308318034  0.026313685021555993  1.0000
  C   C12       1.0  0.45423722040042247  0.05490825619585141  0.5263130269881913  1.0000
  O   O1        1.0  0.5840898451416691  0.11946530121716854  0.0924520187336029  1.0000
  O   O2        1.0  0.41589903698867664  0.3805344326748568  0.5924562123719141  1.0000
  O   O3        1.0  0.41590174098094934  0.8805400009863436  0.9075407359671388  1.0000
  O   O4        1.0  0.5840860190148902  0.6194628295120596  0.40753729464071137  1.0000
  O   O5        1.0  0.8529340189786863  0.1381785007489427  0.9553516506221269  1.0000
  O   O6        1.0  0.14707046312855  0.36182327999349445  0.455355410913512  1.0000
  O   O7        1.0  0.14707352491311104  0.8618318986963873  0.044638094791849894  1.0000
  O   O8        1.0  0.8529192461415461  0.6381750105463909  0.5446426100303015  1.0000
  O   O9        1.0  0.7470580787493332  0.9207084013537566  0.0598603993309865  1.0000
  O   O10       1.0  0.2529454404735673  0.5793006552120232  0.559863012809835  1.0000
  O   O11       1.0  0.252937918424081  0.0793079280893849  0.9401316030636763  1.0000
  O   O12       1.0  0.7470438795641385  0.42070163311607445  0.4401372651064576  1.0000
  O   O13       1.0  0.8733230276381504  0.08028344165690983  0.2471841341057797  1.0000
  O   O14       1.0  0.12668065669591755  0.4197132143757545  0.7471819470045347  1.0000
  O   O15       1.0  0.12666361118711927  0.9197088299866321  0.752815391473561  1.0000
  O   O16       1.0  0.8733103931826276  0.5802900844973066  0.2528130646590228  1.0000
  O   O17       1.0  0.07880528406569448  0.3483865676578262  0.082232325977678  1.0000
  O   O18       1.0  0.9211995693274773  0.1516182085588653  0.582222528533883  1.0000
  O   O19       1.0  0.9212009192072232  0.6516188234967404  0.9177762274773043  1.0000
  O   O20       1.0  0.07881537834723677  0.8483762353415187  0.4177747400702784  1.0000
  O   O21       1.0  0.9629273627439902  0.33916010664785295  0.24135928398267475  1.0000
  O   O22       1.0  0.037093722862984214  0.16083062365234474  0.7413495686429454  1.0000
  O   O23       1.0  0.03706309908184832  0.6608191877748342  0.7586447555055429  1.0000
  O   O24       1.0  0.962921518831628  0.8391758224994916  0.25865296623410927  1.0000
  O   O25       1.0  0.3005443531655986  0.5185128621962392  0.9213814209589726  1.0000
  O   O26       1.0  0.6994723547539154  0.9814892188336801  0.42139559883776195  1.0000
  O   O27       1.0  0.6994510818616604  0.48149046334739865  0.07861283838069259  1.0000
  O   O28       1.0  0.30053316526870333  0.0185081678495607  0.5786069360290397  1.0000
  O   O29       1.0  0.539499100042157  0.6753703005042696  0.9908103489698801  1.0000
  O   O30       1.0  0.460527722366642  0.8246212150769455  0.4908234836748733  1.0000
  O   O31       1.0  0.46051041589926456  0.32463111062764943  0.0091899289358039  1.0000
  O   O32       1.0  0.5394850803263153  0.1753652155238825  0.5091910883219056  1.0000
  O   O33       1.0  0.8532019672112199  0.3873442829714407  0.8927144817592917  1.0000
  O   O34       1.0  0.1467979442826461  0.11265613303201863  0.3927227011509017  1.0000
  O   O35       1.0  0.14679812108356316  0.6126600709211161  0.1072827868676853  1.0000
  O   O36       1.0  0.8532037268323551  0.8873432303232252  0.607282843008612  1.0000
  O   O37       1.0  0.46572411669101393  0.3015880693464155  0.7936570415447617  1.0000
  O   O38       1.0  0.5342724658532134  0.19840979350728113  0.2936591676345728  1.0000
  O   O39       1.0  0.5342705139693891  0.698412251204587  0.20634173172204123  1.0000
  O   O40       1.0  0.46572759653750506  0.8015835598243015  0.7063411102623575  1.0000
