data_image0
_chemical_formula_structural       Al4H4C32S8O20F8
_chemical_formula_sum              "Al4 H4 C32 S8 O20 F8"
_cell_length_a       6.755047105299568
_cell_length_b       15.336366050262042
_cell_length_c       19.301044071587885
_cell_angle_alpha    90.00677473118876
_cell_angle_beta     89.93753798988416
_cell_angle_gamma    89.0909779831404

_space_group_name_H-M_alt    "P 1"
_space_group_IT_number       1

loop_
  _space_group_symop_operation_xyz
  'x, y, z'

loop_
  _atom_site_type_symbol
  _atom_site_label
  _atom_site_symmetry_multiplicity
  _atom_site_fract_x
  _atom_site_fract_y
  _atom_site_fract_z
  _atom_site_occupancy
  Al  Al1       1.0  0.9925429517690673  0.0005930477858342006  0.4993214554736412  1.0000
  Al  Al2       1.0  0.49276625837272553  0.9993598703432198  0.5004785284667148  1.0000
  Al  Al3       1.0  0.007228397974863297  0.5006057532648215  0.9995049655700254  1.0000
  Al  Al4       1.0  0.5074584068528979  0.499362226607758  0.000671270355852  1.0000
  H   H1        1.0  0.7377684924876674  0.11513116421468081  0.50221443474571  1.0000
  H   H2        1.0  0.24491018357369396  0.8848285811630208  0.5015825641669451  1.0000
  H   H3        1.0  0.7622632488676545  0.38482712562422705  0.997866908625717  1.0000
  H   H4        1.0  0.25510889815005566  0.6151310941841501  0.9985263224946053  1.0000
  C   C1        1.0  0.24323089448674304  0.10196096520797235  0.4054062226622149  1.0000
  C   C2        1.0  0.23453449731641743  0.10235177332656781  0.5944092470792413  1.0000
  C   C3        1.0  0.7445818992547613  0.8979128803207388  0.594463735901435  1.0000
  C   C4        1.0  0.7497999502826717  0.8978472044287927  0.40559233421424773  1.0000
  C   C5        1.0  0.25674900792728284  0.39802454330838805  0.0946071237082293  1.0000
  C   C6        1.0  0.2654209314516365  0.397596509552571  0.9055932122483695  1.0000
  C   C7        1.0  0.7553999291596655  0.6020304541531872  0.905512593699221  1.0000
  C   C8        1.0  0.7502351543357904  0.6021965033802844  0.0943456801674856  1.0000
  C   C9        1.0  0.08599237090629688  0.2051003679444534  0.6872701307989786  1.0000
  C   C10       1.0  0.41399810393168934  0.2948784393146228  0.8127225026383299  1.0000
  C   C11       1.0  0.23940521584952282  0.15958752158727657  0.6553030972658789  1.0000
  C   C12       1.0  0.2605692771336622  0.3403717797822027  0.8446967809494906  1.0000
  C   C13       1.0  0.35259284749668757  0.24531796211674362  0.7552390183224843  1.0000
  C   C14       1.0  0.14741363603199895  0.25468100275194416  0.7447406712120141  1.0000
  C   C15       1.0  0.5948302886498452  0.7927715060788428  0.31740962783813836  1.0000
  C   C16       1.0  0.905198434569094  0.7073035224515819  0.18251284297941336  1.0000
  C   C17       1.0  0.7488600237655375  0.8404810269536541  0.34478727561027966  1.0000
  C   C18       1.0  0.7511655273354949  0.659610965728895  0.155121206241418  1.0000
  C   C19       1.0  0.8502090651698426  0.7561225055190023  0.24166271716434548  1.0000
  C   C20       1.0  0.6498202044912985  0.743916006167993  0.2582763304001716  1.0000
  C   C21       1.0  0.9048577160462018  0.7926235363881418  0.6832913279306324  1.0000
  C   C22       1.0  0.595161425997297  0.7073718347097043  0.8167202539460945  1.0000
  C   C23       1.0  0.7488265706388473  0.8405894169076121  0.6552956963462222  1.0000
  C   C24       1.0  0.7511840936660406  0.6593883774246123  0.8447029276072087  1.0000
  C   C25       1.0  0.649131258008218  0.7562404031335318  0.7578804121547689  1.0000
  C   C26       1.0  0.8509053635065695  0.7437672966410959  0.7421405044935625  1.0000
  C   C27       1.0  0.09035355560045132  0.2079919348216138  0.3155768735264032  1.0000
  C   C28       1.0  0.40963478097076234  0.2920802713679151  0.1844903668905928  1.0000
  C   C29       1.0  0.24379897312883264  0.15942544156462193  0.3446510360840803  1.0000
  C   C30       1.0  0.2561724715253818  0.340607698524515  0.15539132441410425  1.0000
  C   C31       1.0  0.351250251952358  0.24344878909760578  0.2429287898652106  1.0000
  C   C32       1.0  0.14876394772446128  0.2566585393868833  0.2571607436271819  1.0000
  S   S1        1.0  0.4656710934463533  0.17781023355370001  0.6953597916372658  1.0000
  S   S2        1.0  0.03431655203615239  0.32216206282920723  0.804630767573201  1.0000
  S   S3        1.0  0.9672198793652172  0.8255640758291632  0.2978681127046841  1.0000
  S   S4        1.0  0.5328061556546757  0.67449661654625  0.20205228331530375  1.0000
  S   S5        1.0  0.5296970605970656  0.8259176229383416  0.7012111327120181  1.0000
  S   S6        1.0  0.9703295558152333  0.674073157693691  0.7988020064638448  1.0000
  S   S7        1.0  0.4659699685601026  0.1734072490570782  0.30047049546687526  1.0000
  S   S8        1.0  0.0340170730374965  0.32665778856296873  0.19958845405930248  1.0000
  O   O1        1.0  0.07675629208108602  0.08579206097476091  0.4331206596603323  1.0000
  O   O2        1.0  0.4030640009255677  0.08363977808016902  0.5675586631294749  1.0000
  O   O3        1.0  0.5728493078498573  0.9255354068567244  0.5762910461985271  1.0000
  O   O4        1.0  0.918877290539264  0.9265593441778678  0.4233658287288051  1.0000
  O   O5        1.0  0.9089418119325998  0.9144933791676594  0.5653111534247799  1.0000
  O   O6        1.0  0.5845025236407508  0.9133464070963343  0.4352703849463637  1.0000
  O   O7        1.0  0.41325185995546576  0.0738136921671071  0.4250148173665522  1.0000
  O   O8        1.0  0.06605706526971028  0.07694143633184321  0.5739120760380629  1.0000
  O   O9        1.0  0.7402452154507486  0.052067684470301905  0.4998981182289127  1.0000
  O   O10       1.0  0.24398312150835716  0.9479347403687085  0.5001189428757724  1.0000
  O   O11       1.0  0.08672597299642598  0.42613465439095677  0.0749658842538352  1.0000
  O   O12       1.0  0.433893986961074  0.4230003415038582  0.9260981524251477  1.0000
  O   O13       1.0  0.591030075777276  0.585432383529984  0.9346496270572402  1.0000
  O   O14       1.0  0.9155360141553431  0.5866666421820882  0.06467954497614409  1.0000
  O   O15       1.0  0.9271311399398813  0.5744033678605548  0.9236826918738641  1.0000
  O   O16       1.0  0.5811626365338967  0.5734537008491644  0.0765975726270938  1.0000
  O   O17       1.0  0.42324276574086633  0.414193381309616  0.0669061660931263  1.0000
  O   O18       1.0  0.09688697558361528  0.41631047636784047  0.9324401676073962  1.0000
  O   O19       1.0  0.7597455998395191  0.4478954517440315  0.00010030270633619998  1.0000
  O   O20       1.0  0.2560248897412265  0.552020404630099  0.9998878711580373  1.0000
  F   F1        1.0  0.8967702713050726  0.20472782089530034  0.6655990169151309  1.0000
  F   F2        1.0  0.6032085968844784  0.29523586653709805  0.8344056232149696  1.0000
  F   F3        1.0  0.4108842837467463  0.7910056889725184  0.3440620226716646  1.0000
  F   F4        1.0  0.0891515145901209  0.7090838237922485  0.15586346450877633  1.0000
  F   F5        1.0  0.08982977163161371  0.7904983544250043  0.6573601871977529  1.0000
  F   F6        1.0  0.41019382687210276  0.7094919481455904  0.8426559626098253  1.0000
  F   F7        1.0  0.9039483904799824  0.2107897721249117  0.34016241835086447  1.0000
  F   F8        1.0  0.5960283937531373  0.2892738335817455  0.15989144201240174  1.0000
