data_image0
_chemical_formula_structural       Mn6H60C88O28
_chemical_formula_sum              "Mn6 H60 C88 O28"
_cell_length_a       13.619217661806882
_cell_length_b       16.39254437141222
_cell_length_c       17.168564102139985
_cell_angle_alpha    66.04855154652196
_cell_angle_beta     66.64163260289563
_cell_angle_gamma    65.46260674499075

_space_group_name_H-M_alt    "P 1"
_space_group_IT_number       1

loop_
  _space_group_symop_operation_xyz
  'x, y, z'

loop_
  _atom_site_type_symbol
  _atom_site_label
  _atom_site_symmetry_multiplicity
  _atom_site_fract_x
  _atom_site_fract_y
  _atom_site_fract_z
  _atom_site_occupancy
  Mn  Mn1       1.0  0.5460668857582647  0.24994653659688737  0.7500020327719241  1.0000
  Mn  Mn2       1.0  0.45396851123560117  0.750046555897633  0.24992769830983977  1.0000
  Mn  Mn3       1.0  0.5185256669062498  0.46967384978902527  0.6023475880724903  1.0000
  Mn  Mn4       1.0  0.5907207532586513  0.0303339204177391  0.8975941778669424  1.0000
  Mn  Mn5       1.0  0.48145462061980043  0.5303509887320743  0.39769855789149483  1.0000
  Mn  Mn6       1.0  0.4092403631803168  0.9697026757954248  0.10241213414595761  1.0000
  H   H1        1.0  0.5976351678451125  0.5940999044350123  0.7449459835685491  1.0000
  H   H2        1.0  0.9369969400052441  0.9057146232225648  0.7551881551254952  1.0000
  H   H3        1.0  0.40237187796249435  0.4059011161201553  0.2550600392821636  1.0000
  H   H4        1.0  0.0629962231678363  0.09428078912630161  0.2448196148027364  1.0000
  H   H5        1.0  0.6977564126850594  0.6213365493912448  0.8221606358997565  1.0000
  H   H6        1.0  0.1414722704216303  0.8786978388491207  0.6778680754874388  1.0000
  H   H7        1.0  0.3022645985339736  0.37865053936872073  0.17784396136605812  1.0000
  H   H8        1.0  0.8585200878183555  0.12129553490741068  0.322136049195848  1.0000
  H   H9        1.0  0.8399236882854312  0.3232478407585688  0.9227437686345328  1.0000
  H   H10       1.0  0.0856007360989821  0.17684570437671002  0.5768556130999798  1.0000
  H   H11       1.0  0.16009021671493445  0.6767435819855762  0.07725091763544613  1.0000
  H   H12       1.0  0.9144027914690587  0.8231456783315635  0.423141720968488  1.0000
  H   H13       1.0  0.7361362325905676  0.2972362795500628  0.8470152914085178  1.0000
  H   H14       1.0  0.8801421301886804  0.20264932292119647  0.6526722305302003  1.0000
  H   H15       1.0  0.26387846756734495  0.7027571379489714  0.1529859721841191  1.0000
  H   H16       1.0  0.11985635661502418  0.7973447812761876  0.3473297210315351  1.0000
  H   H17       1.0  0.8411231182698418  0.4293961172298281  0.9858662097616535  1.0000
  H   H18       1.0  0.25627844341942563  0.0707510038955945  0.5139603979269226  1.0000
  H   H19       1.0  0.15888866588471035  0.570600680823695  0.014142260624417714  1.0000
  H   H20       1.0  0.7437152509426639  0.9292430690096795  0.4860436327645202  1.0000
  H   H21       1.0  0.6491185305171355  0.5136921322183882  0.05212832410687453  1.0000
  H   H22       1.0  0.21463609766306066  0.9864143274132785  0.44782638087153265  1.0000
  H   H23       1.0  0.350882382163171  0.4863061318251879  0.9478753914192029  1.0000
  H   H24       1.0  0.7853601314183152  0.013594421461441204  0.5521760137314047  1.0000
  H   H25       1.0  0.529579369189449  0.6572565970619876  0.09978147649632527  1.0000
  H   H26       1.0  0.28634989287019164  0.8428568074769417  0.4001302746949946  1.0000
  H   H27       1.0  0.470414488109981  0.3427522457603017  0.9002146274772047  1.0000
  H   H28       1.0  0.7136492443940982  0.15714852577332283  0.5998672587766621  1.0000
  H   H29       1.0  0.7636488428116128  0.8037449930960534  0.9047674317710773  1.0000
  H   H30       1.0  0.4721661353886263  0.6964933296859074  0.5949950953822951  1.0000
  H   H31       1.0  0.2363531322467055  0.19625059206032347  0.09522880528141545  1.0000
  H   H32       1.0  0.527833499174456  0.30350850653766787  0.4050030146394902  1.0000
  H   H33       1.0  0.885804856181693  0.658827997002064  0.8585030013641842  1.0000
  H   H34       1.0  0.40302693564220987  0.8414074685561275  0.6413240888345302  1.0000
  H   H35       1.0  0.11420373952717008  0.34116680380176223  0.14149905164077844  1.0000
  H   H36       1.0  0.5969744964964505  0.1585894034389028  0.3586794059480027  1.0000
  H   H37       1.0  0.022118145834774394  0.38496563930576133  0.9862330912651488  1.0000
  H   H38       1.0  0.3933705682999857  0.1150680216113713  0.5136088974102009  1.0000
  H   H39       1.0  0.9778885395456176  0.6150235920683469  0.013768149862997413  1.0000
  H   H40       1.0  0.6066275991387545  0.8849204943620493  0.48639350394995523  1.0000
  H   H41       1.0  0.22321875189179255  0.350306285682862  0.9019592333039766  1.0000
  H   H42       1.0  0.47562998127612854  0.14963204921321702  0.5979390577865332  1.0000
  H   H43       1.0  0.776786085075223  0.6496816651252573  0.09803432362014051  1.0000
  H   H44       1.0  0.5243743323223173  0.8503572761084683  0.4020558927122195  1.0000
  H   H45       1.0  0.13342936869206323  0.5330621094105935  0.6613359870688671  1.0000
  H   H46       1.0  0.32781023910457935  0.9669516176805005  0.8385139930827709  1.0000
  H   H47       1.0  0.8665707227609188  0.4669320373649626  0.33866312125932313  1.0000
  H   H48       1.0  0.6722054269726813  0.03303066594876469  0.16148532687315514  1.0000
  H   H49       1.0  0.9320880961909026  0.5615918187839313  0.7435420877800497  1.0000
  H   H50       1.0  0.23712935260756757  0.9385120558104489  0.7562472908319222  1.0000
  H   H51       1.0  0.0679125394884538  0.43840505822448245  0.2564610693726337  1.0000
  H   H52       1.0  0.7628826205581164  0.06147370106160111  0.24375303413219032  1.0000
  H   H53       1.0  0.6906820108643219  0.49134561996376647  0.4464064676717572  1.0000
  H   H54       1.0  0.6282892259396179  0.0087287431985672  0.05361709949799833  1.0000
  H   H55       1.0  0.3093091911384819  0.5086659117724892  0.5535964395156655  1.0000
  H   H56       1.0  0.3717040447743899  0.9912791850418402  0.9463935100701878  1.0000
  H   H57       1.0  0.7434824722872124  0.4032700587282534  0.51714540752684  1.0000
  H   H58       1.0  0.6637956669496675  0.09680144246766528  0.9829428152856327  1.0000
  H   H59       1.0  0.2564496385798309  0.5967451684383319  0.4828901484341729  1.0000
  H   H60       1.0  0.33621615044669556  0.9032015214729867  0.01707323228358602  1.0000
  C   C1        1.0  0.6017952595355994  0.42664746921971647  0.7462781728487969  1.0000
  C   C2        1.0  0.774843841320923  0.07298062279779319  0.7537933717354975  1.0000
  C   C3        1.0  0.39820189179936  0.5733479443646986  0.2537295259820452  1.0000
  C   C4        1.0  0.2251491882374454  0.9270280847580424  0.24621177725683202  1.0000
  C   C5        1.0  0.660521332249445  0.4440837324293199  0.7922466680904637  1.0000
  C   C6        1.0  0.8968759557199423  0.0557510393661076  0.7076837078218149  1.0000
  C   C7        1.0  0.3394835881438283  0.5559146205246962  0.20775111218282669  1.0000
  C   C8        1.0  0.1031169584770667  0.9442451172282276  0.2923209471927209  1.0000
  C   C9        1.0  0.6505987110778619  0.5353635151321754  0.7844599788707144  1.0000
  C   C10       1.0  0.9706124195668624  0.9645143229990579  0.7155633910593767  1.0000
  C   C11       1.0  0.34941176432612053  0.4646327065174846  0.2155403756896349  1.0000
  C   C12       1.0  0.029380478335916418  0.03547975491959929  0.28444030200221704  1.0000
  C   C13       1.0  0.7074852412297474  0.5500863769130789  0.8270233974672367  1.0000
  C   C14       1.0  0.08472647272111553  0.949915296385676  0.6729574605729384  1.0000
  C   C15       1.0  0.2925252139697889  0.4499077485259164  0.1729771679712542  1.0000
  C   C16       1.0  0.9152674882130327  0.05007811118153431  0.3270444072923412  1.0000
  C   C17       1.0  0.7758082326294514  0.47401438315211664  0.8772821732448081  1.0000
  C   C18       1.0  0.12704459621237876  0.026075375888517296  0.6225514914378253  1.0000
  C   C19       1.0  0.22419902695730096  0.525979718502967  0.12271997375199817  1.0000
  C   C20       1.0  0.8729509374359383  0.9739159254412612  0.37745126256528033  1.0000
  C   C21       1.0  0.7860925209591015  0.3827449600636045  0.8842370014969707  1.0000
  C   C22       1.0  0.05287786351133409  0.1172865763581541  0.6154794825758005  1.0000
  C   C23       1.0  0.21391444924267944  0.6172456934156259  0.1157624523424161  1.0000
  C   C24       1.0  0.9471230041965061  0.8827054691933538  0.3845201742603734  1.0000
  C   C25       1.0  0.7288411026263121  0.3677240973636131  0.8424251341307782  1.0000
  C   C26       1.0  0.9388145305784334  0.1321919737868882  0.6573331084875988  1.0000
  C   C27       1.0  0.27116274430669324  0.6322728735686313  0.1575717501392688  1.0000
  C   C28       1.0  0.061185015346417605  0.8678014425240761  0.34266819070889903  1.0000
  C   C29       1.0  0.8401160498524478  0.48760016486991015  0.9240104141610176  1.0000
  C   C30       1.0  0.2516117776635411  0.0125501404812454  0.5758201188431047  1.0000
  C   C31       1.0  0.15989199055273687  0.512393861631864  0.075996761789952  1.0000
  C   C32       1.0  0.7483824485409089  0.9874446015161807  0.4241858258888128  1.0000
  C   C33       1.0  0.7756553886739541  0.5766273553196796  0.9522624558257179  1.0000
  C   C34       1.0  0.30439248597954116  0.923514823908299  0.5476000491387155  1.0000
  C   C35       1.0  0.2243494756695485  0.4233667350730883  0.04774043752816227  1.0000
  C   C36       1.0  0.6956065730754162  0.07648414180256677  0.4524033947072184  1.0000
  C   C37       1.0  0.6749000185185352  0.5771020565967576  0.02032615933416795  1.0000
  C   C38       1.0  0.2720815833876956  0.9230247790010395  0.4795798681596964  1.0000
  C   C39       1.0  0.325101140529384  0.4228934458980973  0.9796756042438801  1.0000
  C   C40       1.0  0.7279165071394617  0.07698330327635008  0.5204204524612238  1.0000
  C   C41       1.0  0.6073187297111249  0.6570741448995464  0.046785182568854077  1.0000
  C   C42       1.0  0.3109685537794961  0.843081302941421  0.4530839830540288  1.0000
  C   C43       1.0  0.39267981705257443  0.3429242393940584  0.9532104830812076  1.0000
  C   C44       1.0  0.689026140388144  0.1569317272888071  0.5469120367930745  1.0000
  C   C45       1.0  0.6394621757740497  0.7390791183914232  0.005086253454337143  1.0000
  C   C46       1.0  0.38354998492641823  0.7611265255791794  0.4947151864817558  1.0000
  C   C47       1.0  0.360537179179616  0.2609193134937442  0.9949062313323227  1.0000
  C   C48       1.0  0.6164492487965417  0.2388872626536482  0.5052768121530279  1.0000
  C   C49       1.0  0.7396311751389536  0.7395670858313962  0.936796722690943  1.0000
  C   C50       1.0  0.41593421867556696  0.7606490051193617  0.5630072346429246  1.0000
  C   C51       1.0  0.2603694800914909  0.260429878851923  0.0632005703063427  1.0000
  C   C52       1.0  0.5840638190586845  0.23935282359600055  0.4369913729502458  1.0000
  C   C53       1.0  0.8075296441099483  0.6584955705975162  0.9111235222277616  1.0000
  C   C54       1.0  0.37700436293976514  0.8416915863038739  0.5887396151577419  1.0000
  C   C55       1.0  0.19247442572935125  0.3414985335761286  0.08887844708073804  1.0000
  C   C56       1.0  0.6229944171591272  0.15830598360435033  0.4112638567303364  1.0000
  C   C57       1.0  0.5687959966318631  0.8241005614430604  0.03390265944488397  1.0000
  C   C58       1.0  0.4267360014475656  0.6760910965585368  0.46591473249977616  1.0000
  C   C59       1.0  0.43121191276213006  0.1759027607291443  0.9660894161845737  1.0000
  C   C60       1.0  0.5732594982926218  0.32394188073184443  0.5340537419541678  1.0000
  C   C61       1.0  0.9624632541806052  0.475922441653637  0.8711100821046429  1.0000
  C   C62       1.0  0.30945996564137357  0.024172863488445304  0.6287208507042622  1.0000
  C   C63       1.0  0.03754053474752091  0.5240702579498729  0.1288925016615465  1.0000
  C   C64       1.0  0.6905411751572005  0.9758205515632383  0.3712805373363895  1.0000
  C   C65       1.0  0.046055347902324816  0.4173595548132311  0.9147396830324511  1.0000
  C   C66       1.0  0.37819563491477487  0.0826764919616565  0.5851080821183531  1.0000
  C   C67       1.0  0.9539502861773598  0.5826303995172637  0.08525986479877208  1.0000
  C   C68       1.0  0.6218089139739792  0.9173120277421275  0.4148940882028785  1.0000
  C   C69       1.0  0.159019606249025  0.39800882587721287  0.8680559029794427  1.0000
  C   C70       1.0  0.42517662691243885  0.10197806837757642  0.6318091771743398  1.0000
  C   C71       1.0  0.8409849784850539  0.6019818601771546  0.13194136513932628  1.0000
  C   C72       1.0  0.5748332338762839  0.8980090905697793  0.3681906932736327  1.0000
  C   C73       1.0  0.19214083883594685  0.439157444620669  0.7763733935665872  1.0000
  C   C74       1.0  0.407683072208215  0.0608391034556206  0.723497862721864  1.0000
  C   C75       1.0  0.8078560993682588  0.5608408795597911  0.22362628814810395  1.0000
  C   C76       1.0  0.5923284036586767  0.9391501504431189  0.2765018856921202  1.0000
  C   C77       1.0  0.10912087777334994  0.500472221780207  0.7326364725842042  1.0000
  C   C78       1.0  0.34220780032448805  0.9995543479191794  0.7672124741843122  1.0000
  C   C79       1.0  0.8908776331450243  0.4995239961628215  0.26736409526831306  1.0000
  C   C80       1.0  0.6578036716321877  0.00043488844458039965  0.23278844706075574  1.0000
  C   C81       1.0  0.9956949826857273  0.5173802597574452  0.7792795617362106  1.0000
  C   C82       1.0  0.29229648474203884  0.982691198665883  0.7205485077928984  1.0000
  C   C83       1.0  0.004303520412207745  0.482615923115617  0.2207233517784744  1.0000
  C   C84       1.0  0.7077131238137467  0.017298695527720998  0.279455073849725  1.0000
  C   C85       1.0  0.31475940964618593  0.4152960189284515  0.729074873925015  1.0000
  C   C86       1.0  0.459141985591792  0.08467713515366877  0.7708583355545643  1.0000
  C   C87       1.0  0.6852385961529565  0.5847036609713073  0.27092746303953436  1.0000
  C   C88       1.0  0.5408677533128742  0.9153233716056021  0.2291353954642616  1.0000
  O   O1        1.0  0.6129426241056422  0.34208293408838847  0.7576134262538828  1.0000
  O   O2        1.0  0.7126130802729732  0.15749685170366234  0.7425546911347709  1.0000
  O   O3        1.0  0.38706550754129415  0.657915512789458  0.24237808113676354  1.0000
  O   O4        1.0  0.287388261263388  0.8425135083831137  0.2574332815699734  1.0000
  O   O5        1.0  0.54510036923665  0.4977149017762486  0.6966171804486198  1.0000
  O   O6        1.0  0.7397244110879627  0.0018398493282418976  0.803520895309916  1.0000
  O   O7        1.0  0.45486328649813873  0.5022885460936237  0.3034130250107055  1.0000
  O   O8        1.0  0.26026042185378634  0.9981797566581463  0.19650192394779245  1.0000
  O   O9        1.0  0.5897028137240881  0.9014080984475258  0.9887035184642701  1.0000
  O   O10       1.0  0.47974238555769977  0.598779625014977  0.5111619439529421  1.0000
  O   O11       1.0  0.41032601217414577  0.09858413987007  0.011283325963830746  1.0000
  O   O12       1.0  0.5202625908714397  0.40123889043233874  0.4887938793243692  1.0000
  O   O13       1.0  0.48498381414162867  0.8204771811910376  0.10409800979444128  1.0000
  O   O14       1.0  0.40949915818310967  0.6796512852159469  0.3957336536200132  1.0000
  O   O15       1.0  0.5150130119540749  0.1795345346387833  0.8958926004134046  1.0000
  O   O16       1.0  0.590472081486219  0.3204039774439025  0.6042374642892129  1.0000
  O   O17       1.0  0.3480590890509704  0.468391387890037  0.6505805263320568  1.0000
  O   O18       1.0  0.46711602303572874  0.03157697515233341  0.8493259417620891  1.0000
  O   O19       1.0  0.651939307155381  0.5316222212388837  0.34942344939922526  1.0000
  O   O20       1.0  0.5328935079551159  0.9684304768094806  0.15066990586402085  1.0000
  O   O21       1.0  0.38068555161504497  0.3449473635149474  0.7695120899072877  1.0000
  O   O22       1.0  0.495058924215357  0.1550893535425928  0.7304309715258982  1.0000
  O   O23       1.0  0.6193127142374737  0.6550496162085295  0.23048419020045696  1.0000
  O   O24       1.0  0.5049457856556288  0.8449139273107207  0.2695638584929582  1.0000
  O   O25       1.0  0.6955022330487991  0.46788919792889067  0.5086873369621046  1.0000
  O   O26       1.0  0.6720040923786074  0.03217535233634549  0.9913773704918403  1.0000
  O   O27       1.0  0.3044747917185335  0.5321431932701444  0.49132028524859106  1.0000
  O   O28       1.0  0.32799210737611884  0.967833265026023  0.008633820344194007  1.0000
