data_image0
_chemical_formula_structural       Sm4H32C24S6O28
_chemical_formula_sum              "Sm4 H32 C24 S6 O28"
_cell_length_a       8.002144542866738
_cell_length_b       10.578236651547554
_cell_length_c       14.339443948256715
_cell_angle_alpha    71.40873364296556
_cell_angle_beta     75.7436785107211
_cell_angle_gamma    77.11757948769292

_space_group_name_H-M_alt    "P 1"
_space_group_IT_number       1

loop_
  _space_group_symop_operation_xyz
  'x, y, z'

loop_
  _atom_site_type_symbol
  _atom_site_label
  _atom_site_symmetry_multiplicity
  _atom_site_fract_x
  _atom_site_fract_y
  _atom_site_fract_z
  _atom_site_occupancy
  Sm  Sm1       1.0  0.5904109346218787  0.5923263603230142  0.3583854444309438  1.0000
  Sm  Sm2       1.0  0.40958604505314605  0.40767235172423716  0.641615365199847  1.0000
  Sm  Sm3       1.0  0.006661123770392382  0.8023834937026352  0.0971553614925966  1.0000
  Sm  Sm4       1.0  0.9933393034648501  0.19761725437307834  0.9028451812763264  1.0000
  H   H1        1.0  0.9319741672323545  0.3264967404301728  0.24495728590700594  1.0000
  H   H2        1.0  0.06802344023002851  0.6734989554419428  0.7550455556053137  1.0000
  H   H3        1.0  0.9124726392218248  0.3606900616797546  0.11743819826543242  1.0000
  H   H4        1.0  0.08752712702835196  0.639307673876587  0.882565250734295  1.0000
  H   H5        1.0  0.654161417929103  0.5652452769601481  0.06539093144785105  1.0000
  H   H6        1.0  0.34584012154955696  0.4347625739707296  0.9346105431129101  1.0000
  H   H7        1.0  0.4844325632575844  0.46920536701836113  0.08992545536170127  1.0000
  H   H8        1.0  0.5155749686071687  0.5307984092469054  0.9100712882803349  1.0000
  H   H9        1.0  0.9457032066637299  0.5481883797409353  0.6068422040734943  1.0000
  H   H10       1.0  0.054293773011302345  0.451810332306323  0.39315860555729637  1.0000
  H   H11       1.0  0.7312679564444977  0.5853600462528661  0.6752689519743599  1.0000
  H   H12       1.0  0.2687305212508874  0.41463765901016797  0.32473189252435464  1.0000
  H   H13       1.0  0.009050058248298878  0.8412839234573893  0.4278147142438371  1.0000
  H   H14       1.0  0.9909473400967101  0.15871275517370978  0.5721851307411113  1.0000
  H   H15       1.0  0.08736946078513337  0.9014619773022189  0.508169545547247  1.0000
  H   H16       1.0  0.9126283891229005  0.0985387441359507  0.4918292670699386  1.0000
  H   H17       1.0  0.5847271284270049  0.1291315384524978  0.2754998732006513  1.0000
  H   H18       1.0  0.4152758762660155  0.8708692158912895  0.7245003124098374  1.0000
  H   H19       1.0  0.4133688627072658  0.02860749870793459  0.3267684202695378  1.0000
  H   H20       1.0  0.5866328533439144  0.9713932389221753  0.6732305523800475  1.0000
  H   H21       1.0  0.43277246132527836  0.9540324668290057  0.11472321798991193  1.0000
  H   H22       1.0  0.5672303010091396  0.0459632483690839  0.8852796049755939  1.0000
  H   H23       1.0  0.24401657162188423  0.9830963329671789  0.20459805735391257  1.0000
  H   H24       1.0  0.7559836464089358  0.016905411447147904  0.7954008804277563  1.0000
  H   H25       1.0  0.18746569415379344  0.730913215973942  0.27139917302419997  1.0000
  H   H26       1.0  0.8125287410870782  0.2690915456590091  0.7285998387329329  1.0000
  H   H27       1.0  0.9862088727922114  0.727479682524276  0.3258249202183378  1.0000
  H   H28       1.0  0.013787269760477687  0.2725230624062008  0.674174339853849  1.0000
  H   H29       1.0  0.1929976455192416  0.8937564921543171  0.8880267659463924  1.0000
  H   H30       1.0  0.8069993342428389  0.10624220631329705  0.11197265214428143  1.0000
  H   H31       1.0  0.29088898823649595  0.7587114543709603  0.9479133722056757  1.0000
  H   H32       1.0  0.7091103596048498  0.24128827386262947  0.052086866819543304  1.0000
  C   C1        1.0  0.9224734452375216  0.5336887229839604  0.16331267645659148  1.0000
  C   C2        1.0  0.0775387900232829  0.46631101622056537  0.8366836894662909  1.0000
  C   C3        1.0  0.8689077511402059  0.3979752081289192  0.18385260012905752  1.0000
  C   C4        1.0  0.13109417402834106  0.6020245467422072  0.8161493690479062  1.0000
  C   C5        1.0  0.4148690130471874  0.6355733643528438  0.15348164050376312  1.0000
  C   C6        1.0  0.5851286276129029  0.36442836021377195  0.8465162628962232  1.0000
  C   C7        1.0  0.5484108913674318  0.5208677389422007  0.12341996258447097  1.0000
  C   C8        1.0  0.45159148549471695  0.47913603836654756  0.876578886914551  1.0000
  C   C9        1.0  0.744959633877471  0.6166606962396841  0.5185713754323868  1.0000
  C   C10       1.0  0.25503971405091613  0.3833390184142687  0.4814274720527152  1.0000
  C   C11       1.0  0.8215962090082911  0.6182597311229188  0.6044494172982268  1.0000
  C   C12       1.0  0.17840205943915063  0.38173897726855444  0.39555051798328833  1.0000
  C   C13       1.0  0.2031915506154575  0.7010457014990195  0.5052182234791046  1.0000
  C   C14       1.0  0.7968045586524751  0.2989510283165871  0.49478736624552505  1.0000
  C   C15       1.0  0.044864938094299554  0.813013766317468  0.5016158988691474  1.0000
  C   C16       1.0  0.9551333303531422  0.18698494207400526  0.49838403641236795  1.0000
  C   C17       1.0  0.6397518434651772  0.9367554659612766  0.24173898726836268  1.0000
  C   C18       1.0  0.36024795611329097  0.0632482779201169  0.7582574363088598  1.0000
  C   C19       1.0  0.5146149675350458  0.06087519940625441  0.2611592716874185  1.0000
  C   C20       1.0  0.4853867484726066  0.9391255450136741  0.7388403967322361  1.0000
  C   C21       1.0  0.2220531660824605  0.08709154333863718  0.05269542136743868  1.0000
  C   C22       1.0  0.7779511272959208  0.9129092209290093  0.9473052814338915  1.0000
  C   C23       1.0  0.3272803799152938  0.033127366320861995  0.1351299080309687  1.0000
  C   C24       1.0  0.6727217545882453  0.9668713718421884  0.8648715788230701  1.0000
  S   S1        1.0  0.637326374901022  0.40006090863432314  0.2286476867820042  1.0000
  S   S2        1.0  0.36267234502239626  0.5999418561438644  0.7713526076718651  1.0000
  S   S3        1.0  0.8591012413256748  0.7824733944869992  0.6020870097191917  1.0000
  S   S4        1.0  0.1408985252291686  0.21752429354062028  0.3979115688901302  1.0000
  S   S5        1.0  0.41549778139494714  0.1641985223409534  0.15483728721049056  1.0000
  S   S6        1.0  0.5845054326330653  0.835801215294758  0.8451624160770806  1.0000
  O   O1        1.0  0.8326731090300326  0.6177205911936099  0.21280928278011402  1.0000
  O   O2        1.0  0.16733310082106798  0.3822771668227531  0.7871939690935861  1.0000
  O   O3        1.0  0.05493942031593235  0.5644405835234139  0.09718870204338258  1.0000
  O   O4        1.0  0.9450626810769478  0.4355521123654995  0.9028163313828726  1.0000
  O   O5        1.0  0.4025763842086576  0.653390254944412  0.2391801857070988  1.0000
  O   O6        1.0  0.5974165199447156  0.3466094644088074  0.7608216419842647  1.0000
  O   O7        1.0  0.3191614730372904  0.7069889522427814  0.09194876992682306  1.0000
  O   O8        1.0  0.6808395821158724  0.2930087592883267  0.9080517174134569  1.0000
  O   O9        1.0  0.8268075124110581  0.6495261718990761  0.4287504554542423  1.0000
  O   O10       1.0  0.1731892580595512  0.35047353648679547  0.5712487491892944  1.0000
  O   O11       1.0  0.5956712782168196  0.577409977024871  0.5381736678824183  1.0000
  O   O12       1.0  0.404326780939158  0.42258974128486676  0.4618260539519594  1.0000
  O   O13       1.0  0.3095518523482566  0.7081608129309913  0.42300634485271604  1.0000
  O   O14       1.0  0.690451571101796  0.2918378944170002  0.5769914845718134  1.0000
  O   O15       1.0  0.21707480312137753  0.6114841605939034  0.5878173390898593  1.0000
  O   O16       1.0  0.7829217581012953  0.3885165509204143  0.4121809563364849  1.0000
  O   O17       1.0  0.7739725221891048  0.9527172718023421  0.17103111280442101  1.0000
  O   O18       1.0  0.22601930296207934  0.047281366600380195  0.8289641492127159  1.0000
  O   O19       1.0  0.6028891570662293  0.8237636668119704  0.296245763851104  1.0000
  O   O20       1.0  0.39710824114821003  0.1762330321885841  0.7037561684440162  1.0000
  O   O21       1.0  0.126004576031022  0.0087188949552157  0.046074567543598684  1.0000
  O   O22       1.0  0.8740007968718331  0.9912828687850844  0.9539243516912633  1.0000
  O   O23       1.0  0.2272423028397341  0.20327126788611588  0.9918917966575052  1.0000
  O   O24       1.0  0.7727716395152766  0.7967264885650208  0.008108296430719952  1.0000
  O   O25       1.0  0.0643429178660853  0.7679427543365803  0.2633900705016358  1.0000
  O   O26       1.0  0.9356528388226193  0.2320681138129217  0.7366114780345823  1.0000
  O   O27       1.0  0.1750392662428125  0.8001887715774814  0.9316454861667581  1.0000
  O   O28       1.0  0.824960290933518  0.1998099399480324  0.06835427053553644  1.0000
