data_image0
_chemical_formula_structural       AlH6C27N7O6F6
_chemical_formula_sum              "Al1 H6 C27 N7 O6 F6"
_cell_length_a       3.9475508559213055
_cell_length_b       18.06841754475347
_cell_length_c       18.178295991435565
_cell_angle_alpha    119.68929085668523
_cell_angle_beta     92.21559272347208
_cell_angle_gamma    91.11863260176581

_space_group_name_H-M_alt    "P 1"
_space_group_IT_number       1

loop_
  _space_group_symop_operation_xyz
  'x, y, z'

loop_
  _atom_site_type_symbol
  _atom_site_label
  _atom_site_symmetry_multiplicity
  _atom_site_fract_x
  _atom_site_fract_y
  _atom_site_fract_z
  _atom_site_occupancy
  Al  Al1       1.0  0.0031517075773451  0.0004898333324164002  0.5002890753563278  1.0000
  H   H1        1.0  0.49385402128083206  0.31471134411092555  0.4157128271590268  1.0000
  H   H2        1.0  0.5512667467853234  0.0805386562205612  0.8950439983692817  1.0000
  H   H3        1.0  0.5066867305633167  0.6080460873452083  0.18366603373205953  1.0000
  H   H4        1.0  0.5381054428826176  0.31896660413702455  0.8930546570736837  1.0000
  H   H5        1.0  0.4798489876089961  0.6013199748190273  0.4179957383188366  1.0000
  H   H6        1.0  0.5340402511811959  0.0754083002401345  0.18101743024411124  1.0000
  C   C1        1.0  0.4985392855952639  0.0649156706337024  0.43343329940260844  1.0000
  C   C2        1.0  0.5295657242405128  0.0666055068781759  0.6306568936142725  1.0000
  C   C3        1.0  0.4816018989150237  0.8693507325913076  0.43563184974291874  1.0000
  C   C4        1.0  0.5012470717964703  0.2454817094649897  0.3821081813469362  1.0000
  C   C5        1.0  0.515260455967372  0.19992312376579238  0.29348241539032227  1.0000
  C   C6        1.0  0.5502556535033278  0.11522918903055772  0.8603172832853759  1.0000
  C   C7        1.0  0.5457045199871332  0.2045724559126327  0.9037777134030235  1.0000
  C   C8        1.0  0.49493550236349654  0.5949136563556011  0.2959010599131347  1.0000
  C   C9        1.0  0.4986727162354185  0.6409091356793721  0.2523960772002951  1.0000
  C   C10       1.0  0.5394078054380529  0.24964151987812497  0.8592762747479767  1.0000
  C   C11       1.0  0.534272661062019  0.20392067160780414  0.7715693369405798  1.0000
  C   C12       1.0  0.5410741670558467  0.11462439205985933  0.7254088935482557  1.0000
  C   C13       1.0  0.5507623104757329  0.07249147902387419  0.7727042699288873  1.0000
  C   C14       1.0  0.4918821705967035  0.7289079942687097  0.2988494939032834  1.0000
  C   C15       1.0  0.47598309447059256  0.7740681256594755  0.38747090442819143  1.0000
  C   C16       1.0  0.46750711121281796  0.7252198538592793  0.4280217574706596  1.0000
  C   C17       1.0  0.4800181910092221  0.6371992259072456  0.38446875643271744  1.0000
  C   C18       1.0  0.5217401629464007  0.11058723486348042  0.24965622059076512  1.0000
  C   C19       1.0  0.5117838246263133  0.06846214710864021  0.2958146596737024  1.0000
  C   C20       1.0  0.5011137478705123  0.1113496160807372  0.3843677197473738  1.0000
  C   C21       1.0  0.4971754801251649  0.2005115848480443  0.4254085851115192  1.0000
  C   C22       1.0  0.511001379075701  0.37682383773159966  0.25289952323273474  1.0000
  C   C23       1.0  0.5400522546469588  0.24353770056944057  0.11924780469233551  1.0000
  C   C24       1.0  0.5216277108963894  0.2471557798827035  0.2467172672578856  1.0000
  C   C25       1.0  0.5057695150454294  0.5011797493019685  0.24837433872082224  1.0000
  C   C26       1.0  0.5273574446015914  0.37909752861195056  0.11992480557187696  1.0000
  C   C27       1.0  0.5442198255973026  0.2510314388922836  0.9971244949372676  1.0000
  N   N1        1.0  0.5262476726762486  0.3331507615775208  0.16397759985653693  1.0000
  N   N2        1.0  0.5409311414276629  0.20118684023513816  0.16197532307044332  1.0000
  N   N3        1.0  0.5062614762924369  0.3324891178653005  0.2934691230722848  1.0000
  N   N4        1.0  0.49973441324709  0.46151190907797  0.29442218750147486  1.0000
  N   N5        1.0  0.5192272944258391  0.4638824052213835  0.16353504976819278  1.0000
  N   N6        1.0  0.5509804845254322  0.20324334990937132  0.03512003876366525  1.0000
  N   N7        1.0  0.5350578080630726  0.33659830617977343  0.035635934293218  1.0000
  O   O1        1.0  0.2554160998842079  0.905421020002379  0.48844432232894525  1.0000
  O   O2        1.0  0.25223220178753547  0.0120216030574767  0.4175494936181252  1.0000
  O   O3        1.0  0.2896402964081162  0.08256340836024381  0.5926261232918506  1.0000
  O   O4        1.0  0.7167435131392069  0.907463455946086  0.41959543606623834  1.0000
  O   O5        1.0  0.756978682663437  0.013425692856166902  0.5949760347163392  1.0000
  O   O6        1.0  0.7440892335984516  0.08226908251827332  0.487485061066316  1.0000
  F   F1        1.0  0.5204298642433542  0.9823430539684921  0.25429557115783313  1.0000
  F   F2        1.0  0.4813420112370395  0.24399393239828274  0.5108417852523601  1.0000
  F   F3        1.0  0.45706615011084745  0.7660453745639231  0.5134944605970447  1.0000
  F   F4        1.0  0.49265190017306554  0.7733206374256625  0.256932390391107  1.0000
  F   F5        1.0  0.5300996011638688  0.2471561905287771  0.728451147192125  1.0000
  F   F6        1.0  0.5503798480206966  0.986299181695685  0.7307142659911964  1.0000
