data_image0
_chemical_formula_structural       Ba2H20C16N8O16
_chemical_formula_sum              "Ba2 H20 C16 N8 O16"
_cell_length_a       7.5006724038450265
_cell_length_b       9.530087448589136
_cell_length_c       9.822930564003702
_cell_angle_alpha    64.49485869559685
_cell_angle_beta     74.83658274324469
_cell_angle_gamma    83.78648301556909

_space_group_name_H-M_alt    "P 1"
_space_group_IT_number       1

loop_
  _space_group_symop_operation_xyz
  'x, y, z'

loop_
  _atom_site_type_symbol
  _atom_site_label
  _atom_site_symmetry_multiplicity
  _atom_site_fract_x
  _atom_site_fract_y
  _atom_site_fract_z
  _atom_site_occupancy
  Ba  Ba1       1.0  0.289363756050804  0.6174530913231493  0.38798027149262265  1.0000
  Ba  Ba2       1.0  0.7106329539852824  0.3825443139720263  0.6120215165440398  1.0000
  H   H1        1.0  0.6860280531144552  0.10549322477646679  0.463796648536487  1.0000
  H   H2        1.0  0.3139727962592929  0.894506529043447  0.5362033520464564  1.0000
  H   H3        1.0  0.5136582161282206  0.4702838281361322  0.11422613434076812  1.0000
  H   H4        1.0  0.4863426273772404  0.5297182407177417  0.8857739359122901  1.0000
  H   H5        1.0  0.6976871599310852  0.058813167237744296  0.049591883407281004  1.0000
  H   H6        1.0  0.3023109221760194  0.9411888960769089  0.9504077208552387  1.0000
  H   H7        1.0  0.20503506391066398  0.0562577123683141  0.0848082611808678  1.0000
  H   H8        1.0  0.7949699283565722  0.9437432374957521  0.9151894058913896  1.0000
  H   H9        1.0  0.185965196662508  0.12660635365782008  0.4872608802705116  1.0000
  H   H10       1.0  0.8140342808144964  0.8733899248415469  0.5127387828120218  1.0000
  H   H11       1.0  0.0160448779347604  0.47775714609050374  0.12203288601160263  1.0000
  H   H12       1.0  0.9839559737514492  0.5222414451760358  0.8779675909582207  1.0000
  H   H13       1.0  0.9612258975890666  0.8505327582989608  0.24181829584555442  1.0000
  H   H14       1.0  0.0387735670822664  0.14946932289446827  0.7581800077464607  1.0000
  H   H15       1.0  0.019383946680243  0.7539038976187555  0.1406421412064843  1.0000
  H   H16       1.0  0.9806182793894395  0.24609818911389436  0.8593566283760623  1.0000
  H   H17       1.0  0.6971678149348791  0.7624163939963892  0.3240844228729144  1.0000
  H   H18       1.0  0.3028288940321174  0.23758218392493552  0.6759158663330354  1.0000
  H   H19       1.0  0.7434746465902081  0.6622093401600039  0.22471786642994115  1.0000
  H   H20       1.0  0.2565220611334169  0.3377892276885461  0.7752834452198485  1.0000
  C   C1        1.0  0.6035929323368734  0.2777453689629111  0.0564378385325313  1.0000
  C   C2        1.0  0.3964079134810419  0.7222555373375954  0.943562708107393  1.0000
  C   C3        1.0  0.5893768301895791  0.29458211694269215  0.29981721692048774  1.0000
  C   C4        1.0  0.41062263661994075  0.7054176189984459  0.7001840843329675  1.0000
  C   C5        1.0  0.6982531504773916  0.0583842215856194  0.2687976367956324  1.0000
  C   C6        1.0  0.3017449350112642  0.9416155065495175  0.7312039426844804  1.0000
  C   C7        1.0  0.6663662778389678  0.12388315089420839  0.120003378223103  1.0000
  C   C8        1.0  0.333633187901455  0.8761177576730788  0.879996424199632  1.0000
  C   C9        1.0  0.20248077759993777  0.06673434643586519  0.2992478806585837  1.0000
  C   C10       1.0  0.7975200753296363  0.9332642549034559  0.7007515738673931  1.0000
  C   C11       1.0  0.09573383955050468  0.3120914410533189  0.31525952596246754  1.0000
  C   C12       1.0  0.9042656343706739  0.6879059899266338  0.6847406831770328  1.0000
  C   C13       1.0  0.1125642414169761  0.27990929638379924  0.07933471600131263  1.0000
  C   C14       1.0  0.8874407506759923  0.7200904707813365  0.9206654723455114  1.0000
  C   C15       1.0  0.17738098122917725  0.1288821609639044  0.1475967258642541  1.0000
  C   C16       1.0  0.8226226298914695  0.8711199637930777  0.8523986981600941  1.0000
  N   N1        1.0  0.5652425798439964  0.356047429332243  0.15269354295887885  1.0000
  N   N2        1.0  0.43475826597391887  0.643953476968264  0.8473070036810454  1.0000
  N   N3        1.0  0.6573528773667334  0.14765050206710129  0.35348636156158614  1.0000
  N   N4        1.0  0.3426465919295154  0.8523492540195932  0.6465128948041751  1.0000
  N   N5        1.0  0.1621864509959394  0.1649330404686111  0.37622341866401127  1.0000
  N   N6        1.0  0.8378144030027316  0.835064388244568  0.6237775346926853  1.0000
  N   N7        1.0  0.0722979357335092  0.3659442396557608  0.1682289664727961  1.0000
  N   N8        1.0  0.9277029123968673  0.6340555040913785  0.8317720565540013  1.0000
  O   O1        1.0  0.5793067871392948  0.3527859275986103  0.9193812861455515  1.0000
  O   O2        1.0  0.42069405867862025  0.6472149787018964  0.0806192604943732  1.0000
  O   O3        1.0  0.5514602441115315  0.36988215789195783  0.38197238361022556  1.0000
  O   O4        1.0  0.44853922269798824  0.6301175780491733  0.6180289176432295  1.0000
  O   O5        1.0  0.7631056237605736  0.9216970300697154  0.3367209506118273  1.0000
  O   O6        1.0  0.23689246190235738  0.07830388076434498  0.6632781075937118  1.0000
  O   O7        1.0  0.2587306932130247  0.9298611760929845  0.3722710176273623  1.0000
  O   O8        1.0  0.7412701584731849  0.07013741517356212  0.6277294593424543  1.0000
  O   O9        1.0  0.05746356930657019  0.39428262732490543  0.3914547049829834  1.0000
  O   O10       1.0  0.9425331359303188  0.6057159203780885  0.6085486515544996  1.0000
  O   O11       1.0  0.0860316606959088  0.34699024967316205  0.9412470820321344  1.0000
  O   O12       1.0  0.9139733303279627  0.653010690118123  0.05875160748396963  1.0000
  O   O13       1.0  0.06603003161554  0.7957304021133068  0.2009764980380808  1.0000
  O   O14       1.0  0.9339694339506154  0.2042693237550495  0.7990258256592212  1.0000
  O   O15       1.0  0.6648501493186316  0.6650385049443345  0.32166891221756794  1.0000
  O   O16       1.0  0.33514794079494686  0.33495889808406787  0.678333620036291  1.0000
