data_image0
_chemical_formula_structural       Rb12H24C24N28O24
_chemical_formula_sum              "Rb12 H24 C24 N28 O24"
_cell_length_a       7.383750566
_cell_length_b       10.51022262
_cell_length_c       17.436
_cell_angle_alpha    90.0
_cell_angle_beta     90.0
_cell_angle_gamma    90.0

_space_group_name_H-M_alt    "P 1"
_space_group_IT_number       1

loop_
  _space_group_symop_operation_xyz
  'x, y, z'

loop_
  _atom_site_type_symbol
  _atom_site_label
  _atom_site_symmetry_multiplicity
  _atom_site_fract_x
  _atom_site_fract_y
  _atom_site_fract_z
  _atom_site_occupancy
  Rb  Rb1       1.0  0.7587404192385849  0.8797958268176059  0.0810455379674266  1.0000
  Rb  Rb2       1.0  0.7412628515923814  0.1202039239012791  0.5810449644413822  1.0000
  Rb  Rb3       1.0  0.24126221275714957  0.12020297244664849  0.9189544620325735  1.0000
  Rb  Rb4       1.0  0.2587357174275412  0.8797958268176059  0.4189544620325734  1.0000
  Rb  Rb5       1.0  0.8101370633434828  0.7227506280927827  0.3356807754072051  1.0000
  Rb  Rb6       1.0  0.6898634988369425  0.2772481711714718  0.8356813489332424  1.0000
  Rb  Rb7       1.0  0.18986286000171054  0.2772491226261025  0.6643186510667576  1.0000
  Rb  Rb8       1.0  0.3101377788335213  0.7227506280927827  0.1643186510667576  1.0000
  Rb  Rb9       1.0  0.7411233560892754  0.48335988529232304  0.5094884147740331  1.0000
  Rb  Rb10      1.0  0.7588772060911495  0.5166408168811927  0.0094889883000704  1.0000
  Rb  Rb11      1.0  0.2588765672559177  0.5166408168811927  0.49051101169992967  1.0000
  Rb  Rb12      1.0  0.24112407157931415  0.48335893383769246  0.990511585225967  1.0000
  H   H1        1.0  0.6547620964150556  0.5645950818118806  0.19367171369579955  1.0000
  H   H2        1.0  0.8452371114400921  0.4354046689070046  0.6936722872218368  1.0000
  H   H3        1.0  0.3452378269301377  0.4354046689070046  0.8063282863042005  1.0000
  H   H4        1.0  0.15476145757982357  0.5645950818118806  0.3063277127781632  1.0000
  H   H5        1.0  0.8511094658231999  0.6020348215992399  0.1674265886671265  1.0000
  H   H6        1.0  0.6488856790561286  0.39796588057427573  0.6674277357192011  1.0000
  H   H7        1.0  0.14888910319671575  0.39796492911964515  0.8325728378068362  1.0000
  H   H8        1.0  0.3511115356385162  0.6020338701446093  0.3325722642807989  1.0000
  H   H9        1.0  0.013853393216045604  0.7350776743109576  0.9392205781142451  1.0000
  H   H10       1.0  0.4861458912939157  0.2649220764079274  0.4392194310621704  1.0000
  H   H11       1.0  0.9861505931049594  0.2649201734986661  0.060778848359717606  1.0000
  H   H12       1.0  0.5138472604249105  0.735079577220219  0.5607799954117922  1.0000
  H   H13       1.0  0.104797689613612  0.8088839130602564  0.009608281715991  1.0000
  H   H14       1.0  0.3952043035468905  0.19111583765862858  0.5096082817159912  1.0000
  H   H15       1.0  0.8952076510326707  0.19111393474936728  0.9903905712319342  1.0000
  H   H16       1.0  0.6047929111477546  0.8088858159695177  0.490391718284009  1.0000
  H   H17       1.0  0.6865602994964422  0.0125325604187836  0.9392263133746255  1.0000
  H   H18       1.0  0.813440262683976  0.9874662388454709  0.4392257398485881  1.0000
  H   H19       1.0  0.31343962384874413  0.9874662388454709  0.0607731130993372  1.0000
  H   H20       1.0  0.18656101498648786  0.0125325604187836  0.5607736866253745  1.0000
  H   H21       1.0  0.8773887934177014  0.9965431160391559  0.9024845147969743  1.0000
  H   H22       1.0  0.622611768762724  0.0034575861343669  0.4024845147969742  1.0000
  H   H23       1.0  0.12261248425276253  0.0034566346797291  0.0975154852030258  1.0000
  H   H24       1.0  0.3773881545824693  0.9965421645845183  0.5975154852030258  1.0000
  C   C1        1.0  0.5006425890145678  0.11041440718788209  0.161322551043817  1.0000
  C   C2        1.0  0.9993552645153088  0.8895834406217347  0.661322551043817  1.0000
  C   C3        1.0  0.4993573343306253  0.889585343531003  0.838677448956183  1.0000
  C   C4        1.0  0.0006460131551549002  0.1104153586425198  0.3386768754301457  1.0000
  C   C5        1.0  0.5006791557969308  0.9714589661089404  0.2652563661390205  1.0000
  C   C6        1.0  0.9993186977329458  0.0285407846099446  0.765255792612983  1.0000
  C   C7        1.0  0.49931805889771413  0.0285407846099446  0.7347447809130543  1.0000
  C   C8        1.0  0.0006839342627956003  0.9714589661089404  0.2347430603349423  1.0000
  C   C9        1.0  0.5207312957868384  0.188900851274262  0.2924604267033715  1.0000
  C   C10       1.0  0.9792665577430315  0.8111008023538915  0.7924604267033716  1.0000
  C   C11       1.0  0.4792659189077996  0.8111008023538915  0.7075401468226659  1.0000
  C   C12       1.0  0.0207320112768841  0.188900851274262  0.2075389997705912  1.0000
  C   C13       1.0  0.5384932717403503  0.4087306382859452  0.3118748566184877  1.0000
  C   C14       1.0  0.961509999090616  0.5912700638875705  0.811875430144525  1.0000
  C   C15       1.0  0.461506651604843  0.5912700638875705  0.688126290433587  1.0000
  C   C16       1.0  0.0384885699292994  0.4087296868313146  0.1881239963294306  1.0000
  C   C17       1.0  0.5230363574012387  0.3374914241350311  0.1851273227804526  1.0000
  C   C18       1.0  0.9769642047791793  0.6625054722199621  0.6851284698325273  1.0000
  C   C19       1.0  0.4769608572933991  0.662508326583854  0.814873824271622  1.0000
  C   C20       1.0  0.0230370728912845  0.3374952299535607  0.31487210369351004  1.0000
  C   C21       1.0  0.5102637157529344  0.2557985779372558  0.0608321862812602  1.0000
  C   C22       1.0  0.9897382007527613  0.7442011727816292  0.5608327598072975  1.0000
  C   C23       1.0  0.48973756191752943  0.7442021242362599  0.9391689607708216  1.0000
  C   C24       1.0  0.0102630769177026  0.2558004808465241  0.4391660931406278  1.0000
  N   N1        1.0  0.5150485469419337  0.2123865574219366  0.21313145216792861  1.0000
  N   N2        1.0  0.9849493065879359  0.7876112903876802  0.7131325992200033  1.0000
  N   N3        1.0  0.4849500220779818  0.7876131932969486  0.7868685478320714  1.0000
  N   N4        1.0  0.015051971082520803  0.212388460331205  0.2868674007799967  1.0000
  N   N5        1.0  0.4915252712776948  0.9921264636352659  0.1876904106446418  1.0000
  N   N6        1.0  0.0084753675575371  0.0078713841743507  0.6876898371186044  1.0000
  N   N7        1.0  0.5084746520674912  0.0078732870836191  0.8123107364074329  1.0000
  N   N8        1.0  0.9915245557876562  0.9921274150898967  0.3123101628813956  1.0000
  N   N9        1.0  0.5142996050660501  0.0696797800083147  0.3179450562055521  1.0000
  N   N10       1.0  0.9856968941385562  0.9303199707105704  0.8179450562055521  1.0000
  N   N11       1.0  0.48569896395387263  0.9303209221652082  0.6820560908465226  1.0000
  N   N12       1.0  0.014303029206637103  0.0696816829175759  0.1820537967423732  1.0000
  N   N13       1.0  0.5320209512613729  0.28688926096219797  0.3406589814177536  1.0000
  N   N14       1.0  0.9679782565937745  0.7131123926659483  0.8406595549437912  1.0000
  N   N15       1.0  0.4679776177585496  0.7131123926659483  0.6593415921082837  1.0000
  N   N16       1.0  0.03202031242614111  0.28688926096219797  0.15933987153016463  1.0000
  N   N17       1.0  0.5353932211907804  0.4340412344186859  0.23462204634090258  1.0000
  N   N18       1.0  0.964605986664367  0.565956613390938  0.7346237669190145  1.0000
  N   N19       1.0  0.4646053478291351  0.5659575648455686  0.7653785271851348  1.0000
  N   N20       1.0  0.03539258235554851  0.4340431373279543  0.2653762330809784  1.0000
  N   N21       1.0  0.5196234577136425  0.3583311349498288  0.1101473961917847  1.0000
  N   N22       1.0  0.9803743958162274  0.6416686157690562  0.6101491167699038  1.0000
  N   N23       1.0  0.4803778199568144  0.6416705186783176  0.8898526038082153  1.0000
  N   N24       1.0  0.0196255275289587  0.3583320864044666  0.3898508832300962  1.0000
  N   N25       1.0  0.4976251523066396  0.1320780777143966  0.08607536132140581  1.0000
  N   N26       1.0  0.0023754865285923  0.8679197700952201  0.5860753613214058  1.0000
  N   N27       1.0  0.5023747710385467  0.8679216730044885  0.9139246386785942  1.0000
  N   N28       1.0  0.9976271454671422  0.1320809320782956  0.4139234916265195  1.0000
  O   O1        1.0  0.49545958619534514  0.858842892901542  0.2898818536361532  1.0000
  O   O2        1.0  0.0045396983146162  0.14115685781735007  0.7898812801101158  1.0000
  O   O3        1.0  0.504540337149848  0.14115780927198068  0.7101181463638468  1.0000
  O   O4        1.0  0.9954602250305771  0.858842892901542  0.2101187198898842  1.0000
  O   O5        1.0  0.5458743444774188  0.5012995623873877  0.3586751548520297  1.0000
  O   O6        1.0  0.9541356979799147  0.4987001883314974  0.858677448956179  1.0000
  O   O7        1.0  0.454124224542504  0.4986992368768668  0.641324271621933  1.0000
  O   O8        1.0  0.04586287104000061  0.5013005138420183  0.1413219775177765  1.0000
  O   O9        1.0  0.5106375095282445  0.2786182658422121  0.9894958706125223  1.0000
  O   O10       1.0  0.9893616983269029  0.7213776790581434  0.48949529708648504  1.0000
  O   O11       1.0  0.4893664767927676  0.7213805334220424  0.0105058499655897  1.0000
  O   O12       1.0  0.0106355163677421  0.2786220716607417  0.5105041293874706  1.0000
  O   O13       1.0  0.7269774286142907  0.6365117316611161  0.1716052993805945  1.0000
  O   O14       1.0  0.7730217792408569  0.3634899219670373  0.6716047258545572  1.0000
  O   O15       1.0  0.2730238490561732  0.36348801905777606  0.8283947006194055  1.0000
  O   O16       1.0  0.22697814410433645  0.6365098287518478  0.32839527414544284  1.0000
  O   O17       1.0  0.0364259325387408  0.7313061081478764  0.9960191557696731  1.0000
  O   O18       1.0  0.4635733519712205  0.2686926911163781  0.4960191557696731  1.0000
  O   O19       1.0  0.9635807624328125  0.268689836752479  0.0039796971782522  1.0000
  O   O20       1.0  0.5364184454223351  0.7313089625117755  0.5039808442303269  1.0000
  O   O21       1.0  0.8123920149227859  0.0419210911062535  0.9448640743289758  1.0000
  O   O22       1.0  0.6876099015829098  0.9580786596126386  0.4448640743289758  1.0000
  O   O23       1.0  0.18760790842240035  0.958077708158001  0.05513592567102421  1.0000
  O   O24       1.0  0.3123913760875539  0.0419210911062535  0.5551364991970615  1.0000
