data_image0
_chemical_formula_structural       Hg4H36C48I8Br4N8
_chemical_formula_sum              "Hg4 H36 C48 I8 Br4 N8"
_cell_length_a       4.260219287108741
_cell_length_b       16.16250691832697
_cell_length_c       22.573547260115223
_cell_angle_alpha    89.99984793088245
_cell_angle_beta     90.0003392346477
_cell_angle_gamma    90.0007270482004

_space_group_name_H-M_alt    "P 1"
_space_group_IT_number       1

loop_
  _space_group_symop_operation_xyz
  'x, y, z'

loop_
  _atom_site_type_symbol
  _atom_site_label
  _atom_site_symmetry_multiplicity
  _atom_site_fract_x
  _atom_site_fract_y
  _atom_site_fract_z
  _atom_site_occupancy
  Hg  Hg1       1.0  0.07427432840792392  0.48074046059753783  0.8907519991666035  1.0000
  Hg  Hg2       1.0  0.5742754768964601  0.5192605306457166  0.10924859443262852  1.0000
  Hg  Hg3       1.0  0.5742701177118762  0.019265087972677  0.39074972097940025  1.0000
  Hg  Hg4       1.0  0.07426795120378671  0.9807402342629459  0.609250429613077  1.0000
  H   H1        1.0  0.7846114643069697  0.6434826605085533  0.8193988593173316  1.0000
  H   H2        1.0  0.28461856400710417  0.35651656847318963  0.18060021021219802  1.0000
  H   H3        1.0  0.28461372390377443  0.8565216238962421  0.3193989988898096  1.0000
  H   H4        1.0  0.7846327355644503  0.14348131741063946  0.6805991846536656  1.0000
  H   H5        1.0  0.7154060197049504  0.7031300680668408  0.7179539261834763  1.0000
  H   H6        1.0  0.21541798758197933  0.2968670703185978  0.2820450617825472  1.0000
  H   H7        1.0  0.2154195284875797  0.7968700879494577  0.2179546037180629  1.0000
  H   H8        1.0  0.7154068261485945  0.20312952530451162  0.7820439412509829  1.0000
  H   H9        1.0  0.25949873743098817  0.498757063111917  0.6497288317832925  1.0000
  H   H10       1.0  0.7595413860960889  0.5012383685567984  0.35027020817143756  1.0000
  H   H11       1.0  0.7595453109312232  0.0012396332951425005  0.14972924029298446  1.0000
  H   H12       1.0  0.259541758817278  0.9987656979007937  0.850272900656286  1.0000
  H   H13       1.0  0.31220294139001237  0.44774070680048794  0.7546991136133344  1.0000
  H   H14       1.0  0.8122378599009396  0.5522573782720458  0.24529998845381587  1.0000
  H   H15       1.0  0.8122308136995785  0.05226190303804401  0.25469899789531786  1.0000
  H   H16       1.0  0.3122569338274985  0.9477467002776195  0.7453032051658681  1.0000
  H   H17       1.0  0.7794924700009672  0.6927297879837299  0.6132163351724601  1.0000
  H   H18       1.0  0.27952681619726855  0.3072650926924609  0.3867818423503735  1.0000
  H   H19       1.0  0.2795158621589096  0.8072679428305422  0.11321788215084184  1.0000
  H   H20       1.0  0.7794822984137612  0.19272755652098536  0.8867825103410141  1.0000
  H   H21       1.0  0.6871050118942607  0.7355220552851377  0.5314838552626142  1.0000
  H   H22       1.0  0.18713035904536926  0.264476843397155  0.4685124413749406  1.0000
  H   H23       1.0  0.18712637061168647  0.7644775708060222  0.0314885713362685  1.0000
  H   H24       1.0  0.6871230842297963  0.2355219466007554  0.9685148132513745  1.0000
  H   H25       1.0  0.6106974924609787  0.7729891102722564  0.4273016608307927  1.0000
  H   H26       1.0  0.1106936335994604  0.22701014821919333  0.5726949887289906  1.0000
  H   H27       1.0  0.1106943403908147  0.7270091703082926  0.9273065579178308  1.0000
  H   H28       1.0  0.6107108695649117  0.2729907069085939  0.07269673659565261  1.0000
  H   H29       1.0  0.23577939067311598  0.5763786220632312  0.37305580213900674  1.0000
  H   H30       1.0  0.7357772618546009  0.4236253911891837  0.6269458678043804  1.0000
  H   H31       1.0  0.7357904436326665  0.9236203160208235  0.8730556596008583  1.0000
  H   H32       1.0  0.23577325062436927  0.076376891368632  0.12694601035209982  1.0000
  H   H33       1.0  0.3031169034598237  0.5358680851067775  0.478675959938002  1.0000
  H   H34       1.0  0.8031417352999312  0.4641330627394566  0.5213262323863788  1.0000
  H   H35       1.0  0.8031416180395465  0.9641331009454605  0.9786744239261153  1.0000
  H   H36       1.0  0.30310528409627585  0.03586247843875161  0.021327325399390404  1.0000
  C   C1        1.0  0.888104850948828  0.6135271702624152  0.7806757434986623  1.0000
  C   C2        1.0  0.38811686968826115  0.3864705531978601  0.2193238910124151  1.0000
  C   C3        1.0  0.3881179231793226  0.8864739193169343  0.2806762783887465  1.0000
  C   C4        1.0  0.8881272705520616  0.11352875390934263  0.7193237991286097  1.0000
  C   C5        1.0  0.8482382929131093  0.646042601160289  0.7241431525024995  1.0000
  C   C6        1.0  0.3482457482466472  0.35395560594862024  0.2758555490245485  1.0000
  C   C7        1.0  0.34825216726912345  0.8539579782050167  0.22414418215286258  1.0000
  C   C8        1.0  0.8482529996766531  0.1460433225134494  0.7758571773625249  1.0000
  C   C9        1.0  0.9798049338836705  0.6047300309380645  0.6754327086010578  1.0000
  C   C10       1.0  0.4798251859745761  0.3952655283385625  0.3245665910012363  1.0000
  C   C11       1.0  0.47983720245439804  0.8952674917533587  0.17543322950067625  1.0000
  C   C12       1.0  0.9798234324382803  0.10473425473013263  0.8245678421002438  1.0000
  C   C13       1.0  0.15242342763655609  0.5321594178961888  0.6864411821223159  1.0000
  C   C14       1.0  0.6524516639283602  0.4678381258569217  0.31355817461579966  1.0000
  C   C15       1.0  0.6524640068680366  0.9678406605577835  0.18644261981037152  1.0000
  C   C16       1.0  0.15246037817934172  0.0321655452956833  0.8135593949282552  1.0000
  C   C17       1.0  0.1821286625230485  0.5041284198534086  0.7442593390914923  1.0000
  C   C18       1.0  0.6821541690620735  0.4958679871017181  0.255739166664803  1.0000
  C   C19       1.0  0.6821541427133938  0.9958715101127565  0.24425940315759223  1.0000
  C   C20       1.0  0.18216624587069669  0.004134177640665402  0.7557408745990203  1.0000
  C   C21       1.0  0.9296876833710287  0.6372720560932806  0.6157260423912164  1.0000
  C   C22       1.0  0.429726937882009  0.3627239521442078  0.3842723121591263  1.0000
  C   C23       1.0  0.4297254474476873  0.8627267914861534  0.11572750109114341  1.0000
  C   C24       1.0  0.9296962158534043  0.1372741664847297  0.8842735114377618  1.0000
  C   C25       1.0  0.0010014316322611  0.6316255411184244  0.5126663758682285  1.0000
  C   C26       1.0  0.5010324414441528  0.36837334579480807  0.4873323594026148  1.0000
  C   C27       1.0  0.5010302422335258  0.8683741542912815  0.012667971894927597  1.0000
  C   C28       1.0  0.0010059781270683997  0.13162225775565162  0.9873338643540138  1.0000
  C   C29       1.0  0.8091537135180288  0.6996745544864994  0.49762396946466947  1.0000
  C   C30       1.0  0.30917472638451227  0.30032475766397954  0.5023751289993825  1.0000
  C   C31       1.0  0.3091704765070418  0.8003253329293756  0.9976260918705648  1.0000
  C   C32       1.0  0.809162657970127  0.19967150435973482  0.0023756645765758005  1.0000
  C   C33       1.0  0.7660757713547497  0.7218128820059846  0.4387138231978582  1.0000
  C   C34       1.0  0.26608574254296263  0.27818690290440873  0.5612834525005184  1.0000
  C   C35       1.0  0.2660844403872034  0.7781846383939666  0.9387177528295896  1.0000
  C   C36       1.0  0.7660817681523823  0.22181329036332192  0.061285724822525416  1.0000
  C   C37       1.0  0.9184488267518134  0.6766605867211054  0.39438418593885427  1.0000
  C   C38       1.0  0.4184528690032963  0.3233409518234467  0.6056145983362101  1.0000
  C   C39       1.0  0.4184549468860369  0.8233388783152195  0.8943858287052961  1.0000
  C   C40       1.0  0.9184490961157296  0.1766583292143764  0.1056164995457394  1.0000
  C   C41       1.0  0.1137001375859938  0.610066183467666  0.40790844455359837  1.0000
  C   C42       1.0  0.6137047635144199  0.3899349413506883  0.5920917525198703  1.0000
  C   C43       1.0  0.6137095896572689  0.889931572153685  0.9079087986408113  1.0000
  C   C44       1.0  0.11369296402539673  0.11006336549789349  0.09209317042176221  1.0000
  C   C45       1.0  0.15219146094046465  0.587784305659831  0.46701837960466724  1.0000
  C   C46       1.0  0.6522165186189497  0.4122163308777047  0.5329827488412775  1.0000
  C   C47       1.0  0.6522207502877536  0.9122158005959238  0.9670178122372377  1.0000
  C   C48       1.0  0.15218722916061722  0.0877798862134682  0.0329837592090385  1.0000
  I   I1        1.0  0.3581854827401187  0.33564964075304005  0.8664074152246786  1.0000
  I   I2        1.0  0.8581989425774735  0.6643523123599524  0.1335917410234373  1.0000
  I   I3        1.0  0.8581623466537779  0.16435821195430836  0.3664022480685389  1.0000
  I   I4        1.0  0.3582103423123185  0.835652403171885  0.6335920352054529  1.0000
  I   I5        1.0  0.6464170713776768  0.5824823426696355  0.9422005273815159  1.0000
  I   I6        1.0  0.1464116920061187  0.4175188929743213  0.057798379258152  1.0000
  I   I7        1.0  0.14640579869904974  0.9175228006068893  0.44219968384298625  1.0000
  I   I8        1.0  0.646422964766387  0.08248214733341543  0.5577987797973378  1.0000
  Br  Br1       1.0  0.8492241720635149  0.7052713041771382  0.31356031656827105  1.0000
  Br  Br2       1.0  0.3492081255666335  0.29472566880302514  0.6864370571187238  1.0000
  Br  Br3       1.0  0.34921250148692456  0.7947264183751201  0.8135633338616729  1.0000
  Br  Br4       1.0  0.8492268381637516  0.20527241075225783  0.1864397987810946  1.0000
  N   N1        1.0  0.050780243535889696  0.5437364333936968  0.7905324183272954  1.0000
  N   N2        1.0  0.5507884120074139  0.4562626221243562  0.20946593260466534  1.0000
  N   N3        1.0  0.5507944523919335  0.9562665645006803  0.290532102441972  1.0000
  N   N4        1.0  0.05081176005556641  0.04373805952122469  0.7094675774968735  1.0000
  N   N5        1.0  0.05296604010793969  0.6019259046291836  0.5701930556572423  1.0000
  N   N6        1.0  0.5530014499644409  0.39807130219626424  0.42980352588293885  1.0000
  N   N7        1.0  0.5530009566549481  0.8980724815571579  0.07019637639376701  1.0000
  N   N8        1.0  0.052978270062944  0.10192843757307202  0.9298050781106967  1.0000
