data_image0
_chemical_formula_structural       K2B2H62C48N18
_chemical_formula_sum              "K2 B2 H62 C48 N18"
_cell_length_a       10.401230018354081
_cell_length_b       12.147743536970589
_cell_length_c       13.230499783639186
_cell_angle_alpha    65.29927877074476
_cell_angle_beta     67.51966261705121
_cell_angle_gamma    89.43471394343015

_space_group_name_H-M_alt    "P 1"
_space_group_IT_number       1

loop_
  _space_group_symop_operation_xyz
  'x, y, z'

loop_
  _atom_site_type_symbol
  _atom_site_label
  _atom_site_symmetry_multiplicity
  _atom_site_fract_x
  _atom_site_fract_y
  _atom_site_fract_z
  _atom_site_occupancy
  K   K1        1.0  0.18776210133971458  0.19260483345206578  0.3888902948365569  1.0000
  K   K2        1.0  0.8122380347206714  0.8073935659289263  0.6111114881718651  1.0000
  B   B1        1.0  0.8826899329625773  0.08764215171521528  0.629985659824378  1.0000
  B   B2        1.0  0.11731143256074714  0.9123571685371201  0.3700146445207155  1.0000
  H   H1        1.0  0.0457230905750734  0.3846136042711734  0.8308525336702103  1.0000
  H   H2        1.0  0.9542759100446359  0.6153894027764367  0.16914404601580202  1.0000
  H   H3        1.0  0.21934052480640526  0.3667900413274197  0.8219260728839757  1.0000
  H   H4        1.0  0.7806582873796158  0.6332120435036118  0.17807318441109743  1.0000
  H   H5        1.0  0.0979284535807068  0.2379898724886829  0.8615040338592124  1.0000
  H   H6        1.0  0.9020691285067385  0.762011292343395  0.13849519029712817  1.0000
  H   H7        1.0  0.2801602181039512  0.20108697439381723  0.6877158116754103  1.0000
  H   H8        1.0  0.7198402967306875  0.7989132668031612  0.3122851515210528  1.0000
  H   H9        1.0  0.39848220636958587  0.33072631036191064  0.6493385800724667  1.0000
  H   H10       1.0  0.6015181187601186  0.6692730103632696  0.3506620371289415  1.0000
  H   H11       1.0  0.3522605961490726  0.3212388138828998  0.5362548469888466  1.0000
  H   H12       1.0  0.6477397289806247  0.6787605068422806  0.4637457702125688  1.0000
  H   H13       1.0  0.2856282778800646  0.5306561981276089  0.49037902657580196  1.0000
  H   H14       1.0  0.7143720462961909  0.4693431239061565  0.509619322922525  1.0000
  H   H15       1.0  0.3283586040989022  0.5373030600745636  0.6056600544465525  1.0000
  H   H16       1.0  0.6716427604709806  0.46269626148635706  0.39433798219545935  1.0000
  H   H17       1.0  0.15956095232724718  0.562564457054286  0.6066866364447208  1.0000
  H   H18       1.0  0.8404407910168954  0.43743670632262166  0.3933105803853253  1.0000
  H   H19       1.0  0.7547250067380631  0.295403287093606  0.6408630484397051  1.0000
  H   H20       1.0  0.24527758761257695  0.7045969549024703  0.3591342654400052  1.0000
  H   H21       1.0  0.06653252898205858  0.3336595711836239  0.17964620830518643  1.0000
  H   H22       1.0  0.9334667551183884  0.6663397508867844  0.8203532099504827  1.0000
  H   H23       1.0  0.06700155654225878  0.2915150914603899  0.06561578384397396  1.0000
  H   H24       1.0  0.9329956474065568  0.7084842306833109  0.9343857719263867  1.0000
  H   H25       1.0  0.0753115482580995  0.17951056755074288  0.201095429143308  1.0000
  H   H26       1.0  0.9246866957665248  0.8204887545563151  0.7989050578697103  1.0000
  H   H27       1.0  0.8612559857608274  0.04075063166416019  0.24190518096678215  1.0000
  H   H28       1.0  0.1387436771138724  0.9592505322222351  0.7580934174769284  1.0000
  H   H29       1.0  0.8570717735348408  0.15305341198251904  0.1036685460878176  1.0000
  H   H30       1.0  0.14292770027054758  0.8469468305596876  0.8963312181628992  1.0000
  H   H31       1.0  0.7029464404534166  0.09829894194123767  0.2437376335907758  1.0000
  H   H32       1.0  0.29705180325340297  0.9017003806020154  0.7562620975212156  1.0000
  H   H33       1.0  0.6916799568276771  0.32655693944659697  0.20567925159514303  1.0000
  H   H34       1.0  0.30831885535834397  0.6734451453844412  0.7943200056999303  1.0000
  H   H35       1.0  0.8475902471137997  0.3755335901817886  0.06821173086812156  1.0000
  H   H36       1.0  0.15241026708521585  0.6244666518875803  0.9317877205262803  1.0000
  H   H37       1.0  0.8412373360465183  0.41925430728152674  0.18253244740757432  1.0000
  H   H38       1.0  0.15876459763819636  0.5807477756947887  0.8174666272195809  1.0000
  H   H39       1.0  0.5884917923526487  0.08654284896019958  0.6531268939695636  1.0000
  H   H40       1.0  0.4115125049644276  0.913455548965615  0.3468728817125638  1.0000
  H   H41       1.0  0.8113083829908658  0.09753832305713668  0.8585992462074473  1.0000
  H   H42       1.0  0.18869459108746864  0.9024637594463341  0.14139951556339272  1.0000
  H   H43       1.0  0.5155480296880909  0.7319198628512921  0.8163029533723434  1.0000
  H   H44       1.0  0.4844491745785432  0.26807945885622075  0.18369935829905162  1.0000
  H   H45       1.0  0.44663092531487075  0.5854965123216188  0.9459003443334738  1.0000
  H   H46       1.0  0.5533683597390179  0.41450280844021137  0.054101341625283836  1.0000
  H   H47       1.0  0.6321295633272968  0.637318530723128  0.8669995129268459  1.0000
  H   H48       1.0  0.367868681015146  0.362680790947742  0.13300172998719964  1.0000
  H   H49       1.0  0.35772170165940753  0.78781671576737  0.09846101178019503  1.0000
  H   H50       1.0  0.642276732387984  0.2121835263752914  0.9015405771288982  1.0000
  H   H51       1.0  0.2914512608329005  0.6676755109998921  0.07826765925657507  1.0000
  H   H52       1.0  0.7085480239031766  0.3323238101981261  0.9217332708011554  1.0000
  H   H53       1.0  0.3483028365958134  0.8211157186979748  0.9572130796725631  1.0000
  H   H54       1.0  0.6516974885338838  0.17888360202720574  0.04278753752884521  1.0000
  H   H55       1.0  0.6533320225175174  0.6064855685397389  0.058991391972469505  1.0000
  H   H56       1.0  0.3466670725136111  0.39351283218648797  0.9410091920902134  1.0000
  H   H57       1.0  0.4681443582546194  0.5490837683438912  0.14517415633270758  1.0000
  H   H58       1.0  0.5318557778057666  0.45091463103710083  0.854827626675714  1.0000
  H   H59       1.0  0.5471744768231587  0.6723161423582481  0.15294185257471343  1.0000
  H   H60       1.0  0.4528268890179773  0.3276831774578922  0.8470592076714071  1.0000
  H   H61       1.0  0.9819856860361892  0.03828639732111579  0.5993172013886153  1.0000
  H   H62       1.0  0.018015679487135096  0.9617129229312198  0.40068310295647797  1.0000
  C   C1        1.0  0.5430708291012323  0.1666987955902641  0.4292179809534317  1.0000
  C   C2        1.0  0.4569294966640953  0.8333005242625263  0.5707841480500377  1.0000
  C   C3        1.0  0.8956687645414833  0.4777789714248824  0.6721939884840111  1.0000
  C   C4        1.0  0.10433562432668712  0.5222148241052978  0.32780298846553524  1.0000
  C   C5        1.0  0.13424911717059018  0.3376750604728399  0.8036916103408415  1.0000
  C   C6        1.0  0.8657507350912395  0.6623270243215487  0.19630657819688946  1.0000
  C   C7        1.0  0.31189202925096277  0.30114523112925434  0.633045061410904  1.0000
  C   C8        1.0  0.6881082958787345  0.698854089595926  0.36695555579051137  1.0000
  C   C9        1.0  0.24270251695661926  0.5082341819255304  0.5879307990712944  1.0000
  C   C10       1.0  0.7572990370003935  0.4917660605433838  0.41206682766473096  1.0000
  C   C11       1.0  0.18921218198334339  0.36873168777426446  0.6668707749162267  1.0000
  C   C12       1.0  0.8107895616786179  0.6312694751664479  0.33312719781485367  1.0000
  C   C13       1.0  0.0675939787720523  0.32663576227309216  0.647868050532523  1.0000
  C   C14       1.0  0.9324065354269634  0.6733644797962695  0.35213140086187894  1.0000
  C   C15       1.0  0.9397327235316977  0.3753054913608622  0.6539094398976815  1.0000
  C   C16       1.0  0.06026797973662917  0.624695672052688  0.3460888456897138  1.0000
  C   C17       1.0  0.8594927655386614  0.29545315046653536  0.6399071759610563  1.0000
  C   C18       1.0  0.14050878905397468  0.7045470911299887  0.3600919625770302  1.0000
  C   C19       1.0  0.02862998751214008  0.2600176945897629  0.16471594697724612  1.0000
  C   C20       1.0  0.9713694862932483  0.7399825479524507  0.8352838172734707  1.0000
  C   C21       1.0  0.8187547495653574  0.12359567560610428  0.2025193641856475  1.0000
  C   C22       1.0  0.1812436835285851  0.8764045678451424  0.7974799570203575  1.0000
  C   C23       1.0  0.8075774056198383  0.3441310476447725  0.16747989217918052  1.0000
  C   C24       1.0  0.19242310857917735  0.6558691944245892  0.8325195592152212  1.0000
  C   C25       1.0  0.8665973459025977  0.2283775381760477  0.22458307741638348  1.0000
  C   C26       1.0  0.13340297890928804  0.7716217829853276  0.7754167838839979  1.0000
  C   C27       1.0  0.811075136437644  0.18443122403244414  0.36121656430778176  1.0000
  C   C28       1.0  0.18892537807918328  0.8155690176007298  0.6387836429876472  1.0000
  C   C29       1.0  0.6670550769942379  0.15751514189672375  0.44855382543382666  1.0000
  C   C30       1.0  0.3329431663947631  0.8424841810827246  0.5514451497771304  1.0000
  C   C31       1.0  0.6726833753105338  0.11493395288756149  0.5624238321670277  1.0000
  C   C32       1.0  0.3273132617481521  0.8850626047873859  0.4375819769253937  1.0000
  C   C33       1.0  0.7569345104382988  0.018868053300707302  0.8631214319442364  1.0000
  C   C34       1.0  0.24306278601505937  0.9811266651387742  0.13687959279663175  1.0000
  C   C35       1.0  0.6246877868744105  0.8430469447134783  0.9152211579254088  1.0000
  C   C36       1.0  0.3753104577858508  0.15695237652118976  0.08478084088966402  1.0000
  C   C37       1.0  0.6583274201800009  0.9179369542709849  0.96432333751536  1.0000
  C   C38       1.0  0.34167574264983347  0.08206605001286958  0.03567350254743219  1.0000
  C   C39       1.0  0.6002597937020722  0.9028584097146606  0.08510254910203241  1.0000
  C   C40       1.0  0.3997419496420633  0.0971427536622471  0.9148946677280206  1.0000
  C   C41       1.0  0.5201669914237783  0.7240557772679991  0.9830175056326238  1.0000
  C   C42       1.0  0.47983248269942175  0.27594446483801965  0.016983014519119946  1.0000
  C   C43       1.0  0.5298167543729093  0.6670129372375938  0.8972545806419918  1.0000
  C   C44       1.0  0.4701814902873452  0.3329863839970741  0.10274741817308095  1.0000
  C   C45       1.0  0.37001376164391075  0.7523057142274182  0.03204332713509932  1.0000
  C   C46       1.0  0.629985523409978  0.247693606534412  0.9679583588236582  1.0000
  C   C47       1.0  0.549343984854417  0.6327636212510013  0.09145355597068071  1.0000
  C   C48       1.0  0.45065634027528023  0.367235699474179  0.9085470612307276  1.0000
  N   N1        1.0  0.854821898127895  0.5615169349837074  0.6889063493841263  1.0000
  N   N2        1.0  0.14517625307438206  0.43848699126376534  0.31109391275735737  1.0000
  N   N3        1.0  0.43950588040846134  0.17457214139633234  0.4132348257004211  1.0000
  N   N4        1.0  0.5604923642518002  0.8254271798383429  0.5867671731146515  1.0000
  N   N5        1.0  0.06222745542191887  0.22614921132005605  0.6309523438851768  1.0000
  N   N6        1.0  0.9377728693899668  0.773850109841312  0.36904751741520425  1.0000
  N   N7        1.0  0.9351545044635613  0.20814639271368657  0.6264707766066591  1.0000
  N   N8        1.0  0.0648470501290817  0.7918538488828375  0.3735283619314202  1.0000
  N   N9        1.0  0.8954063494939317  0.15927048863571258  0.4197052897915727  1.0000
  N   N10       1.0  0.10459482600663249  0.8407279115810198  0.5802939126574459  1.0000
  N   N11       1.0  0.8098793019509002  0.11639999477547751  0.5421238690457031  1.0000
  N   N12       1.0  0.19012499536617608  0.8835984031503442  0.4578759066364242  1.0000
  N   N13       1.0  0.7771829311810591  0.0041701736378386  0.7632384035350767  1.0000
  N   N14       1.0  0.22281739458426839  0.9958291462149516  0.23676372546839283  1.0000
  N   N15       1.0  0.6984757813541478  0.8964562283222222  0.7938135608497844  1.0000
  N   N16       1.0  0.3015247331626796  0.10354401331095178  0.2061866464456514  1.0000
  N   N17       1.0  0.5502567497492734  0.8924355308673526  0.18502109081099147  1.0000
  N   N18       1.0  0.4497429147144984  0.10756563083807437  0.8149812871378616  1.0000
