data_image0
_chemical_formula_structural       Cd2H28C36N4Cl4O12
_chemical_formula_sum              "Cd2 H28 C36 N4 Cl4 O12"
_cell_length_a       7.64033985490577
_cell_length_b       10.81224368188657
_cell_length_c       11.738174473510917
_cell_angle_alpha    89.99906957619064
_cell_angle_beta     90.00054868504206
_cell_angle_gamma    92.14545248263012

_space_group_name_H-M_alt    "P 1"
_space_group_IT_number       1

loop_
  _space_group_symop_operation_xyz
  'x, y, z'

loop_
  _atom_site_type_symbol
  _atom_site_label
  _atom_site_symmetry_multiplicity
  _atom_site_fract_x
  _atom_site_fract_y
  _atom_site_fract_z
  _atom_site_occupancy
  Cd  Cd1       1.0  0.7499943538137188  0.7500021413905811  0.22025752130848272  1.0000
  Cd  Cd2       1.0  0.2500058700230028  0.24999769128666574  0.7797479150583797  1.0000
  H   H1        1.0  0.8743052107166707  0.9857692474680702  0.1667844537095178  1.0000
  H   H2        1.0  0.625697141700357  0.5142359461335458  0.1667923249996335  1.0000
  H   H3        1.0  0.1257002989627907  0.014231505862795799  0.8332167230605164  1.0000
  H   H4        1.0  0.3743085711115342  0.4857685092252241  0.8332173709556443  1.0000
  H   H5        1.0  0.057513315794786  0.919142111417699  0.185787961678237  1.0000
  H   H6        1.0  0.4424760697615684  0.5808526093035552  0.18579592550234736  1.0000
  H   H7        1.0  0.9424880136736747  0.08085401801920969  0.8142072516649321  1.0000
  H   H8        1.0  0.5575188681844951  0.41914630277899084  0.8142069550915209  1.0000
  H   H9        1.0  0.08395951889395552  0.5486898727009332  0.4202344187877429  1.0000
  H   H10       1.0  0.4160283337672013  0.9513082044237036  0.4202239098411624  1.0000
  H   H11       1.0  0.9160289766657572  0.45131089661966667  0.5797624983239515  1.0000
  H   H12       1.0  0.5839654475933429  0.048693485602051084  0.5797627842251174  1.0000
  H   H13       1.0  0.9138901059996699  0.9171329073946167  0.6396746335766393  1.0000
  H   H14       1.0  0.5860974468367532  0.5828548758355366  0.6396727184469525  1.0000
  H   H15       1.0  0.08612335789685942  0.08286968959467339  0.3603299508888753  1.0000
  H   H16       1.0  0.4139005656047345  0.41715236348437656  0.36033442170029417  1.0000
  H   H17       1.0  0.9059128190945104  0.9100060707633444  0.4253185028352674  1.0000
  H   H18       1.0  0.594076052474307  0.589992818563509  0.42531567811549553  1.0000
  H   H19       1.0  0.09408262653888502  0.09000209656570488  0.5746852296122782  1.0000
  H   H20       1.0  0.4059192408666589  0.41001257217465786  0.574689758194772  1.0000
  H   H21       1.0  0.4830875817010921  0.7069697721231448  0.0128014280264566  1.0000
  H   H22       1.0  0.016896449565692313  0.793022388347616  0.0128053219673134  1.0000
  H   H23       1.0  0.5169218543067943  0.2930309775262785  0.9871997487556214  1.0000
  H   H24       1.0  0.9831229490298556  0.20696909615710973  0.9872043741267119  1.0000
  H   H25       1.0  0.4735099711558491  0.7020275409794862  0.8001785547076563  1.0000
  H   H26       1.0  0.026469831045425003  0.7979584270658931  0.8001815815906923  1.0000
  H   H27       1.0  0.5264880919998804  0.2979806239320907  0.1998209181417892  1.0000
  H   H28       1.0  0.9735403045629173  0.20203121500018278  0.1998255587250526  1.0000
  C   C1        1.0  0.14255798436732903  0.6298261835555221  0.20683794803075978  1.0000
  C   C2        1.0  0.3574198672874901  0.870167258917121  0.2068316996600288  1.0000
  C   C3        1.0  0.857430105041324  0.3701671815693429  0.7931581172137498  1.0000
  C   C4        1.0  0.6425708903936711  0.129827029337747  0.7931575502159377  1.0000
  C   C5        1.0  0.7499946027634224  0.7499946675177539  0.6569131539584845  1.0000
  C   C6        1.0  0.2500123680265319  0.250008861125302  0.3430922824014289  1.0000
  C   C7        1.0  0.15778324853787504  0.6368027710039286  0.419972447040152  1.0000
  C   C8        1.0  0.34219679858741614  0.8631962434933981  0.4199670615306061  1.0000
  C   C9        1.0  0.8422026802376977  0.36319892629635575  0.5800244700567561  1.0000
  C   C10       1.0  0.6577914938578432  0.1368008237771932  0.5800238921595167  1.0000
  C   C11       1.0  0.20639273655429954  0.691746443653045  0.5232574113115831  1.0000
  C   C12       1.0  0.2935954081479722  0.8082526302416614  0.5232559564110559  1.0000
  C   C13       1.0  0.7936008925377679  0.30825246975236803  0.4767343943023192  1.0000
  C   C14       1.0  0.7063958572384835  0.19175091323761964  0.47673670108226657  1.0000
  C   C15       1.0  0.2008171852121663  0.6936619913034008  0.3161987776367852  1.0000
  C   C16       1.0  0.2991611998653312  0.8063351149897714  0.3161973854592475  1.0000
  C   C17       1.0  0.7991713103295909  0.3063387780392901  0.6837955837112304  1.0000
  C   C18       1.0  0.7008282998078245  0.1936601000176239  0.683791864405947  1.0000
  C   C19       1.0  0.8418286861059202  0.8426616884069343  0.5952617597170473  1.0000
  C   C20       1.0  0.6581610629049454  0.6573305622695784  0.5952557659386528  1.0000
  C   C21       1.0  0.15817189311971455  0.1573446229332944  0.4047453804449859  1.0000
  C   C22       1.0  0.3418445990968877  0.34267296761535687  0.40474796657478856  1.0000
  C   C23       1.0  0.837417678323739  0.839739259212699  0.47690009235983405  1.0000
  C   C24       1.0  0.6625705081622757  0.6602568885773223  0.4769000453588318  1.0000
  C   C25       1.0  0.162585569198356  0.16026797522807357  0.5231036401185633  1.0000
  C   C26       1.0  0.3374262970213806  0.33975220304260734  0.5231045390071998  1.0000
  C   C27       1.0  0.6014639003713356  0.7250325317949942  0.9625575162335309  1.0000
  C   C28       1.0  0.8985127913173802  0.7749552376560518  0.9625546450495077  1.0000
  C   C29       1.0  0.39853747994310845  0.2749645230715742  0.037448772078839496  1.0000
  C   C30       1.0  0.10148969467671523  0.22503811391127465  0.0374482356089842  1.0000
  C   C31       1.0  0.596600642483111  0.7222882361796578  0.8442512210417094  1.0000
  C   C32       1.0  0.9033848053220838  0.7777006430858362  0.8442483386676186  1.0000
  C   C33       1.0  0.4034129737537456  0.27771713734161807  0.1557584749309058  1.0000
  C   C34       1.0  0.096634694749838  0.22229269254329856  0.1557528382006197  1.0000
  C   C35       1.0  0.7499994126768358  0.7499935774156794  0.7826056118157182  1.0000
  C   C36       1.0  0.25001535998983837  0.250009018353829  0.21739812073258946  1.0000
  N   N1        1.0  0.7499859505547165  0.7499955422126162  0.020752904546291997  1.0000
  N   N2        1.0  0.2500192545279276  0.2499996579511929  0.9792499761067219  1.0000
  N   N3        1.0  0.749992976558616  0.7499976549817331  0.4183590238625995  1.0000
  N   N4        1.0  0.2500050358649091  0.25000958436027076  0.5816455605209612  1.0000
  Cl  Cl1       1.0  0.1581657167596191  0.6150633539769074  0.6488472116171451  1.0000
  Cl  Cl2       1.0  0.3418270142702086  0.8849372485278624  0.6488423510762401  1.0000
  Cl  Cl3       1.0  0.841835968085782  0.38493925413771274  0.35114800167873733  1.0000
  Cl  Cl4       1.0  0.658170693442699  0.11506443778699799  0.3511477506869909  1.0000
  O   O1        1.0  0.9789912650770776  0.6142208589175979  0.1905655217111004  1.0000
  O   O2        1.0  0.5209954117113327  0.885778385223169  0.19056549988668084  1.0000
  O   O3        1.0  0.021003469718600298  0.3857743511591209  0.8094262839338383  1.0000
  O   O4        1.0  0.4789993738764338  0.114217750349475  0.8094297134364082  1.0000
  O   O5        1.0  0.26031688572798833  0.5936319610550951  0.1396466996360104  1.0000
  O   O6        1.0  0.23967003452820282  0.9063543034303404  0.1396374861012646  1.0000
  O   O7        1.0  0.7396774429585451  0.4063558447743461  0.8603502175903371  1.0000
  O   O8        1.0  0.7603285250296781  0.09363905195097288  0.8603500599630963  1.0000
  O   O9        1.0  0.9330461700329736  0.930859637599056  0.2188161324399189  1.0000
  O   O10       1.0  0.5669476001764835  0.5691418885567571  0.21882282415070617  1.0000
  O   O11       1.0  0.06695798010221671  0.06914019143356138  0.7811850443328581  1.0000
  O   O12       1.0  0.4330475916282169  0.43086165113063385  0.7811826121730688  1.0000
