data_image0
_chemical_formula_structural       Cu2H12C12N8Cl4
_chemical_formula_sum              "Cu2 H12 C12 N8 Cl4"
_cell_length_a       3.9482240043368475
_cell_length_b       7.584745420087087
_cell_length_c       14.528818019426216
_cell_angle_alpha    89.99955090446393
_cell_angle_beta     90.00188300205092
_cell_angle_gamma    94.31217527989091

_space_group_name_H-M_alt    "P 1"
_space_group_IT_number       1

loop_
  _space_group_symop_operation_xyz
  'x, y, z'

loop_
  _atom_site_type_symbol
  _atom_site_label
  _atom_site_symmetry_multiplicity
  _atom_site_fract_x
  _atom_site_fract_y
  _atom_site_fract_z
  _atom_site_occupancy
  Cu  Cu1       1.0  0.6137212552773408  0.3599807143806117  0.14093890169188225  1.0000
  Cu  Cu2       1.0  0.3863210499249591  0.6399961793283423  0.640947833611321  1.0000
  H   H1        1.0  0.23742402527022924  0.9148750979395285  0.2475912314058775  1.0000
  H   H2        1.0  0.7625769265893894  0.08512170621825277  0.7475853939209784  1.0000
  H   H3        1.0  0.9107580015787138  0.9915982531536968  0.0672618451884759  1.0000
  H   H4        1.0  0.08924910366798848  0.008378046169823999  0.5672777349962033  1.0000
  H   H5        1.0  0.10242424069570433  0.38287038381204747  0.3406928992912839  1.0000
  H   H6        1.0  0.8975601772916731  0.6171372747742724  0.8406826305549301  1.0000
  H   H7        1.0  0.3925830117111744  0.7211359244954634  0.3829039976113933  1.0000
  H   H8        1.0  0.6073508595229883  0.2788870368324154  0.8829051038562525  1.0000
  H   H9        1.0  0.3237187907116166  0.5622484156207433  0.9442167258736944  1.0000
  H   H10       1.0  0.6762609578429916  0.43775414651899774  0.4442293307250296  1.0000
  H   H11       1.0  0.5450890297241245  0.9183922721239953  0.9258479115992129  1.0000
  H   H12       1.0  0.4549594221987405  0.0816119489804592  0.4258381005548699  1.0000
  C   C1        1.0  0.08910884878754638  0.5071318031680361  0.3046676494124084  1.0000
  C   C2        1.0  0.9108883919457184  0.49289345484571356  0.8046717382971877  1.0000
  C   C3        1.0  0.23501674430600875  0.6734673179681322  0.3255264563862355  1.0000
  C   C4        1.0  0.7649555471874336  0.3265404804769148  0.8255313972252694  1.0000
  C   C5        1.0  0.9568678914424567  0.6851517960934076  0.19404789044428836  1.0000
  C   C6        1.0  0.04314411993052402  0.31484825393000193  0.694047071554877  1.0000
  C   C7        1.0  0.7951421068640129  0.7229534518966786  0.1088110515963407  1.0000
  C   C8        1.0  0.20486865440908988  0.2770461971645161  0.6088213168756766  1.0000
  C   C9        1.0  0.4842627921730199  0.6473909531091095  0.9884947232944438  1.0000
  C   C10       1.0  0.515762227973383  0.3526217948000578  0.4884967332708214  1.0000
  C   C11       1.0  0.5915951451900411  0.8238970761193515  0.9793337074951934  1.0000
  C   C12       1.0  0.4084469449765606  0.17610126550804486  0.4793307249251697  1.0000
  N   N1        1.0  0.9172498086288312  0.5164507294522237  0.222999486220985  1.0000
  N   N2        1.0  0.08272040200129283  0.4835304176241308  0.7230072754241661  1.0000
  N   N3        1.0  0.14777684125719753  0.7834463354886052  0.25508726356876105  1.0000
  N   N4        1.0  0.8522066413673103  0.21656357031069715  0.7550995297120905  1.0000
  N   N5        1.0  0.7843004721798508  0.8688182219920363  0.0559833015122564  1.0000
  N   N6        1.0  0.21574044041961568  0.1311754510442853  0.5559735745506416  1.0000
  N   N7        1.0  0.6132630517639585  0.5863009120002544  0.0690812709153832  1.0000
  N   N8        1.0  0.38674248306055864  0.4136806517574882  0.5690821415519665  1.0000
  Cl  Cl1       1.0  0.6143314129696834  0.13209432790367967  0.241513256208421  1.0000
  Cl  Cl2       1.0  0.3856310996327821  0.8679051085021854  0.7415027100673299  1.0000
  Cl  Cl3       1.0  0.22597897867209576  0.2287744313870732  0.0421642502791144  1.0000
  Cl  Cl4       1.0  0.7739947922823943  0.7712232216992517  0.5421861127442327  1.0000
