data_image0
_chemical_formula_structural       U2H16C12O12
_chemical_formula_sum              "U2 H16 C12 O12"
_cell_length_a       5.522930686036245
_cell_length_b       8.468717952348904
_cell_length_c       10.46599121583767
_cell_angle_alpha    95.79906886846581
_cell_angle_beta     81.356164912951
_cell_angle_gamma    79.86031772522362

_space_group_name_H-M_alt    "P 1"
_space_group_IT_number       1

loop_
  _space_group_symop_operation_xyz
  'x, y, z'

loop_
  _atom_site_type_symbol
  _atom_site_label
  _atom_site_symmetry_multiplicity
  _atom_site_fract_x
  _atom_site_fract_y
  _atom_site_fract_z
  _atom_site_occupancy
  U   U1        1.0  0.49146773069455935  0.9796688357713276  0.7441816468167062  1.0000
  U   U2        1.0  0.50854176217986  0.020344054778824706  0.255803853007464  1.0000
  H   H1        1.0  0.15797250982634378  0.6643891476764165  0.343021352602797  1.0000
  H   H2        1.0  0.8420100825647198  0.33563064915075097  0.6569738426856588  1.0000
  H   H3        1.0  0.9117040746007489  0.7681884971638765  0.46103970186100446  1.0000
  H   H4        1.0  0.08827372657713542  0.23181571265403278  0.5389557010257207  1.0000
  H   H5        1.0  0.2844116948793669  0.4650944239779236  0.49321968834622243  1.0000
  H   H6        1.0  0.7156358022763527  0.5349232148560646  0.506752287062767  1.0000
  H   H7        1.0  0.06531321390450985  0.5831729796577603  0.6244935578184183  1.0000
  H   H8        1.0  0.9347436301429827  0.4168295313205448  0.37551166002786834  1.0000
  H   H9        1.0  0.992600506694487  0.3242554261527529  0.9457608214377302  1.0000
  H   H10       1.0  0.007381566630265023  0.6757442891392029  0.054265689111602504  1.0000
  H   H11       1.0  0.8268973361201901  0.37317056390494224  0.10840657932865136  1.0000
  H   H12       1.0  0.17308000721741482  0.6268104012962822  0.8916114405441888  1.0000
  H   H13       1.0  0.7129566571360401  0.5923675752652215  0.9677620236208712  1.0000
  H   H14       1.0  0.2870263133228335  0.4076384246815293  0.0322539639272534  1.0000
  H   H15       1.0  0.6258019734856222  0.45112295439433586  0.8568144588702894  1.0000
  H   H16       1.0  0.37416538835691443  0.5488626296171261  0.14322868202517466  1.0000
  C   C1        1.0  0.25622279520426616  0.8132688708177086  0.4936429245229874  1.0000
  C   C2        1.0  0.7437904664340569  0.1867266022760674  0.5063495128283932  1.0000
  C   C3        1.0  0.10188282611823501  0.6954138813698235  0.4492980344338804  1.0000
  C   C4        1.0  0.8981068409749258  0.30460874626701423  0.5507022198374187  1.0000
  C   C5        1.0  0.10005064545742937  0.5459323281031202  0.518656942141682  1.0000
  C   C6        1.0  0.8999484592671153  0.4540856598549112  0.4813316741949621  1.0000
  C   C7        1.0  0.7167718548790064  0.1883906835519085  0.9892379539065246  1.0000
  C   C8        1.0  0.283215972071126  0.8115979406756039  0.010758004992879914  1.0000
  C   C9        1.0  0.8056319974202567  0.3460667924229098  0.006210860910165601  1.0000
  C   C10       1.0  0.19435320095111314  0.6539322156386403  0.9938076330571306  1.0000
  C   C11       1.0  0.6322511542070188  0.4827947873867871  0.9606579995532983  1.0000
  C   C12       1.0  0.3677648261620234  0.5172007691925272  0.0393629211397908  1.0000
  O   O1        1.0  0.22854747757129706  0.14051704060150877  0.7436965398988846  1.0000
  O   O2        1.0  0.7714470252678041  0.8594784723357233  0.2562547307750833  1.0000
  O   O3        1.0  0.7504845042985694  0.8184112793111493  0.7497415382619578  1.0000
  O   O4        1.0  0.24952569006162414  0.1815801147681526  0.2502453915719371  1.0000
  O   O5        1.0  0.2877628989224661  0.9267248856865109  0.42366882990291543  1.0000
  O   O6        1.0  0.712283170394656  0.07326087237339611  0.576309396207634  1.0000
  O   O7        1.0  0.3458875944965101  0.8032661796496184  0.5981794143763253  1.0000
  O   O8        1.0  0.6541023187662917  0.1967444407551824  0.40180715688217117  1.0000
  O   O9        1.0  0.6327705421768288  0.15334728795796335  0.8857155941040986  1.0000
  O   O10       1.0  0.3671340897612793  0.8466719603313492  0.11431278291942702  1.0000
  O   O11       1.0  0.7275082753460397  0.09526564608108148  0.07768743727775981  1.0000
  O   O12       1.0  0.27258565477121993  0.904693833759893  0.9223072699531585  1.0000
