data_image0
_chemical_formula_structural       Zn6P4H32C40O28
_chemical_formula_sum              "Zn6 P4 H32 C40 O28"
_cell_length_a       8.922603906818207
_cell_length_b       11.347991258765234
_cell_length_c       14.24118088935572
_cell_angle_alpha    113.48523577039734
_cell_angle_beta     107.99554083396215
_cell_angle_gamma    90.0145190738804

_space_group_name_H-M_alt    "P 1"
_space_group_IT_number       1

loop_
  _space_group_symop_operation_xyz
  'x, y, z'

loop_
  _atom_site_type_symbol
  _atom_site_label
  _atom_site_symmetry_multiplicity
  _atom_site_fract_x
  _atom_site_fract_y
  _atom_site_fract_z
  _atom_site_occupancy
  Zn  Zn1       1.0  0.9161247131656794  0.8051421214998911  0.8952388938601172  1.0000
  Zn  Zn2       1.0  0.5838187557071992  0.9099560741781403  0.1047939699469467  1.0000
  Zn  Zn3       1.0  0.08387507727459113  0.1948579534699775  0.10476137904746  1.0000
  Zn  Zn4       1.0  0.4161823746256985  0.09004496738711511  0.895205461620634  1.0000
  Zn  Zn5       1.0  0.7500472663305049  0.6864753983030454  3.3933825122362046e-05  1.0000
  Zn  Zn6       1.0  0.24995235596205845  0.3135237061093433  0.9999659998254415  1.0000
  P   P1        1.0  0.05264543472888051  0.038997449618236105  0.8476821720760696  1.0000
  P   P2        1.0  0.4473028731524948  0.1912838644699733  0.15217863914455887  1.0000
  P   P3        1.0  0.9473541842258728  0.9610016527301114  0.15231705808784568  1.0000
  P   P4        1.0  0.5526967558156741  0.8087152440705053  0.847822701479302  1.0000
  H   H1        1.0  0.8349716962160586  0.30391911362352886  0.8546259664383058  1.0000
  H   H2        1.0  0.664653467947453  0.4493047622749912  0.145103999405336  1.0000
  H   H3        1.0  0.16502910449702313  0.6960799909548571  0.1453741935885589  1.0000
  H   H4        1.0  0.33534530554440073  0.55069627895827  0.8548949794096501  1.0000
  H   H5        1.0  0.9988413271082309  0.0620459745645618  0.5951368099715068  1.0000
  H   H6        1.0  0.501323472454672  0.4668159419415901  0.4047901994580485  1.0000
  H   H7        1.0  0.0011584599942366693  0.9379540983412581  0.40486275944941497  1.0000
  H   H8        1.0  0.49867867148883266  0.5331841312962169  0.5952098227154751  1.0000
  H   H9        1.0  0.025656484464569525  0.4741931757478854  0.6877156137396909  1.0000
  H   H10       1.0  0.47415342265306054  0.7864065450707186  0.3122676475725896  1.0000
  H   H11       1.0  0.9743422990406929  0.5258078716775217  0.3122854755352408  1.0000
  H   H12       1.0  0.5258465392727204  0.21359450252067805  0.6877336680786357  1.0000
  H   H13       1.0  0.8509182006597485  0.962274431304316  0.6719882083409346  1.0000
  H   H14       1.0  0.64909742391729  0.29030647164408657  0.32784388926127406  1.0000
  H   H15       1.0  0.1490834421784371  0.037722732325093496  0.32801149954821074  1.0000
  H   H16       1.0  0.3509038779011179  0.70969554254269  0.6721565850499687  1.0000
  H   H17       1.0  0.778106569876414  0.0607547953818823  0.7781143675642282  1.0000
  H   H18       1.0  0.7218919029522438  0.28270444872398315  0.22172079235903644  1.0000
  H   H19       1.0  0.22189271945853056  0.9392423699795885  0.22188559105896388  1.0000
  H   H20       1.0  0.2781078841502236  0.7172956241818368  0.7782787770618852  1.0000
  H   H21       1.0  0.12759483904668661  0.44245697285907687  0.431886319144084  1.0000
  H   H22       1.0  0.37256837140267157  0.0104509873401213  0.5683285086868252  1.0000
  H   H23       1.0  0.8724037729730656  0.5575431019448017  0.5681137273871926  1.0000
  H   H24       1.0  0.6274314156997889  0.9895490855657058  0.4316710607340966  1.0000
  H   H25       1.0  0.0355381656063045  0.2753499435852689  0.35237969549755377  1.0000
  H   H26       1.0  0.4646529767212471  0.9227434939410698  0.6476961042544572  1.0000
  H   H27       1.0  0.9644604430756447  0.7246501291545684  0.6476196475470672  1.0000
  H   H28       1.0  0.5353468103812206  0.0772565789647501  0.3523034651664716  1.0000
  H   H29       1.0  0.24037837914669785  0.31277255535979986  0.4372631684679433  1.0000
  H   H30       1.0  0.2597594055539573  0.8753350190655809  0.5629352822295032  1.0000
  H   H31       1.0  0.7596203976829656  0.68722848793751  0.5627365138336913  1.0000
  H   H32       1.0  0.7402403815485104  0.12466505384023918  0.43706428719142565  1.0000
  C   C1        1.0  0.9069503435195262  0.5327125941147627  0.8488004931057346  1.0000
  C   C2        1.0  0.5927324840026673  0.6839020243435386  0.15108453870623614  1.0000
  C   C3        1.0  0.09304928211083315  0.4672865123616675  0.1512001440314776  1.0000
  C   C4        1.0  0.4072678075429295  0.31610096023472783  0.8489160484857121  1.0000
  C   C5        1.0  0.9310903364556966  0.4014118940126041  0.7790160957154059  1.0000
  C   C6        1.0  0.5686240498331757  0.6223679586584439  0.22085336632193983  1.0000
  C   C7        1.0  0.06891047093299113  0.5985872146938718  0.22098547128474882  1.0000
  C   C8        1.0  0.43137455551096343  0.377632112017345  0.7791452732360397  1.0000
  C   C9        1.0  0.8878315472651723  0.2918369189509846  0.792365875370244  1.0000
  C   C10       1.0  0.6119219849063812  0.49946365999630166  0.20745134291789927  1.0000
  C   C11       1.0  0.11217026372072073  0.7081612152359041  0.20763417177590782  1.0000
  C   C12       1.0  0.388077967005998  0.5005373814029568  0.7925478622733877  1.0000
  C   C13       1.0  0.9131633837612798  0.1688483691896039  0.7272032135128228  1.0000
  C   C14       1.0  0.5867826395426478  0.4416371242356547  0.2726607945904362  1.0000
  C   C15       1.0  0.086837416951802  0.8311507353887747  0.2727969465140418  1.0000
  C   C16       1.0  0.41321950440085703  0.5583629490021523  0.7273392275830801  1.0000
  C   C17       1.0  0.979438690166738  0.15722085083128687  0.6470337339764923  1.0000
  C   C18       1.0  0.5206176829591557  0.510128896494585  0.35289799308156933  1.0000
  C   C19       1.0  0.020560932125817995  0.842778253581102  0.3529661996740714  1.0000
  C   C20       1.0  0.47938361885924524  0.4898731176921914  0.6471024812296662  1.0000
  C   C21       1.0  0.016741507415432007  0.26603753679714265  0.6306969801192537  1.0000
  C   C22       1.0  0.4832416497707116  0.6352734409035606  0.3692694008557922  1.0000
  C   C23       1.0  0.9832584444969473  0.7339635046021158  0.36930222507203325  1.0000
  C   C24       1.0  0.5167583121550764  0.36472760668783627  0.6307319147954331  1.0000
  C   C25       1.0  0.9945392000410962  0.3886437158706571  0.6979823389270053  1.0000
  C   C26       1.0  0.5053136988726337  0.6906148143077927  0.3019686223515166  1.0000
  C   C27       1.0  0.005460593736977201  0.611356361163253  0.3020186374672136  1.0000
  C   C28       1.0  0.49468491314711843  0.30938526049608583  0.69803142417976  1.0000
  C   C29       1.0  0.8778233951776642  0.052014180153420894  0.7467928515203965  1.0000
  C   C30       1.0  0.6221820346348181  0.305229377142247  0.253048980853336  1.0000
  C   C31       1.0  0.12217858061813303  0.9479849225269065  0.2532068313961204  1.0000
  C   C32       1.0  0.37781909903588234  0.6947716664870499  0.7469511542008931  1.0000
  C   C33       1.0  0.07757317715147852  0.24857655807866055  0.5404444740440653  1.0000
  C   C34       1.0  0.4223874217802718  0.7079967444561106  0.4595377497071809  1.0000
  C   C35       1.0  0.9224254315304706  0.7514235146611697  0.45955486900056286  1.0000
  C   C36       1.0  0.5776132074472927  0.2920013875007399  0.5404613675760217  1.0000
  C   C37       1.0  0.12295920861581071  0.3447053090381189  0.4288737233052728  1.0000
  C   C38       1.0  0.37715619644600207  0.9156610163455384  0.5712509828455765  1.0000
  C   C39       1.0  0.8770395682138458  0.6552957342591911  0.5711259589963618  1.0000
  C   C40       1.0  0.6228446042670799  0.0843380882328404  0.428749177181281  1.0000
  O   O1        1.0  0.07562007191214092  0.1670693267740901  0.9543282061706505  1.0000
  O   O2        1.0  0.4242399374412287  0.21273623225233956  0.045559387031630566  1.0000
  O   O3        1.0  0.924379886675837  0.8329317187532651  0.0456724059939333  1.0000
  O   O4        1.0  0.5757596815135316  0.7872628700960077  0.9544398431322916  1.0000
  O   O5        1.0  0.03449462865606983  0.9204464645383578  0.8703879040884173  1.0000
  O   O6        1.0  0.4653172905808988  0.049985088588371716  0.1293318654626177  1.0000
  O   O7        1.0  0.9655051651220106  0.07955361249555183  0.12961307230580127  1.0000
  O   O8        1.0  0.5346838531032105  0.9500159612330633  0.8706703800515568  1.0000
  O   O9        1.0  0.19188002207181404  0.03947359953144771  0.8066730916721951  1.0000
  O   O10       1.0  0.3081700712378678  0.23276007777527502  0.1932843585246999  1.0000
  O   O11       1.0  0.8081197717062667  0.9605264775024622  0.19332788472202367  1.0000
  O   O12       1.0  0.6918307294752142  0.7672390268031039  0.8067158015021647  1.0000
  O   O13       1.0  0.8149801796521602  0.5374993481488843  0.9034677640995951  1.0000
  O   O14       1.0  0.6848206875916463  0.6340924911468947  0.09649208794044031  1.0000
  O   O15       1.0  0.1850191096827842  0.4624978172125863  0.09653219452359707  1.0000
  O   O16       1.0  0.3151819641327904  0.36591049582740715  0.9035096554907511  1.0000
  O   O17       1.0  0.9786951741783059  0.629558694706965  0.8483001426459252  1.0000
  O   O18       1.0  0.520941599060052  0.781179117489394  0.1515255748648201  1.0000
  O   O19       1.0  0.021303276369344825  0.3704404136675238  0.1517009716016346  1.0000
  O   O20       1.0  0.47905852767564044  0.2188228985954339  0.8484753765567703  1.0000
  O   O21       1.0  0.07413690962269472  0.35495696010904254  0.5194987628184364  1.0000
  O   O22       1.0  0.4258305548248842  0.8353503315694725  0.48054604208120816  1.0000
  O   O23       1.0  0.9258617023970575  0.6450431146948361  0.4805012837128402  1.0000
  O   O24       1.0  0.5741690641298761  0.16464877077886797  0.5194531880827141  1.0000
  O   O25       1.0  0.1232598953749928  0.14874950421578603  0.48907389633331627  1.0000
  O   O26       1.0  0.37666948798403155  0.6594892898820036  0.5108634158669574  1.0000
  O   O27       1.0  0.8767398917274749  0.8512505686900338  0.5109256730876125  1.0000
  O   O28       1.0  0.623331312729043  0.34050981469638225  0.4891367441599073  1.0000
