data_image0
_chemical_formula_structural       Nd2H44C66O22
_chemical_formula_sum              "Nd2 H44 C66 O22"
_cell_length_a       10.373809248202138
_cell_length_b       11.515833755893564
_cell_length_c       13.71240901455933
_cell_angle_alpha    101.92466826873704
_cell_angle_beta     110.77443855498208
_cell_angle_gamma    100.08923021015691

_space_group_name_H-M_alt    "P 1"
_space_group_IT_number       1

loop_
  _space_group_symop_operation_xyz
  'x, y, z'

loop_
  _atom_site_type_symbol
  _atom_site_label
  _atom_site_symmetry_multiplicity
  _atom_site_fract_x
  _atom_site_fract_y
  _atom_site_fract_z
  _atom_site_occupancy
  Nd  Nd1       1.0  0.6179895371814013  0.5633218845035161  0.6647894177088034  1.0000
  Nd  Nd2       1.0  0.3820089497244368  0.436680362650094  0.3352108455289979  1.0000
  H   H1        1.0  0.18700950622231008  0.14230364421338496  0.975662236233127  1.0000
  H   H2        1.0  0.8129942784335142  0.8576958013347707  0.02434478835127163  1.0000
  H   H3        1.0  0.26576674389147575  0.9440626682834082  0.9424736111192544  1.0000
  H   H4        1.0  0.7342386623196049  0.05593861665909831  0.057533437875172004  1.0000
  H   H5        1.0  0.46746445695151806  0.87932908388558  0.9089559854240221  1.0000
  H   H6        1.0  0.5325446294046544  0.1206740297782645  0.09105163608332847  1.0000
  H   H7        1.0  0.4492690265153669  0.8085382696256431  0.7198387229000857  1.0000
  H   H8        1.0  0.5507393242827519  0.19146577231477838  0.2801674052945414  1.0000
  H   H9        1.0  0.2293497069783044  0.8037863680363773  0.5626903126446976  1.0000
  H   H10       1.0  0.77065554081598  0.19621122287409784  0.43731605042992777  1.0000
  H   H11       1.0  0.032575974547967186  0.8754105043600973  0.5982586475174188  1.0000
  H   H12       1.0  0.9674291196161133  0.12458339136906464  0.4017492185185317  1.0000
  H   H13       1.0  0.8602454066032691  0.4539125117881043  0.6069700338723649  1.0000
  H   H14       1.0  0.13975234474450823  0.5460906636420833  0.3930287360527132  1.0000
  H   H15       1.0  0.8711198841305218  0.7309354649528432  0.4524179253634202  1.0000
  H   H16       1.0  0.1288724126460039  0.2690668176676781  0.5475741269223136  1.0000
  H   H17       1.0  0.761784271940563  0.9037774211631843  0.42858307073839086  1.0000
  H   H18       1.0  0.23820477534334122  0.09622118420102052  0.5714060142191144  1.0000
  H   H19       1.0  0.6319521737475072  0.9179291461092949  0.2422531166834007  1.0000
  H   H20       1.0  0.3680346581252961  0.08206577551280253  0.7577354638784541  1.0000
  H   H21       1.0  0.6067300640394392  0.7570292937185175  0.07924458024841383  1.0000
  H   H22       1.0  0.39325985731365887  0.2429656115109681  0.9207455520948286  1.0000
  H   H23       1.0  0.7189736369105261  0.5839524522846703  0.10374683653000007  1.0000
  H   H24       1.0  0.2810218862619109  0.41604704246817914  0.8962455919830888  1.0000
  H   H25       1.0  0.6940872864965969  0.943442362504108  0.6334719073397822  1.0000
  H   H26       1.0  0.305911926394117  0.056558958671502124  0.3665254714484901  1.0000
  H   H27       1.0  0.4206435976619999  0.8856668723243358  0.24982218205297352  1.0000
  H   H28       1.0  0.5793553461840872  0.11433999065209123  0.7501797367244905  1.0000
  H   H29       1.0  0.37103949091871874  0.8270971556040085  0.05244862833990287  1.0000
  H   H30       1.0  0.6289651685655996  0.17290506029675615  0.9475518199525014  1.0000
  H   H31       1.0  0.13067388755406747  0.6985193065309832  0.9162376328368823  1.0000
  H   H32       1.0  0.8693327986864289  0.30146996500093354  0.08376474800004982  1.0000
  H   H33       1.0  0.9391794454434219  0.6266891170518891  0.9767345889061829  1.0000
  H   H34       1.0  0.06082769454626917  0.3733047710690302  0.023267988216318345  1.0000
  H   H35       1.0  0.990918540299475  0.6836864190982797  0.1756872552254549  1.0000
  H   H36       1.0  0.00907994341530843  0.3163158288215301  0.8243115487582671  1.0000
  H   H37       1.0  0.9393612233761743  0.5342739507344945  0.7781441364229167  1.0000
  H   H38       1.0  0.060640786853497324  0.4657264307253258  0.22185674303505462  1.0000
  H   H39       1.0  0.8321192042390279  0.43722522520722157  0.7965866990526465  1.0000
  H   H40       1.0  0.1678822089437304  0.562773312671034  0.2034122411656156  1.0000
  H   H41       1.0  0.4980401074465419  0.4657571116363145  0.8127225955343249  1.0000
  H   H42       1.0  0.5019548346342758  0.5342405357040009  0.1872751900094869  1.0000
  H   H43       1.0  0.556516095702527  0.362483408135276  0.7664075330409972  1.0000
  H   H44       1.0  0.44348444181550656  0.6375188302608025  0.23358963016448797  1.0000
  C   C1        1.0  0.8029742840375106  0.7847991467517944  0.8252671555133587  1.0000
  C   C2        1.0  0.1970261094234971  0.2151993941643938  0.17473588841571797  1.0000
  C   C3        1.0  0.9036000304351645  0.8981665432614253  0.9134959179195618  1.0000
  C   C4        1.0  0.0964034509106071  0.1018319816452404  0.08650794816384888  1.0000
  C   C5        1.0  0.1049853385548545  0.07780786399133183  0.9850613213689243  1.0000
  C   C6        1.0  0.895017413614987  0.9221915876595195  0.014943969909936213  1.0000
  C   C7        1.0  0.009615355044999822  0.9767831150553551  0.8977136123124795  1.0000
  C   C8        1.0  0.9903884280152937  0.023216330875897005  0.10229268264487958  1.0000
  C   C9        1.0  0.018214098484200657  0.9598378848205584  0.7881876104119313  1.0000
  C   C10       1.0  0.9817932110909878  0.04015969465071122  0.21182076001967684  1.0000
  C   C11       1.0  0.13607886766850902  0.9129442084526219  0.7718407853668338  1.0000
  C   C12       1.0  0.8639269707905725  0.08705522757180972  0.2281645984393279  1.0000
  C   C13       1.0  0.2585043045767605  0.9134765262809382  0.85957945730393  1.0000
  C   C14       1.0  0.7415021293337033  0.08652475370815443  0.1404271361149014  1.0000
  C   C15       1.0  0.37128733689431936  0.877280533631016  0.840773638564727  1.0000
  C   C16       1.0  0.6287204216434715  0.12272166357854533  0.1592327392713173  1.0000
  C   C17       1.0  0.36153798695425376  0.8375448333960593  0.7343256582681266  1.0000
  C   C18       1.0  0.6384674128747037  0.16245645307883197  0.2656784722181272  1.0000
  C   C19       1.0  0.23834440267501117  0.8344262597365741  0.6462155922230649  1.0000
  C   C20       1.0  0.7616583494948304  0.16557319191428382  0.3537896990557955  1.0000
  C   C21       1.0  0.12726512058160472  0.8730053016122244  0.6651355159254422  1.0000
  C   C22       1.0  0.8727387993942981  0.12699137284398182  0.33486960347788397  1.0000
  C   C23       1.0  0.6993924259426477  0.49084686333883104  0.4234032215296253  1.0000
  C   C24       1.0  0.3006022359248348  0.5091563284839823  0.5765939966140721  1.0000
  C   C25       1.0  0.8553642994696203  0.49984297135397787  0.46213017415465873  1.0000
  C   C26       1.0  0.14463080102798642  0.5001583700183758  0.5378682973089539  1.0000
  C   C27       1.0  0.9229024317828376  0.47761059189983973  0.5614965306991806  1.0000
  C   C28       1.0  0.07709561649286908  0.5223935057042369  0.4385024792187194  1.0000
  C   C29       1.0  0.9333384452473298  0.522606131847944  0.3993065300783912  1.0000
  C   C30       1.0  0.06665930290939312  0.477397044348443  0.6006907805926076  1.0000
  C   C31       1.0  0.8723789821943341  0.5466739491993807  0.29133152200693496  1.0000
  C   C32       1.0  0.12762082774329994  0.4533292155578009  0.7086677960210463  1.0000
  C   C33       1.0  0.7998075759191464  0.6456459681613895  0.27932755687163535  1.0000
  C   C34       1.0  0.2001848657506358  0.3543535410686048  0.7206669679952854  1.0000
  C   C35       1.0  0.8114070833030526  0.735676133463905  0.3707419973604688  1.0000
  C   C36       1.0  0.18858329499029475  0.2643233875883837  0.6292497905224224  1.0000
  C   C37       1.0  0.7503051390422613  0.8328708679668683  0.3573393269646132  1.0000
  C   C38       1.0  0.24968214817526047  0.16712866986113542  0.6426501795098574  1.0000
  C   C39       1.0  0.6768680083032805  0.8404105136822437  0.25252812632184174  1.0000
  C   C40       1.0  0.3231194174253745  0.15958625228761752  0.747460934225643  1.0000
  C   C41       1.0  0.6641331635668168  0.7507316828505073  0.16091169632959895  1.0000
  C   C42       1.0  0.3358588163761311  0.24926321170595872  0.83907898411654  1.0000
  C   C43       1.0  0.725864711410452  0.6538923858497085  0.17395889319593738  1.0000
  C   C44       1.0  0.2741268330934261  0.346104358391024  0.8260319931843723  1.0000
  C   C45       1.0  0.4835049828146298  0.7436835515110973  0.49431389299609674  1.0000
  C   C46       1.0  0.516492907044288  0.25631685206094806  0.5056844310020026  1.0000
  C   C47       1.0  0.48777743563614  0.8757788142796273  0.4976455500257658  1.0000
  C   C48       1.0  0.5122248683304065  0.12422249012026755  0.502354110170934  1.0000
  C   C49       1.0  0.6081114405267273  0.9684623737503419  0.5757340633529539  1.0000
  C   C50       1.0  0.39188880006337706  0.0315389424718617  0.42426285985971646  1.0000
  C   C51       1.0  0.3780989207178891  0.9079291712430759  0.4219125976103371  1.0000
  C   C52       1.0  0.62190338324865  0.09207213315681881  0.5780870625863628  1.0000
  C   C53       1.0  0.24077919095099526  0.8135416394188654  0.3426481224561257  1.0000
  C   C54       1.0  0.7592217883882242  0.18645874776056107  0.657351753323354  1.0000
  C   C55       1.0  0.20944345668237935  0.7864399976584695  0.22489470370739184  1.0000
  C   C56       1.0  0.790556201220575  0.21355947153429622  0.7751068469089548  1.0000
  C   C57       1.0  0.31584054647305493  0.8282409956644303  0.18979090004250312  1.0000
  C   C58       1.0  0.6841599990226327  0.17176124081616706  0.8102099112981948  1.0000
  C   C59       1.0  0.2873769434240004  0.7957890473395327  0.07915362760570595  1.0000
  C   C60       1.0  0.7126257991726631  0.2042104066099029  0.9208472859108952  1.0000
  C   C61       1.0  0.15223428841810727  0.7230835541290761  0.0026104177690057873  1.0000
  C   C62       1.0  0.8477666726109871  0.2769103667770808  0.997389055790734  1.0000
  C   C63       1.0  0.044977908822438954  0.6822600681831121  0.03690236226111675  1.0000
  C   C64       1.0  0.9550264370193559  0.3177347588874043  0.963098173445772  1.0000
  C   C65       1.0  0.07331904567509177  0.7137094249217384  0.14747590501243477  1.0000
  C   C66       1.0  0.9266826676266503  0.2862900343642068  0.8525247344527215  1.0000
  O   O1        1.0  0.832305935533995  0.7447988962450726  0.743671494441152  1.0000
  O   O2        1.0  0.16769534871080083  0.2552024111927481  0.2563322694663555  1.0000
  O   O3        1.0  0.691955269649597  0.729141503312704  0.8350933789871463  1.0000
  O   O4        1.0  0.3080471839967913  0.2708570265473682  0.16491094267186673  1.0000
  O   O5        1.0  0.9342321120377902  0.9929183768032178  0.7170788903456043  1.0000
  O   O6        1.0  0.06576960764606808  0.007081080950342801  0.2829246676277251  1.0000
  O   O7        1.0  0.6196887356769735  0.4475084567909492  0.32258933827387887  1.0000
  O   O8        1.0  0.38031180503212175  0.5524937808389441  0.6774092841856927  1.0000
  O   O9        1.0  0.648931155688139  0.5251135238381297  0.4942325086630319  1.0000
  O   O10       1.0  0.3510652646502024  0.47488873590397424  0.5057635583366604  1.0000
  O   O11       1.0  0.8924733509206817  0.487442314356784  0.21378882546969186  1.0000
  O   O12       1.0  0.10753027926871539  0.5125599068804902  0.7862113487712675  1.0000
  O   O13       1.0  0.42606957724558475  0.66359968857482  0.40053007653119005  1.0000
  O   O14       1.0  0.5739255200609605  0.3364016535637192  0.5994669356783362  1.0000
  O   O15       1.0  0.5398020105817594  0.7222921244569137  0.5848750139466432  1.0000
  O   O16       1.0  0.4601964731330169  0.27771012346288876  0.4151237900370787  1.0000
  O   O17       1.0  0.15762935379300558  0.7620876290630749  0.3764269038606187  1.0000
  O   O18       1.0  0.8423704609312139  0.2379155345448112  0.623574603048496  1.0000
  O   O19       1.0  0.8416840763944577  0.513988881338868  0.7765407619477144  1.0000
  O   O20       1.0  0.15831763212069214  0.48601057909636586  0.22345768863631577  1.0000
  O   O21       1.0  0.5832309114445875  0.4508487051071343  0.8032067577210356  1.0000
  O   O22       1.0  0.41676624923839256  0.5491526252091035  0.19679299147251333  1.0000
