data_image0
_chemical_formula_structural       H18Pb2C6S4N2O8F4
_chemical_formula_sum              "H18 Pb2 C6 S4 N2 O8 F4"
_cell_length_a       7.511985081013926
_cell_length_b       7.403055097710899
_cell_length_c       10.049191525714669
_cell_angle_alpha    96.72638231124512
_cell_angle_beta     104.73157020565431
_cell_angle_gamma    104.79146667883633

_space_group_name_H-M_alt    "P 1"
_space_group_IT_number       1

loop_
  _space_group_symop_operation_xyz
  'x, y, z'

loop_
  _atom_site_type_symbol
  _atom_site_label
  _atom_site_symmetry_multiplicity
  _atom_site_fract_x
  _atom_site_fract_y
  _atom_site_fract_z
  _atom_site_occupancy
  H   H1        1.0  0.5869986417625912  0.38854718511483816  0.5594169177178686  1.0000
  H   H2        1.0  0.41298298944048645  0.6114125464584104  0.44059490632263026  1.0000
  H   H3        1.0  0.8291620041140604  0.3834621901487195  0.5709816096141509  1.0000
  H   H4        1.0  0.17081812801058766  0.6165116563676777  0.4290122295807706  1.0000
  H   H5        1.0  0.6489491252235883  0.17080848359133674  0.5732501363690404  1.0000
  H   H6        1.0  0.3510431734238183  0.8291499805286191  0.4267317660788875  1.0000
  H   H7        1.0  0.8297654282794228  0.571211018338353  0.2735319865559021  1.0000
  H   H8        1.0  0.17023401577090172  0.42882132772636067  0.7265143170119188  1.0000
  H   H9        1.0  0.5831532525286818  0.5428276746984082  0.1776729320113759  1.0000
  H   H10       1.0  0.41685772332387944  0.4572161736444542  0.8223466970609152  1.0000
  H   H11       1.0  0.7210596778297926  0.4171539006808302  0.10288134868394387  1.0000
  H   H12       1.0  0.2789763202518288  0.5829102486669839  0.8971537351591935  1.0000
  H   H13       1.0  0.5971584596585444  0.9209951627188032  0.11376816763340257  1.0000
  H   H14       1.0  0.4028589748624897  0.07903743245488218  0.8862258552481421  1.0000
  H   H15       1.0  0.35862705146438156  0.8928401209577145  0.13240405916867104  1.0000
  H   H16       1.0  0.6413771807957859  0.1071653018770959  0.8675751755814147  1.0000
  H   H17       1.0  0.5419290813921124  0.8412955342543638  0.2655394023791828  1.0000
  H   H18       1.0  0.45808333754254  0.15872421187826555  0.7344475912514739  1.0000
  Pb  Pb1       1.0  0.6070026911710614  0.22854319920444507  0.3007283433147663  1.0000
  Pb  Pb2       1.0  0.3929798611443332  0.7714731914797  0.6992666105993095  1.0000
  C   C1        1.0  0.6763277084359987  0.30269263908613897  0.5331113160494994  1.0000
  C   C2        1.0  0.3236642435779801  0.6972743402079047  0.46688617543783556  1.0000
  C   C3        1.0  0.6968302327919175  0.47393315239177974  0.1998584328159012  1.0000
  C   C4        1.0  0.30318270320999124  0.5261079129094312  0.8001722773931024  1.0000
  C   C5        1.0  0.5125852515028984  0.9286444852234937  0.1870184905426342  1.0000
  C   C6        1.0  0.4874285511745812  0.07137528734567411  0.812969763805981  1.0000
  S   S1        1.0  0.14086538592810877  0.2687371758001973  0.1063729840672565  1.0000
  S   S2        1.0  0.859166981917845  0.7312801254837068  0.8936374991627716  1.0000
  S   S3        1.0  0.1179800527712018  0.1530171354224308  0.3578402648374279  1.0000
  S   S4        1.0  0.8820231434353831  0.846945749123343  0.6421241876463173  1.0000
  N   N1        1.0  0.24213150828308733  0.22216398469629442  0.2558934091475962  1.0000
  N   N2        1.0  0.7578061880698003  0.7778204166750627  0.7440852958299474  1.0000
  O   O1        1.0  0.26562687894898573  0.2619161982549159  0.021135002900578594  1.0000
  O   O2        1.0  0.7343146212891727  0.738076834604257  0.9788899441474754  1.0000
  O   O3        1.0  0.9370704646522442  0.18044745576801793  0.053615006742965904  1.0000
  O   O4        1.0  0.0629930392234428  0.819553374843224  0.9463761107203368  1.0000
  O   O5        1.0  0.9752896698106781  0.24980466548652905  0.36429976438034123  1.0000
  O   O6        1.0  0.02472770990556939  0.7501499970315209  0.6356826058146936  1.0000
  O   O7        1.0  0.24397826385860819  0.13589666215165147  0.4855629335406704  1.0000
  O   O8        1.0  0.7559767862202449  0.8641149785335002  0.5144253847631007  1.0000
  F   F1        1.0  0.16465518263126466  0.49257462944415653  0.1498373919696618  1.0000
  F   F2        1.0  0.83531284323427  0.5073564809960942  0.8501415313920688  1.0000
  F   F3        1.0  0.9942141984354297  0.9389486058319179  0.2805895040897894  1.0000
  F   F4        1.0  0.005813614316707598  0.061067208463924785  0.7194289409693582  1.0000
