data_image0
_chemical_formula_structural       Tb8H116C132N4O68
_chemical_formula_sum              "Tb8 H116 C132 N4 O68"
_cell_length_a       12.435914401183224
_cell_length_b       13.693876630212642
_cell_length_c       27.73753974736546
_cell_angle_alpha    104.28369635225711
_cell_angle_beta     96.10130245679797
_cell_angle_gamma    96.38009837358635

_space_group_name_H-M_alt    "P 1"
_space_group_IT_number       1

loop_
  _space_group_symop_operation_xyz
  'x, y, z'

loop_
  _atom_site_type_symbol
  _atom_site_label
  _atom_site_symmetry_multiplicity
  _atom_site_fract_x
  _atom_site_fract_y
  _atom_site_fract_z
  _atom_site_occupancy
  Tb  Tb1       1.0  0.8656084107134349  0.4182974486881718  0.44788139144026207  1.0000
  Tb  Tb2       1.0  0.134387725968466  0.5817067334932345  0.5521187106918646  1.0000
  Tb  Tb3       1.0  0.4511205460525503  0.0301931449342803  0.5840228275921859  1.0000
  Tb  Tb4       1.0  0.5488685580779206  0.9698025562176086  0.41598016616916306  1.0000
  Tb  Tb5       1.0  0.0292288445632494  0.07824243181697452  0.9390865575272969  1.0000
  Tb  Tb6       1.0  0.9707675281685156  0.921757949583977  0.06091417774791094  1.0000
  Tb  Tb7       1.0  0.5286111734414832  0.6124301611989509  0.0828054990218021  1.0000
  Tb  Tb8       1.0  0.471383425431533  0.38756868065683386  0.9171938652172071  1.0000
  H   H1        1.0  0.7373553494100874  0.7504821156656689  0.478640421297733  1.0000
  H   H2        1.0  0.2626390530627347  0.24952277885262936  0.5213639951237639  1.0000
  H   H3        1.0  0.731349539486587  0.9721083102500147  0.6178459947171788  1.0000
  H   H4        1.0  0.2686501517309026  0.027887549677821297  0.382156545058649  1.0000
  H   H5        1.0  0.9278282064198111  0.7284455864129099  0.6129911857707455  1.0000
  H   H6        1.0  0.07218932045132222  0.27156576325648973  0.38700705085359016  1.0000
  H   H7        1.0  0.02061262660014053  0.828712806559281  0.6776870547064816  1.0000
  H   H8        1.0  0.9793914768153158  0.1712899788881046  0.32231189302882507  1.0000
  H   H9        1.0  0.07885714163251835  0.8981470054134989  0.769337342617625  1.0000
  H   H10       1.0  0.9211572865466168  0.10185440999145359  0.2306620319496986  1.0000
  H   H11       1.0  0.7904405586548578  0.04186844499918859  0.783293413624662  1.0000
  H   H12       1.0  0.209575722363077  0.958146670403316  0.216708094274665  1.0000
  H   H13       1.0  0.7283352150101265  0.9715205553988325  0.6919621660310893  1.0000
  H   H14       1.0  0.271677704992463  0.028483096920837208  0.3080413606287706  1.0000
  H   H15       1.0  0.728885980339584  0.30302720337905237  0.5597857271809374  1.0000
  H   H16       1.0  0.27111412009407604  0.6969633778367313  0.44020970310704394  1.0000
  H   H17       1.0  0.03802180855642232  0.3973297385669667  0.6530086115844183  1.0000
  H   H18       1.0  0.9619829170508257  0.6026647137747076  0.3469864735353454  1.0000
  H   H19       1.0  0.7957756426073886  0.1814943952091425  0.6874200565310602  1.0000
  H   H20       1.0  0.20423070513729874  0.8184932560883099  0.3125717703928429  1.0000
  H   H21       1.0  0.9673570549275257  0.12021257732028802  0.7056629213935037  1.0000
  H   H22       1.0  0.03265187006171291  0.8797880265904681  0.2943306289910979  1.0000
  H   H23       1.0  0.1101280992359222  0.1094525644247142  0.7732266665742245  1.0000
  H   H24       1.0  0.8898761066534959  0.8905380817731157  0.22676792576174876  1.0000
  H   H25       1.0  0.20433383973379898  0.4334489013171421  0.8102123418485617  1.0000
  H   H26       1.0  0.7956700013583173  0.5665523553118561  0.18978748670429008  1.0000
  H   H27       1.0  0.06269493619132054  0.4458939659422825  0.7426976033737062  1.0000
  H   H28       1.0  0.9373121324998692  0.5541065869563155  0.25730052205386755  1.0000
  H   H29       1.0  0.7547314432488506  0.6854755217592654  0.9449749438162697  1.0000
  H   H30       1.0  0.24527096397795137  0.31452115577288003  0.05502424540021881  1.0000
  H   H31       1.0  0.5386293897708043  0.6098304438808029  0.805507161059708  1.0000
  H   H32       1.0  0.46136645322579284  0.3901714567345778  0.19449228609179406  1.0000
  H   H33       1.0  0.7770506102357616  0.8819350560355731  0.8467205465040166  1.0000
  H   H34       1.0  0.22293512417200395  0.11807123621419892  0.1532828204563828  1.0000
  H   H35       1.0  0.6061027047543776  0.9321994694966804  0.8075460682621907  1.0000
  H   H36       1.0  0.39389972701628306  0.0678093621270008  0.19245496118116276  1.0000
  H   H37       1.0  0.5282762645705007  0.9685594583749619  0.7280327176009465  1.0000
  H   H38       1.0  0.47173358285392913  0.031443417623229705  0.27196512886362  1.0000
  H   H39       1.0  0.5233183436117557  0.6566749622790269  0.648470567766715  1.0000
  H   H40       1.0  0.4766574755677909  0.3433197646128717  0.3515358712291388  1.0000
  H   H41       1.0  0.6006604325502636  0.6190097067878569  0.7273332225390376  1.0000
  H   H42       1.0  0.3993235512326479  0.3809904711858395  0.2726714638335963  1.0000
  H   H43       1.0  0.7258970941324421  0.2277339327746333  0.9821266190246759  1.0000
  H   H44       1.0  0.27411328622637415  0.7722734999947536  0.01787361533220631  1.0000
  H   H45       1.0  0.8533886558471195  0.16760279108213896  0.12014616629977579  1.0000
  H   H46       1.0  0.146608165750493  0.832394563488826  0.879853144813154  1.0000
  H   H47       1.0  0.6774643377211192  0.42406316191664206  0.12293014801100097  1.0000
  H   H48       1.0  0.322544381010232  0.5759449916707666  0.8770729633938428  1.0000
  H   H49       1.0  0.6292518523151925  0.3726830997400867  0.19156003744424047  1.0000
  H   H50       1.0  0.37074847111142634  0.6272991017237644  0.8084394350559592  1.0000
  H   H51       1.0  0.6525490438331901  0.40009705255923933  0.28496671804042245  1.0000
  H   H52       1.0  0.34744348429656213  0.5998918921997358  0.7150295204131609  1.0000
  H   H53       1.0  0.972316191367  0.3121616212153384  0.281910273951361  1.0000
  H   H54       1.0  0.027687992917776762  0.6878426718476052  0.7180913860699291  1.0000
  H   H55       1.0  0.9516175203505526  0.2858694999406808  0.1890645400215476  1.0000
  H   H56       1.0  0.048391836988379636  0.7141371471539985  0.8109377036448817  1.0000
  H   H57       1.0  0.49805788313254623  0.22906895136561192  0.7013828892878634  1.0000
  H   H58       1.0  0.5019318940070505  0.7709359003709295  0.2986165681241886  1.0000
  H   H59       1.0  0.2271078986948893  0.36572986626443077  0.6885607630689065  1.0000
  H   H60       1.0  0.7728885811796716  0.634277352350914  0.31144117053167253  1.0000
  H   H61       1.0  0.2549853743471715  0.2796099374197851  0.6326091036833076  1.0000
  H   H62       1.0  0.745000373117513  0.7204009338014785  0.3673908542079474  1.0000
  H   H63       1.0  0.31148121504637066  0.4115224290395503  0.6485249407313063  1.0000
  H   H64       1.0  0.6885128324868435  0.588491578895777  0.35148020306931466  1.0000
  H   H65       1.0  0.3747997883968139  0.41235587434485405  0.7647912902949299  1.0000
  H   H66       1.0  0.6251901340656404  0.5876451660098213  0.23521059681196016  1.0000
  H   H67       1.0  0.459824956129829  0.47133369851729157  0.7289183078804838  1.0000
  H   H68       1.0  0.5401684745600904  0.5286643407015318  0.27108594015089676  1.0000
  H   H69       1.0  0.5044213700367947  0.3734791693985214  0.7552798393448795  1.0000
  H   H70       1.0  0.4955666201871409  0.6265195638213753  0.24472165610011837  1.0000
  H   H71       1.0  0.06242811316457162  0.3240205180524285  0.013467332181086498  1.0000
  H   H72       1.0  0.9375650219507893  0.67598589243719  0.9865343108794846  1.0000
  H   H73       1.0  0.11674215660504933  0.5756936491844018  0.0108681128702415  1.0000
  H   H74       1.0  0.8832579998940774  0.42430601052642913  0.9891359976204298  1.0000
  H   H75       1.0  0.23288291115154897  0.5142709986294136  0.022718278936004286  1.0000
  H   H76       1.0  0.7671189811859026  0.48573702087871595  0.9772912753990537  1.0000
  H   H77       1.0  0.11079195032858281  0.48596641301543286  0.04792762318005827  1.0000
  H   H78       1.0  0.8892027657045601  0.5140339406964712  0.9520737347242301  1.0000
  H   H79       1.0  0.08499927464203692  0.5117765162065595  0.9196495730927622  1.0000
  H   H80       1.0  0.9150365093247856  0.48822140960899657  0.08035060457765297  1.0000
  H   H81       1.0  0.06807795910644643  0.3764130161391038  0.8924981826614555  1.0000
  H   H82       1.0  0.9319516814929331  0.6235886008235597  0.10750569692979889  1.0000
  H   H83       1.0  0.2010621158362157  0.44581914779276827  0.9159621466265688  1.0000
  H   H84       1.0  0.7989536112219825  0.5541776760443682  0.08404684127751237  1.0000
  H   H85       1.0  0.6502005420622086  0.46579299531325097  0.4613718396163761  1.0000
  H   H86       1.0  0.3497889746433104  0.5341996747680825  0.5386304486033922  1.0000
  H   H87       1.0  0.6151312637788067  0.34770677608640455  0.43407309265820254  1.0000
  H   H88       1.0  0.3848656948539429  0.652285267968267  0.5659244986221663  1.0000
  H   H89       1.0  0.755051540531234  0.20828640116329922  0.4572292525793458  1.0000
  H   H90       1.0  0.24494471504040397  0.7917124683815331  0.5427694890305758  1.0000
  H   H91       1.0  0.8195846581634214  0.18477797679188512  0.4112609101198003  1.0000
  H   H92       1.0  0.18041400174647043  0.8152155983268231  0.5887394894381827  1.0000
  H   H93       1.0  0.3896127575214053  0.8405021391934111  0.49424395317105047  1.0000
  H   H94       1.0  0.6103847686069345  0.15950129036572488  0.5057586615684073  1.0000
  H   H95       1.0  0.41366539812229064  0.8155650177050404  0.5486390504768366  1.0000
  H   H96       1.0  0.5863267157027965  0.18443378261717663  0.4513612477058046  1.0000
  H   H97       1.0  0.2444803237349547  0.052837580505631414  0.620608645015075  1.0000
  H   H98       1.0  0.7555099154870462  0.947164995028281  0.37939128334321737  1.0000
  H   H99       1.0  0.22082659220463807  0.006953950483399803  0.563164267257619  1.0000
  H   H100      1.0  0.7791659555401227  0.9930478968741737  0.43683606584169604  1.0000
  H   H101      1.0  0.25353726330557447  0.08012342282796679  0.9374006212947986  1.0000
  H   H102      1.0  0.7464673104799929  0.9198785855512099  0.0626029469141471  1.0000
  H   H103      1.0  0.23202155466067614  0.14186033304881818  0.8967699452662854  1.0000
  H   H104      1.0  0.7679801100149891  0.8581370897472951  0.10323001313185635  1.0000
  H   H105      1.0  0.3231036021980671  0.6792708155353255  0.08834284693428877  1.0000
  H   H106      1.0  0.6768911996332392  0.32073029728507413  0.9116589688371092  1.0000
  H   H107      1.0  0.3169505402180946  0.6376391754835427  0.1360359482072298  1.0000
  H   H108      1.0  0.6830472087435456  0.36235970266778145  0.8639654045667838  1.0000
  H   H109      1.0  0.6202976817754263  0.8188034695239566  0.13162901964755488  1.0000
  H   H110      1.0  0.3797005292686252  0.18119313242473817  0.868372804072706  1.0000
  H   H111      1.0  0.48969852381311085  0.8224408985093138  0.12863633502887242  1.0000
  H   H112      1.0  0.5103014528019685  0.177555743850121  0.8713627102001877  1.0000
  H   H113      1.0  0.6414116544358992  0.6283959801377249  0.9927867672052526  1.0000
  H   H114      1.0  0.3585905248691077  0.3716098256534295  0.007210634217891301  1.0000
  H   H115      1.0  0.6867924676313707  0.7358862181064154  0.034925955964674016  1.0000
  H   H116      1.0  0.31320929097052636  0.2641172912767402  0.9650733056503141  1.0000
  C   C1        1.0  0.835319850996264  0.7304338969548352  0.5435895122421143  1.0000
  C   C2        1.0  0.16466720677515675  0.26956788953589955  0.4564068917830042  1.0000
  C   C3        1.0  0.7650496926818705  0.7804184016675464  0.5187327457091797  1.0000
  C   C4        1.0  0.23494219830990207  0.2195849500624831  0.4812688144389057  1.0000
  C   C5        1.0  0.7293483047131275  0.8679680949620662  0.5459495075364131  1.0000
  C   C6        1.0  0.2706471026341788  0.13203758311065877  0.4540532588858923  1.0000
  C   C7        1.0  0.7618243579089568  0.9041111087200165  0.5977445654727731  1.0000
  C   C8        1.0  0.2381778296837638  0.0958961962055653  0.4022569854777699  1.0000
  C   C9        1.0  0.834537379525486  0.8558436592442862  0.6230136845218296  1.0000
  C   C10       1.0  0.16546135443562093  0.1441628248338773  0.3769897317508324  1.0000
  C   C11       1.0  0.8717811540597895  0.768897837459278  0.5950037628305579  1.0000
  C   C12       1.0  0.12822049058121376  0.23111023605337522  0.40499460488776146  1.0000
  C   C13       1.0  0.8702178164506905  0.895775489716904  0.6776574264789019  1.0000
  C   C14       1.0  0.12977840110053054  0.1042302000800532  0.32234538793921524  1.0000
  C   C15       1.0  0.9689499133779478  0.8750423981805396  0.7004035981796263  1.0000
  C   C16       1.0  0.03105332203852381  0.12495812154025997  0.2995899755446558  1.0000
  C   C17       1.0  0.0021377050285665664  0.9135659052960963  0.751807551068346  1.0000
  C   C18       1.0  0.9978789902940334  0.08643935454315968  0.24818989710192338  1.0000
  C   C19       1.0  0.9380819170002117  0.9741949980972182  0.7818911505024744  1.0000
  C   C20       1.0  0.0619211452499542  0.025806999555179302  0.21811016585272813  1.0000
  C   C21       1.0  0.8397115566551749  0.9948003740411266  0.7595923474538323  1.0000
  C   C22       1.0  0.16030532348030854  0.0052071546424486016  0.2404079115591813  1.0000
  C   C23       1.0  0.8061089660261305  0.9559560369761327  0.7083188673304334  1.0000
  C   C24       1.0  0.19390305288590787  0.044051421362006196  0.2916811037077166  1.0000
  C   C25       1.0  0.8695216234277227  0.6343121313962853  0.5148851929840887  1.0000
  C   C26       1.0  0.13048138438623624  0.36568985989526226  0.48511720130217373  1.0000
  C   C27       1.0  0.6543735653775472  0.921162432724138  0.5195012508849217  1.0000
  C   C28       1.0  0.3456178240417954  0.0788371149823277  0.4804994571690172  1.0000
  C   C29       1.0  0.9747508515858955  0.0183279563894629  0.8366197041329924  1.0000
  C   C30       1.0  0.025254710658380496  0.9816680089311517  0.16337921919962634  1.0000
  C   C31       1.0  0.750393059335437  0.23646706764371567  0.6229069718097761  1.0000
  C   C32       1.0  0.24961356903763499  0.7635182862482778  0.37708891916389575  1.0000
  C   C33       1.0  0.7830758202460616  0.2986300840419531  0.5924435899785222  1.0000
  C   C34       1.0  0.21692682648983921  0.7013491437243433  0.4075495240060789  1.0000
  C   C35       1.0  0.8869817789277195  0.3558980989801412  0.6036360757196348  1.0000
  C   C36       1.0  0.11301882160876893  0.6440833857808813  0.3963557527063982  1.0000
  C   C37       1.0  0.9571202453294776  0.3524344957376612  0.6457336425508515  1.0000
  C   C38       1.0  0.04288406623312112  0.6475500871962367  0.35425769415439845  1.0000
  C   C39       1.0  0.9263609945890396  0.2896304273631003  0.6764409383846226  1.0000
  C   C40       1.0  0.07364092092301892  0.7103609491313421  0.3235528898999717  1.0000
  C   C41       1.0  0.822444115367404  0.23118137148222934  0.6644193836942945  1.0000
  C   C42       1.0  0.17756729016056744  0.7687964691540119  0.335572983199647  1.0000
  C   C43       1.0  0.005370582978848408  0.28363636877419657  0.7189823082819443  1.0000
  C   C44       1.0  0.9946310008274962  0.7163595464063661  0.28101493783021425  1.0000
  C   C45       1.0  0.01850604910852381  0.1892844511361815  0.7286805837578142  1.0000
  C   C46       1.0  0.9815007903509071  0.8107085011989738  0.27131660409798286  1.0000
  C   C47       1.0  0.0983487493991646  0.18264454092376778  0.7663345312863113  1.0000
  C   C48       1.0  0.9016505852494632  0.8173513602868995  0.23365897773488334  1.0000
  C   C49       1.0  0.16637407900295648  0.2702626937097463  0.7956293122671096  1.0000
  C   C50       1.0  0.8336258331585928  0.7297392676471123  0.2043700155530956  1.0000
  C   C51       1.0  0.15218195167604162  0.3651761739958204  0.7870752456370909  1.0000
  C   C52       1.0  0.847825628604916  0.6348228575680679  0.21292452722453692  1.0000
  C   C53       1.0  0.07285764760608522  0.371753072726932  0.7491210451134335  1.0000
  C   C54       1.0  0.9271383192090992  0.6282427667447976  0.25087478709698974  1.0000
  C   C55       1.0  0.6400237611575791  0.1742780492042257  0.6109276666020945  1.0000
  C   C56       1.0  0.3599769102309055  0.8257102685306279  0.38906607877001415  1.0000
  C   C57       1.0  0.9254580030000169  0.4171486942375537  0.5690205131565093  1.0000
  C   C58       1.0  0.07454010074159365  0.5828448988408754  0.43097480806071786  1.0000
  C   C59       1.0  0.2539643582268312  0.26111911770793483  0.8344655288933394  1.0000
  C   C60       1.0  0.7460368230217966  0.7388745031849027  0.16553321810030747  1.0000
  C   C61       1.0  0.7754343249369455  0.7890102976676733  0.8990279190653252  1.0000
  C   C62       1.0  0.2245561716795521  0.21099455519169658  0.10097338289430269  1.0000
  C   C63       1.0  0.7257115187790077  0.7022717281216585  0.9099506507446832  1.0000
  C   C64       1.0  0.27428199754942995  0.2977308985497729  0.09004875097614469  1.0000
  C   C65       1.0  0.6406865014823993  0.6379104887654777  0.8762997319635274  1.0000
  C   C66       1.0  0.3593043995810703  0.36208600554478215  0.12370201910479037  1.0000
  C   C67       1.0  0.6052564173971863  0.6607835921196995  0.8313358372127907  1.0000
  C   C68       1.0  0.394740194583676  0.3392190644864216  0.1686666309741014  1.0000
  C   C69       1.0  0.6517051984702962  0.7493375770758347  0.8201608287330158  1.0000
  C   C70       1.0  0.34828558690265515  0.2506703058566302  0.17984338262611027  1.0000
  C   C71       1.0  0.7376940153564677  0.8133253999664732  0.8545404284421776  1.0000
  C   C72       1.0  0.2622993457914262  0.18668253510096383  0.1454610524215596  1.0000
  C   C73       1.0  0.608195816915881  0.7729055439995348  0.7731189348118832  1.0000
  C   C74       1.0  0.3917999667156664  0.22709709876207276  0.2268838446895458  1.0000
  C   C75       1.0  0.5879049045219774  0.8715899611941965  0.7726774306917362  1.0000
  C   C76       1.0  0.4120957996980722  0.1284120097666204  0.22732230443462947  1.0000
  C   C77       1.0  0.543993410572746  0.8920658999152096  0.7285211725239262  1.0000
  C   C78       1.0  0.45601139910305494  0.10793613602764651  0.27147772465043113  1.0000
  C   C79       1.0  0.5206661198168094  0.8149140502899784  0.6834447916691885  1.0000
  C   C80       1.0  0.479327601199536  0.18508402285335993  0.316553707396551  1.0000
  C   C81       1.0  0.5407839967315481  0.7163266996693948  0.6835841600269531  1.0000
  C   C82       1.0  0.4592092704901064  0.2836751488110067  0.31641801761993793  1.0000
  C   C83       1.0  0.5834142378508886  0.6956708130580367  0.7278594508346855  1.0000
  C   C84       1.0  0.41656964691730286  0.3043278551798139  0.2721428825623136  1.0000
  C   C85       1.0  0.8691532285374066  0.8536146167988792  0.9359566980968522  1.0000
  C   C86       1.0  0.13084407648723584  0.1463865396753619  0.06404382442057249  1.0000
  C   C87       1.0  0.5878380245092389  0.5472401903314648  0.8893175237860405  1.0000
  C   C88       1.0  0.4121581616800186  0.45276474671786104  0.1106837548339072  1.0000
  C   C89       1.0  0.4794350315478938  0.8388812516055282  0.6355348323804434  1.0000
  C   C90       1.0  0.5205531038392621  0.16111749857662971  0.3644637885817303  1.0000
  C   C91       1.0  0.6930335157418952  0.3308377000430482  0.049971226009155593  1.0000
  C   C92       1.0  0.3069714704590751  0.6691651056097001  0.9500263324805474  1.0000
  C   C93       1.0  0.7374202738021582  0.24822338855813805  0.022992082646965208  1.0000
  C   C94       1.0  0.26258122247639193  0.7517785920066301  0.977008059785561  1.0000
  C   C95       1.0  0.795336106075645  0.1904869986720783  0.0485893090449494  1.0000
  C   C96       1.0  0.2046645437081979  0.8095149659278887  0.9514115040124692  1.0000
  C   C97       1.0  0.8105846822289706  0.21585331662942758  0.10101306730630447  1.0000
  C   C98       1.0  0.1894131393142828  0.7841455700030268  0.8989868482263006  1.0000
  C   C99       1.0  0.7704365784552891  0.3012780178355143  0.12865337875822996  1.0000
  C   C100      1.0  0.22956740287119712  0.6987240042628144  0.8713458297306714  1.0000
  C   C101      1.0  0.7106029948596417  0.35787398506074214  0.10259662409008291  1.0000
  C   C102      1.0  0.28939305282486333  0.6421233620265455  0.8974019204063237  1.0000
  C   C103      1.0  0.788174275975017  0.3265635697666981  0.1839712262560056  1.0000
  C   C104      1.0  0.21182691167206263  0.6734422030973947  0.8160297202748552  1.0000
  C   C105      1.0  0.7053478646938489  0.3615723488501814  0.21156204361806627  1.0000
  C   C106      1.0  0.2946592140146791  0.6384228786901432  0.7884368771494151  1.0000
  C   C107      1.0  0.7177048128025804  0.37656048465059655  0.2633500015595871  1.0000
  C   C108      1.0  0.2822916262719772  0.6234239249161037  0.7366524011146607  1.0000
  C   C109      1.0  0.8130527566170334  0.3568223137982542  0.2886713483669324  1.0000
  C   C110      1.0  0.18694782551404643  0.6431788938135128  0.7113286475130278  1.0000
  C   C111      1.0  0.897709984116183  0.3255881525976606  0.26171407880450903  1.0000
  C   C112      1.0  0.10228998264121009  0.6744099867759206  0.7382894752622987  1.0000
  C   C113      1.0  0.8855633920468478  0.3108839212054663  0.2098714092346015  1.0000
  C   C114      1.0  0.1144397641295569  0.6891241630339734  0.7901292103374472  1.0000
  C   C115      1.0  0.6278329621457034  0.3894191636858082  0.022126625465077217  1.0000
  C   C116      1.0  0.3721753820310313  0.6105852007200241  0.9778731186731519  1.0000
  C   C117      1.0  0.8446586839614767  0.1031670051747398  0.01998621498029247  1.0000
  C   C118      1.0  0.15534130094130927  0.8968311363191221  0.9800169797761669  1.0000
  C   C119      1.0  0.8223455331712586  0.3668774012732285  0.343789132167764  1.0000
  C   C120      1.0  0.17765849766259126  0.6331253756930265  0.6562112528089513  1.0000
  C   C121      1.0  0.4234678232562743  0.2356450467416309  0.6777450758573593  1.0000
  C   C122      1.0  0.5765232987512479  0.7643575489976512  0.32225346325532905  1.0000
  C   C123      1.0  0.2886218837105474  0.3461463652003333  0.663579456766378  1.0000
  C   C124      1.0  0.7113643027622916  0.653862976205083  0.33642358580033965  1.0000
  C   C125      1.0  0.43351612815011725  0.3992327391862673  0.7378024383164572  1.0000
  C   C126      1.0  0.5664740352910513  0.6007637518808835  0.2621978275146332  1.0000
  C   C127      1.0  0.06664126857948821  0.3294106680227529  0.9746305206113632  1.0000
  C   C128      1.0  0.9333574389485053  0.6705943148007023  0.025369105444255524  1.0000
  C   C129      1.0  0.14333294222923607  0.504390326448423  0.015471027351374306  1.0000
  C   C130      1.0  0.8566609586711567  0.4956107640463187  0.9845325369759763  1.0000
  C   C131      1.0  0.11489512328483195  0.44024068870236016  0.9217582807532307  1.0000
  C   C132      1.0  0.8851443618504149  0.5597618323002179  0.07824591403415579  1.0000
  N   N1        1.0  0.38370253422426975  0.32289078385394987  0.6921088337674063  1.0000
  N   N2        1.0  0.6162895102184365  0.6771140839727676  0.30789400142525375  1.0000
  N   N3        1.0  0.10245673970619866  0.4223910606834593  0.970628427391439  1.0000
  N   N4        1.0  0.8975591406432885  0.5776111075944996  0.029376531379561786  1.0000
  O   O1        1.0  0.9627724779430198  0.6128929891599031  0.5286236363037274  1.0000
  O   O2        1.0  0.03723062379717852  0.3871150887186943  0.47137806119938114  1.0000
  O   O3        1.0  0.8028879534354305  0.5773218715866405  0.4780459124446138  1.0000
  O   O4        1.0  0.1971045793631561  0.4226860496362762  0.5219558797336603  1.0000
  O   O5        1.0  0.5818334738325177  0.9629415318324845  0.5425166248862395  1.0000
  O   O6        1.0  0.418155394248089  0.03705797009985191  0.4574857357320282  1.0000
  O   O7        1.0  0.6655113160174437  0.9216620287036651  0.4742700703592604  1.0000
  O   O8        1.0  0.3344774035410794  0.07833520862491376  0.525728760795559  1.0000
  O   O9        1.0  0.06526148936526975  0.9990227990413275  0.8567184652148683  1.0000
  O   O10       1.0  0.9347458153757913  0.0009739530768157997  0.14328029335577944  1.0000
  O   O11       1.0  0.9153783242543342  0.07448241959003349  0.8631723691758282  1.0000
  O   O12       1.0  0.08464580009822954  0.9255138069069418  0.13682909530184156  1.0000
  O   O13       1.0  0.6100107458034003  0.12123708704370982  0.6405595158695193  1.0000
  O   O14       1.0  0.3899865445350771  0.878750418324856  0.35943465758328585  1.0000
  O   O15       1.0  0.5759793538583651  0.17243371504325467  0.5710028426738986  1.0000
  O   O16       1.0  0.4240133672123463  0.8275628260385942  0.4289950519721584  1.0000
  O   O17       1.0  0.859692405048037  0.4113540203638948  0.5298310968013666  1.0000
  O   O18       1.0  0.14030752525891194  0.5886479431132443  0.4701678717084831  1.0000
  O   O19       1.0  0.020523697749069918  0.4677031233642808  0.5813066539687668  1.0000
  O   O20       1.0  0.979478107160965  0.5322950649011703  0.4186926843654248  1.0000
  O   O21       1.0  0.26266190912355114  0.1732150108386179  0.8413648312584384  1.0000
  O   O22       1.0  0.737333740932094  0.8267792934538819  0.15863295970059  1.0000
  O   O23       1.0  0.3185226504789753  0.3422254806488283  0.8586710646153077  1.0000
  O   O24       1.0  0.6814848589499933  0.6577667179412359  0.14132679130025136  1.0000
  O   O25       1.0  0.9232434436393009  0.923745208167887  0.9226325941140985  1.0000
  O   O26       1.0  0.0767600179693488  0.07625300778660461  0.0773661215910053  1.0000
  O   O27       1.0  0.8884484841363334  0.8324121916412393  0.9779277616640484  1.0000
  O   O28       1.0  0.11155251056979412  0.1675859848999721  0.0220715286743385  1.0000
  O   O29       1.0  0.5165715003019642  0.48203909727153166  0.8574663308464989  1.0000
  O   O30       1.0  0.48342432281960873  0.5179696257162618  0.142536829802836  1.0000
  O   O31       1.0  0.6147245090389717  0.5345159413854574  0.9333539513500992  1.0000
  O   O32       1.0  0.3852816124131735  0.46548991030520176  0.06664584591421631  1.0000
  O   O33       1.0  0.4634602378526366  0.9310321837891847  0.6383837031455782  1.0000
  O   O34       1.0  0.5365290146402799  0.0689696103105888  0.3616175159015568  1.0000
  O   O35       1.0  0.46465180467586026  0.7695827174277879  0.594512994405548  1.0000
  O   O36       1.0  0.5353399215376912  0.230407714741375  0.40548734557961547  1.0000
  O   O37       1.0  0.5997508923996122  0.4721906276317327  0.046036920401157  1.0000
  O   O38       1.0  0.40025909033034424  0.5278137623428664  0.9539625604183397  1.0000
  O   O39       1.0  0.6033474007676035  0.3536405312091587  0.9746350578919375  1.0000
  O   O40       1.0  0.3966509868016176  0.6463568404494353  0.025365427143668705  1.0000
  O   O41       1.0  0.8485348108130353  0.026307506712306906  0.037908849720885485  1.0000
  O   O42       1.0  0.15146956001424883  0.9736922307022623  0.9620922669556647  1.0000
  O   O43       1.0  0.880774065649355  0.11375468341457659  0.9802705831587346  1.0000
  O   O44       1.0  0.11922502818021036  0.8862419387394809  0.019729851315922482  1.0000
  O   O45       1.0  0.7597342625378758  0.4201537231755454  0.3694680593998995  1.0000
  O   O46       1.0  0.2402565213654668  0.5798412592785951  0.6305316980031392  1.0000
  O   O47       1.0  0.8929552362833846  0.32260038938122193  0.36418119518275194  1.0000
  O   O48       1.0  0.10704578978469934  0.677398539907621  0.6358196309537971  1.0000
  O   O49       1.0  0.6697754001651506  0.3980820413074256  0.45920257979549445  1.0000
  O   O50       1.0  0.33022147266943597  0.6019092436387581  0.5407945536177649  1.0000
  O   O51       1.0  0.8119717416445839  0.23827474836758  0.4406295213292708  1.0000
  O   O52       1.0  0.18802984043213664  0.7617279913056763  0.559371078970372  1.0000
  O   O53       1.0  0.3820421139947712  0.16415788540145118  0.6399911693411156  1.0000
  O   O54       1.0  0.6179562040324242  0.8358493821057635  0.3600065485268473  1.0000
  O   O55       1.0  0.37165250737307803  0.8564286936632044  0.5291146012506687  1.0000
  O   O56       1.0  0.6283437251243101  0.14357092226840956  0.47088675408848246  1.0000
  O   O57       1.0  0.2474627157383082  0.9908778863172144  0.5944516137730814  1.0000
  O   O58       1.0  0.7525303105046319  0.009128511450711599  0.4055521851496096  1.0000
  O   O59       1.0  0.039678574056182525  0.252859278522557  0.938029243825454  1.0000
  O   O60       1.0  0.9603227538252739  0.7471472598108663  0.06197108264145609  1.0000
  O   O61       1.0  0.22725220468835527  0.1422983300121743  0.932479295893742  1.0000
  O   O62       1.0  0.7727504599329437  0.8577006248454282  0.06752126692408207  1.0000
  O   O63       1.0  0.36272796497355136  0.6811307374434749  0.12116537967447269  1.0000
  O   O64       1.0  0.6372691998167213  0.3188696535614355  0.8788357629068955  1.0000
  O   O65       1.0  0.5457691913125232  0.795538007216656  0.10946980698736297  1.0000
  O   O66       1.0  0.4542316450138273  0.2044594017349368  0.8905304627253229  1.0000
  O   O67       1.0  0.645984143337927  0.6665210938255867  0.02852290242490338  1.0000
  O   O68       1.0  0.3540144470299467  0.33348237714174905  0.971474729965429  1.0000
