data_image0
_chemical_formula_structural       Cd4H20C24N36
_chemical_formula_sum              "Cd4 H20 C24 N36"
_cell_length_a       8.105856827564232
_cell_length_b       8.737926696673956
_cell_length_c       15.508102500006258
_cell_angle_alpha    89.99991350620778
_cell_angle_beta     89.99999101338
_cell_angle_gamma    117.62685286921048

_space_group_name_H-M_alt    "P 1"
_space_group_IT_number       1

loop_
  _space_group_symop_operation_xyz
  'x, y, z'

loop_
  _atom_site_type_symbol
  _atom_site_label
  _atom_site_symmetry_multiplicity
  _atom_site_fract_x
  _atom_site_fract_y
  _atom_site_fract_z
  _atom_site_occupancy
  Cd  Cd1       1.0  0.9875718022538037  0.22230673184198932  0.055562432968209015  1.0000
  Cd  Cd2       1.0  0.012428010116849509  0.7776924155102805  0.5555621570327747  1.0000
  Cd  Cd3       1.0  0.7651847820145646  0.7776154244489177  0.05552480679873641  1.0000
  Cd  Cd4       1.0  0.23481690983648204  0.22238501465869118  0.5555249835928393  1.0000
  H   H1        1.0  0.2914214867795337  0.8939373554345238  0.3581678631006185  1.0000
  H   H2        1.0  0.708577750955463  0.10606329043096707  0.8581668098225352  1.0000
  H   H3        1.0  0.39749264361101666  0.1061417774807225  0.3581056449300705  1.0000
  H   H4        1.0  0.6025090615170398  0.893858868430719  0.8581058665681738  1.0000
  H   H5        1.0  0.6813404775105596  0.8122813805485549  0.2453062339996279  1.0000
  H   H6        1.0  0.31865588310580517  0.1877183784455099  0.7453070781063503  1.0000
  H   H7        1.0  0.8690612298109385  0.18757434623474714  0.24542642853545263  1.0000
  H   H8        1.0  0.13093883145191398  0.8124254120681798  0.7454261133536377  1.0000
  H   H9        1.0  0.493538537246131  0.6564094124365095  0.3725275459247329  1.0000
  H   H10       1.0  0.5064575574368816  0.3435898904064842  0.8725275974757596  1.0000
  H   H11       1.0  0.8374207441925989  0.3435453729728764  0.3726791981294469  1.0000
  H   H12       1.0  0.1625802847023436  0.6564539289771005  0.8726790126512685  1.0000
  H   H13       1.0  0.279021652710874  0.336768377620551  0.36056491154631953  1.0000
  H   H14       1.0  0.720979401506952  0.663230967765344  0.8605646742301262  1.0000
  H   H15       1.0  0.9425227505985699  0.66323295705142  0.36069628982907903  1.0000
  H   H16       1.0  0.057478891207082904  0.3367650960679001  0.86069573940285  1.0000
  H   H17       1.0  0.48984109168200957  0.3581388949687109  0.10253397091385351  1.0000
  H   H18       1.0  0.510159856134848  0.6418600838793792  0.6025337691275966  1.0000
  H   H19       1.0  0.13161567402267585  0.6416242878941175  0.10257771349920831  1.0000
  H   H20       1.0  0.868384685840404  0.35837598259283954  0.6025777226347699  1.0000
  C   C1        1.0  0.24225823574607827  0.14130167356820778  0.2144768462468108  1.0000
  C   C2        1.0  0.7577431238431204  0.8586981956161495  0.7144770848998265  1.0000
  C   C3        1.0  0.10090796655362767  0.8585002053666171  0.21449460294736872  1.0000
  C   C4        1.0  0.8990927472291333  0.1414983720466552  0.7144941487073808  1.0000
  C   C5        1.0  0.5938456058864857  0.6727070602008494  0.24329186596953184  1.0000
  C   C6        1.0  0.4061507589407042  0.3272927060159673  0.7432925844494563  1.0000
  C   C7        1.0  0.9212252189449541  0.3271938054499158  0.2434003294816378  1.0000
  C   C8        1.0  0.07877173351859297  0.672804668583552  0.7434001370494558  1.0000
  C   C9        1.0  0.48670153752505024  0.584491573995443  0.3141754991447528  1.0000
  C   C10       1.0  0.5132965006272059  0.4155066461856406  0.8141754891217376  1.0000
  C   C11       1.0  0.9024054078401845  0.41547221760094283  0.3142967806334981  1.0000
  C   C12       1.0  0.09759509732368331  0.5845260019717953  0.8142960167130086  1.0000
  C   C13       1.0  0.37129805925952286  0.40710183703235703  0.3076112686547817  1.0000
  C   C14       1.0  0.6287012262464629  0.5928964065976671  0.807611098621422  1.0000
  C   C15       1.0  0.9641653577972278  0.5928257352565751  0.30768403054638344  1.0000
  C   C16       1.0  0.03583451541924628  0.40717121631726627  0.8076834221784142  1.0000
  C   C17       1.0  0.37045317318437293  0.32342089188774276  0.2304542180738949  1.0000
  C   C18       1.0  0.6295475072366727  0.6765776283007268  0.7304546218057268  1.0000
  C   C19       1.0  0.04702380915190929  0.6764260420709789  0.23050889174702155  1.0000
  C   C20       1.0  0.9529781047887625  0.32357247783701837  0.7305076337762346  1.0000
  C   C21       1.0  0.48634611057451577  0.42085242002799106  0.16285660482133582  1.0000
  C   C22       1.0  0.5136541232861161  0.5791476343290468  0.6628564559479955  1.0000
  C   C23       1.0  0.0653780456502345  0.5789619913120061  0.162898468703446  1.0000
  C   C24       1.0  0.9346215423520687  0.42103677118493726  0.6628990640384487  1.0000
  N   N1        1.0  0.7912595934406921  0.30365173555174607  0.9713146721962149  1.0000
  N   N2        1.0  0.20874252081244282  0.6963497961551609  0.47131589991850137  1.0000
  N   N3        1.0  0.4876638895316744  0.6963071742935226  0.9712177945423406  1.0000
  N   N4        1.0  0.51233757915562  0.30369306605498997  0.4712173958362059  1.0000
  N   N5        1.0  0.816416388864333  0.44792857518906004  0.9784308899827894  1.0000
  N   N6        1.0  0.18358506474475425  0.5520716392960452  0.4784309525280933  1.0000
  N   N7        1.0  0.36849953813204184  0.5520718482258787  0.9784128092158042  1.0000
  N   N8        1.0  0.6315000361132375  0.4479270747038838  0.478412278315524  1.0000
  N   N9        1.0  0.8463414285270191  0.5937848989720038  0.981984453122131  1.0000
  N   N10       1.0  0.1536600176538201  0.40621530277156387  0.4819846418717761  1.0000
  N   N11       1.0  0.2525365032966604  0.4062694035534379  0.9820529085319409  1.0000
  N   N12       1.0  0.7474649427406347  0.5937307979438983  0.482053534019471  1.0000
  N   N13       1.0  0.937936973581067  1.5782710661899983e-05  0.9562001153665636  1.0000
  N   N14       1.0  0.06206517226736709  0.9999858031911372  0.45620045278728594  1.0000
  N   N15       1.0  0.0612366371358206  8.057275717019999e-05  0.9121057821405645  1.0000
  N   N16       1.0  0.9387612542183914  0.9999198797999184  0.4121054024320402  1.0000
  N   N17       1.0  0.17673053491242285  0.00015384880644829998  0.8674774935154376  1.0000
  N   N18       1.0  0.8232686833596644  0.9998467636746327  0.36747905787417073  1.0000
  N   N19       1.0  0.7117397555983088  0.9999558782202198  0.11414245983844752  1.0000
  N   N20       1.0  0.2882599343202513  4.3059092000399976e-05  0.6141428208402929  1.0000
  N   N21       1.0  0.5650144330010319  0.9999843865685418  0.09959716609388643  1.0000
  N   N22       1.0  0.43498904612639683  1.7186138386199992e-05  0.5995975150082984  1.0000
  N   N23       1.0  0.4235794861515457  8.579397757599995e-06  0.08713572333254403  1.0000
  N   N24       1.0  0.576420963896787  0.9999943299587173  0.5871371467352589  1.0000
  N   N25       1.0  0.5939878600127314  0.5922838444062606  0.16912099489957916  1.0000
  N   N26       1.0  0.40601294861523474  0.4077148956934309  0.6691210003417966  1.0000
  N   N27       1.0  0.001656345184649392  0.4075403495741483  0.16918622495173  1.0000
  N   N28       1.0  0.9983444633078591  0.5924583902931885  0.6691853799565877  1.0000
  N   N29       1.0  0.11829731446479028  0.08720543850544972  0.1506205772532354  1.0000
  N   N30       1.0  0.8817041786056448  0.9127946596370574  0.6506201149590041  1.0000
  N   N31       1.0  0.030973672775978296  0.9125354880548141  0.15063506173746083  1.0000
  N   N32       1.0  0.9690290538956247  0.0874646099470979  0.6506352923885573  1.0000
  N   N33       1.0  0.35857185443954614  0.9999908724957294  0.3188748070612776  1.0000
  N   N34       1.0  0.6414292869243211  8.622370330599994e-06  0.8188744941187025  1.0000
  N   N35       1.0  0.23145167198957495  0.9999173184391452  0.2576094189740347  1.0000
  N   N36       1.0  0.7685489516689684  8.110438555059997e-05  0.7576090954773564  1.0000
