data_image0
_chemical_formula_structural       Zn3P2H24C28O16
_chemical_formula_sum              "Zn3 P2 H24 C28 O16"
_cell_length_a       7.3386162302903415
_cell_length_b       10.435247492078458
_cell_length_c       10.59708249378249
_cell_angle_alpha    82.76139075803373
_cell_angle_beta     79.4967276494543
_cell_angle_gamma    75.96939157560408

_space_group_name_H-M_alt    "P 1"
_space_group_IT_number       1

loop_
  _space_group_symop_operation_xyz
  'x, y, z'

loop_
  _atom_site_type_symbol
  _atom_site_label
  _atom_site_symmetry_multiplicity
  _atom_site_fract_x
  _atom_site_fract_y
  _atom_site_fract_z
  _atom_site_occupancy
  Zn  Zn1       1.0  0.49999650703628623  0.49999885566769114  0.5000024051927668  1.0000
  Zn  Zn2       1.0  0.01788660482836239  0.21369819183419037  0.5412886254855636  1.0000
  Zn  Zn3       1.0  0.9821128195925015  0.7863014501808224  0.458709517586115  1.0000
  P   P1        1.0  0.2751154664544515  0.3148034616427183  0.6885713225179089  1.0000
  P   P2        1.0  0.7248856624590517  0.6851951879023873  0.3114267474254291  1.0000
  H   H1        1.0  0.06923926771958835  0.7622624047382447  0.8604283855157105  1.0000
  H   H2        1.0  0.9307621951509831  0.2377392567211203  0.1395739757053747  1.0000
  H   H3        1.0  0.1649150090649628  0.6748798606036247  0.07701464207524109  1.0000
  H   H4        1.0  0.8350954461076655  0.3251197960135245  0.9229850294815591  1.0000
  H   H5        1.0  0.29449519461376644  0.4341675835176347  0.1198006834135441  1.0000
  H   H6        1.0  0.7055042492187769  0.5658320507249712  0.8801965146152355  1.0000
  H   H7        1.0  0.34299167054786744  0.2839609377495478  0.9468443014629813  1.0000
  H   H8        1.0  0.6570019104219827  0.716039692231142  0.05315345968548261  1.0000
  H   H9        1.0  0.057580546599112443  0.14174564223924338  0.8456516230348612  1.0000
  H   H10       1.0  0.9424195339720145  0.8582520092423068  0.15434575539812562  1.0000
  H   H11       1.0  0.1441918371182354  0.9121314059448197  0.9494384665582345  1.0000
  H   H12       1.0  0.8558155662617681  0.0878692286868059  0.050559551371563254  1.0000
  H   H13       1.0  0.4797174869542432  0.7866660345614351  0.9164965480479168  1.0000
  H   H14       1.0  0.520286258912492  0.21333267498419425  0.08350875557773209  1.0000
  H   H15       1.0  0.7348217674596854  0.8967007995435099  0.7985267311936397  1.0000
  H   H16       1.0  0.2651795633530014  0.10329690525554013  0.20147709920920684  1.0000
  H   H17       1.0  0.3664769167562128  0.09712704189598041  0.4629945551444408  1.0000
  H   H18       1.0  0.6335216846146708  0.9028795309209273  0.5370018481391697  1.0000
  H   H19       1.0  0.23860562415149655  0.9936053536316085  0.4631888856712009  1.0000
  H   H20       1.0  0.7613996631320676  0.006393292645327601  0.5368086942807935  1.0000
  H   H21       1.0  0.4986262669389632  0.4730617797713634  0.2529152137676363  1.0000
  H   H22       1.0  0.5013745047818857  0.5269378766990942  0.7470846560593998  1.0000
  H   H23       1.0  0.31693381811606264  0.5745085842133263  0.3019775247849807  1.0000
  H   H24       1.0  0.6830686775091124  0.42549007201480304  0.6980213268708083  1.0000
  C   C1        1.0  0.11197002125214081  0.6379922681898267  0.6549124657516572  1.0000
  C   C2        1.0  0.8880178987541997  0.3620084127828989  0.3450916189760065  1.0000
  C   C3        1.0  0.16014619728730398  0.5741667481290521  0.7823198471406414  1.0000
  C   C4        1.0  0.8398491231746521  0.4258368849040934  0.21768109691223  1.0000
  C   C5        1.0  0.13190515557288054  0.6576362374523157  0.8811368932792548  1.0000
  C   C6        1.0  0.8680963267093774  0.3423654162346282  0.11886452289893158  1.0000
  C   C7        1.0  0.1834217818766249  0.6091058672416239  0.0013189298323225856  1.0000
  C   C8        1.0  0.8165814437216384  0.3908947784305782  0.9986805231317107  1.0000
  C   C9        1.0  0.25925764812867413  0.4739899309352609  0.024863694782915512  1.0000
  C   C10       1.0  0.7407400329761843  0.5260107190945008  0.9751364115029092  1.0000
  C   C11       1.0  0.2855403834568478  0.3895684664703794  0.9278396279492966  1.0000
  C   C12       1.0  0.7144556513904163  0.6104331527120622  0.07215771633617157  1.0000
  C   C13       1.0  0.23942046908413067  0.43690713676073056  0.8052370375469381  1.0000
  C   C14       1.0  0.7605773829019782  0.5630974543845114  0.19475970947132745  1.0000
  C   C15       1.0  0.34767054711039697  0.15307542264182672  0.774191169709816  1.0000
  C   C16       1.0  0.6523363670190678  0.8469222622548499  0.22581011728543396  1.0000
  C   C17       1.0  0.20641494146205733  0.0892700761981828  0.840268696135773  1.0000
  C   C18       1.0  0.7935869756595867  0.9107305394737539  0.15972713998710464  1.0000
  C   C19       1.0  0.254648468687549  0.9595951330787642  0.8952144840551953  1.0000
  C   C20       1.0  0.7453550946916891  0.040404513440499605  0.10478411406804611  1.0000
  C   C21       1.0  0.44402568958984306  0.889793891599865  0.8780490608284027  1.0000
  C   C22       1.0  0.5559774777733751  0.1102067773895783  0.12195322726433487  1.0000
  C   C23       1.0  0.5867587470719188  0.9516444581878217  0.8120369156244184  1.0000
  C   C24       1.0  0.4132439310407535  0.04835326106667281  0.1879686415337787  1.0000
  C   C25       1.0  0.5401345426161797  0.0849243170433098  0.76372637198773  1.0000
  C   C26       1.0  0.45986201249956365  0.9150753660125519  0.2362768229593469  1.0000
  C   C27       1.0  0.6969290190952864  0.1565608064836681  0.7115135252098739  1.0000
  C   C28       1.0  0.30307165556714477  0.8434388888488514  0.2884910698316717  1.0000
  O   O1        1.0  0.9693709323162241  0.7368559920683708  0.6521552445635734  1.0000
  O   O2        1.0  0.030613167101030618  0.2631436930195791  0.3478484753146348  1.0000
  O   O3        1.0  0.2144679296676628  0.5985685810137797  0.5506883861468594  1.0000
  O   O4        1.0  0.7855184179039228  0.4014370490891679  0.44931430252739096  1.0000
  O   O5        1.0  0.07799681840109685  0.32476315115294346  0.6542842409561302  1.0000
  O   O6        1.0  0.9220004122765887  0.6752345335970419  0.3457172443093485  1.0000
  O   O7        1.0  0.4356437185920613  0.32531359250478437  0.5773025681655285  1.0000
  O   O8        1.0  0.5643583848409932  0.6746820751263204  0.42269482734121067  1.0000
  O   O9        1.0  0.70635344025294  0.2521917886789069  0.7675668732423588  1.0000
  O   O10       1.0  0.29364971152249103  0.7478048770157528  0.23243121377473136  1.0000
  O   O11       1.0  0.8206597439216026  0.10920536758166584  0.6137784144896159  1.0000
  O   O12       1.0  0.17934571026167848  0.8907883384268517  0.38622166988913875  1.0000
  O   O13       1.0  0.2636650908484271  0.06094423584958971  0.515338013639969  1.0000
  O   O14       1.0  0.7363364302571969  0.9390574022925334  0.4846615124524121  1.0000
  O   O15       1.0  0.38886045380346007  0.4827513934563541  0.3215616798661642  1.0000
  O   O16       1.0  0.6111389512057246  0.5172482563310795  0.6784374082484135  1.0000
