data_image0
_chemical_formula_structural       Zn4H32C48Br4N8O16
_chemical_formula_sum              "Zn4 H32 C48 Br4 N8 O16"
_cell_length_a       8.229231863137015
_cell_length_b       11.917827442632182
_cell_length_c       15.469908307840697
_cell_angle_alpha    84.3414091707233
_cell_angle_beta     74.56494405754746
_cell_angle_gamma    69.81462659398953

_space_group_name_H-M_alt    "P 1"
_space_group_IT_number       1

loop_
  _space_group_symop_operation_xyz
  'x, y, z'

loop_
  _atom_site_type_symbol
  _atom_site_label
  _atom_site_symmetry_multiplicity
  _atom_site_fract_x
  _atom_site_fract_y
  _atom_site_fract_z
  _atom_site_occupancy
  Zn  Zn1       1.0  0.2647409889614778  0.24774610043950673  0.620726743764834  1.0000
  Zn  Zn2       1.0  0.1334460113065602  0.25205852893802233  0.879085031419649  1.0000
  Zn  Zn3       1.0  0.7352555807961707  0.7522563404676884  0.37927414565464806  1.0000
  Zn  Zn4       1.0  0.8665533815918492  0.7479421176342671  0.1209139308895359  1.0000
  H   H1        1.0  0.9571225600536337  0.5413432047140248  0.5976649607460374  1.0000
  H   H2        1.0  0.09603338765899894  0.9587709610429797  0.9021666857830084  1.0000
  H   H3        1.0  0.04287729905819753  0.45865296070551415  0.4023307397861799  1.0000
  H   H4        1.0  0.9039629403572036  0.04123326577661861  0.09783354347828781  1.0000
  H   H5        1.0  0.6156358511496266  0.8914943725400731  0.697109406990336  1.0000
  H   H6        1.0  0.20453986828771817  0.6082433477282834  0.8031634564081145  1.0000
  H   H7        1.0  0.3843638576977994  0.10850002927419675  0.3028936598805956  1.0000
  H   H8        1.0  0.7954575429570028  0.39176087976260016  0.1968369498184686  1.0000
  H   H9        1.0  0.8335835027914483  0.6178095401498069  0.8795286274658451  1.0000
  H   H10       1.0  0.33121633087770835  0.8817017689022325  0.6203769760573722  1.0000
  H   H11       1.0  0.1664285192424869  0.3821839499556392  0.12046886273083861  1.0000
  H   H12       1.0  0.6687854246149809  0.11830066770196619  0.37962250380660834  1.0000
  H   H13       1.0  0.5402384382872965  0.3701859381315343  0.6545771578290243  1.0000
  H   H14       1.0  0.5654804313077405  0.12981037068733772  0.8451232871367084  1.0000
  H   H15       1.0  0.4597536366893423  0.6298129303713297  0.3454249908628029  1.0000
  H   H16       1.0  0.4345198942861471  0.87018491326522  0.15487618504751305  1.0000
  H   H17       1.0  0.905551868712024  0.23942252862295282  0.6126807468445108  1.0000
  H   H18       1.0  0.7577655910743457  0.26074167513883145  0.8871957976330834  1.0000
  H   H19       1.0  0.0944423670547039  0.7605772380084304  0.3873225728897722  1.0000
  H   H20       1.0  0.24223493065678528  0.7392553975030367  0.1128038381753527  1.0000
  H   H21       1.0  0.6193449782602017  0.0281400780418579  0.5612693120880721  1.0000
  H   H22       1.0  0.20878174758488646  0.47161445019938947  0.9387091219685146  1.0000
  H   H23       1.0  0.38065096314846153  0.9718596746131639  0.43872977281290554  1.0000
  H   H24       1.0  0.7912181287964233  0.5283826245481151  0.06129116065704925  1.0000
  H   H25       1.0  0.9584762435124642  0.9247961105833866  0.5845287146960062  1.0000
  H   H26       1.0  0.4674394089784002  0.5752280793884241  0.9155323989611476  1.0000
  H   H27       1.0  0.04152033757907964  0.0752045367519401  0.4154705404997259  1.0000
  H   H28       1.0  0.5325615276950018  0.4247689834883488  0.08446429564823178  1.0000
  H   H29       1.0  0.07869584416053492  0.0265065219482423  0.5732378798190041  1.0000
  H   H30       1.0  0.6782432060765654  0.4736732174992967  0.9266360302676021  1.0000
  H   H31       1.0  0.9213018144925795  0.9734950228443112  0.4267623694538898  1.0000
  H   H32       1.0  0.321753588153058  0.5263265281675514  0.0733609372167265  1.0000
  C   C1        1.0  0.01432398547552798  0.44151286572392223  0.7567699227785453  1.0000
  C   C2        1.0  0.21272484094054547  0.0582588083754843  0.7429360363232433  1.0000
  C   C3        1.0  0.9856782591670025  0.5584851022695432  0.2432300602899318  1.0000
  C   C4        1.0  0.7872808209214242  0.9417418345650931  0.25706169339572676  1.0000
  C   C5        1.0  0.9027245786907732  0.5664367211532095  0.7405683323328489  1.0000
  C   C6        1.0  0.20972011495351217  0.9333681342284239  0.7592710392751911  1.0000
  C   C7        1.0  0.09727831696853445  0.433560347948699  0.2594301868066253  1.0000
  C   C8        1.0  0.7902827351015914  0.0666325094751912  0.240726983330326  1.0000
  C   C9        1.0  0.8883485670837667  0.6033696842592633  0.6534004190492199  1.0000
  C   C10       1.0  0.1450431177456507  0.8966252222996617  0.8465065827513953  1.0000
  C   C11       1.0  0.11164673464201504  0.3966291737154606  0.3465984955570036  1.0000
  C   C12       1.0  0.8549538442864842  0.10338079598616902  0.15349463391653026  1.0000
  C   C13       1.0  0.7822816138291061  0.7200066924046029  0.6383602641090607  1.0000
  C   C14       1.0  0.1405507305547433  0.7799776731138479  0.8616957847328379  1.0000
  C   C15       1.0  0.21772151223775177  0.279990384356772  0.3616405494123641  1.0000
  C   C16       1.0  0.8594490432842647  0.22002834440894503  0.13830513904854058  1.0000
  C   C17       1.0  0.6970993837626621  0.8008190698663713  0.7097110615143123  1.0000
  C   C18       1.0  0.2078333154605617  0.6989542388776827  0.7904654307709935  1.0000
  C   C19       1.0  0.3029013627090789  0.1991789072209046  0.2902916857879419  1.0000
  C   C20       1.0  0.7921684230312919  0.3010508880843119  0.2095365004286123  1.0000
  C   C21       1.0  0.7166907825721719  0.7630908519401064  0.7955574610764629  1.0000
  C   C22       1.0  0.27572040986206064  0.7365002838173708  0.7045781019265008  1.0000
  C   C23       1.0  0.2833272669525115  0.2369080201317715  0.20444516980079191  1.0000
  C   C24       1.0  0.7242772431241136  0.2635021577611241  0.2954229644582682  1.0000
  C   C25       1.0  0.8161967061740402  0.6460305413001848  0.812502406914973  1.0000
  C   C26       1.0  0.27488236464797217  0.8536138975951599  0.6874395537987255  1.0000
  C   C27       1.0  0.18381116208222892  0.3539674251671983  0.18749699038041004  1.0000
  C   C28       1.0  0.7251156919465843  0.146390327790094  0.3125602056107297  1.0000
  C   C29       1.0  0.7512713789412756  0.7596667665241198  0.5473390643745192  1.0000
  C   C30       1.0  0.058123684638594714  0.7404487008291485  0.9527771855048286  1.0000
  C   C31       1.0  0.2487269479980866  0.24033478870482838  0.4526643030627185  1.0000
  C   C32       1.0  0.9418761404715639  0.25955284530598993  0.047223417698639025  1.0000
  C   C33       1.0  0.6111819481735595  0.28009046363756346  0.6294434147752881  1.0000
  C   C34       1.0  0.5210309136186452  0.21989555995858015  0.8703259201069642  1.0000
  C   C35       1.0  0.3888122589898089  0.7199101872377299  0.37055695708939856  1.0000
  C   C36       1.0  0.4789708931452025  0.7801024052579706  0.1296732391791053  1.0000
  C   C37       1.0  0.7906892788919675  0.21672774838329897  0.6096978027652611  1.0000
  C   C38       1.0  0.6172474704574424  0.28332420506673367  0.8901884325015389  1.0000
  C   C39       1.0  0.20930558495512488  0.7832711068145032  0.39030028805855477  1.0000
  C   C40       1.0  0.3827528095322421  0.7166746534875372  0.10981054314871133  1.0000
  C   C41       1.0  0.6441221439083974  0.10473640145631441  0.5813783838317192  1.0000
  C   C42       1.0  0.3303200096643407  0.3950907016591075  0.9185480887607795  1.0000
  C   C43       1.0  0.3558714235720898  0.8952633547386811  0.41862181773821316  1.0000
  C   C44       1.0  0.669679221367133  0.6049063751940267  0.08145284068189802  1.0000
  C   C45       1.0  0.9750952059614306  0.0072681075049346  0.5510414838690353  1.0000
  C   C46       1.0  0.5332548513781034  0.49277206627305514  0.9489351898285039  1.0000
  C   C47       1.0  0.024899842689009643  0.9927343299540466  0.44895840480275245  1.0000
  C   C48       1.0  0.4667426224716635  0.5072258962583192  0.05106326159641131  1.0000
  Br  Br1       1.0  0.6031133234261783  0.8725151879023587  0.8928140921395666  1.0000
  Br  Br2       1.0  0.36976071861674603  0.6265543317004543  0.6076517467068854  1.0000
  Br  Br3       1.0  0.3969119107566996  0.12748100827587905  0.1071902673581278  1.0000
  Br  Br4       1.0  0.6302412216792987  0.3734516871649235  0.392349531005067  1.0000
  N   N1        1.0  0.522070208574867  0.20922822040355984  0.6114638865577646  1.0000
  N   N2        1.0  0.3430409672538982  0.29064017440175866  0.8883084237146263  1.0000
  N   N3        1.0  0.47792596324134706  0.790771539910942  0.388537492725149  1.0000
  N   N4        1.0  0.6569595830805994  0.7093560139961995  0.11169415996340601  1.0000
  N   N5        1.0  0.8087758985856512  0.10608128544144788  0.5801215653733109  1.0000
  N   N6        1.0  0.49496944103733387  0.39388172318248843  0.9198514699169922  1.0000
  N   N7        1.0  0.19121634959181918  0.8939193592087096  0.4198769819612664  1.0000
  N   N8        1.0  0.5050293178451426  0.6061171319235612  0.08014650498555652  1.0000
  O   O1        1.0  0.1535291357426514  0.39342033558856565  0.6959319698151561  1.0000
  O   O2        1.0  0.24298257681931548  0.10641500652432967  0.8037438234482792  1.0000
  O   O3        1.0  0.8464752410866083  0.606579414777336  0.30406623642618064  1.0000
  O   O4        1.0  0.7570237247255347  0.8935865310965524  0.1962540765654381  1.0000
  O   O5        1.0  0.9637134638062291  0.392389203644349  0.8318116405546263  1.0000
  O   O6        1.0  0.18807199213679132  0.107329847715981  0.6678880502992186  1.0000
  O   O7        1.0  0.036288988307440116  0.6076087594665724  0.16818687191431542  1.0000
  O   O8        1.0  0.8119241397421675  0.8926725904142928  0.33211201533785584  1.0000
  O   O9        1.0  0.8388502950425764  0.6841376970704829  0.4824599928953291  1.0000
  O   O10       1.0  0.004994059295057822  0.8161290420092796  0.017577792882228528  1.0000
  O   O11       1.0  0.16114562936525087  0.315864745942342  0.5175415433412738  1.0000
  O   O12       1.0  0.9950014272340794  0.1838733982266235  0.9824229195719668  1.0000
  O   O13       1.0  0.6418833317525385  0.8609621826709812  0.5371053615036915  1.0000
  O   O14       1.0  0.04008171748073146  0.6390501818906884  0.963132259752463  1.0000
  O   O15       1.0  0.3581141423658635  0.1390393795461478  0.4629001233502024  1.0000
  O   O16       1.0  0.9599191622545787  0.36095224915965934  0.0368655725467022  1.0000
