data_image0
_chemical_formula_structural       Cu8Si2H64W24C80N16O80
_chemical_formula_sum              "Cu8 Si2 H64 W24 C80 N16 O80"
_cell_length_a       14.218077466486031
_cell_length_b       14.218049203517632
_cell_length_c       21.204220330741887
_cell_angle_alpha    95.20468386663094
_cell_angle_beta     95.2049349506713
_cell_angle_gamma    114.25274372932597

_space_group_name_H-M_alt    "P 1"
_space_group_IT_number       1

loop_
  _space_group_symop_operation_xyz
  'x, y, z'

loop_
  _atom_site_type_symbol
  _atom_site_label
  _atom_site_symmetry_multiplicity
  _atom_site_fract_x
  _atom_site_fract_y
  _atom_site_fract_z
  _atom_site_occupancy
  Cu  Cu1       1.0  0.011454129042327604  0.3700041997957371  0.7765018927063847  1.0000
  Cu  Cu2       1.0  0.6299943600255135  0.9885373262985624  0.22349725664376047  1.0000
  Cu  Cu3       1.0  0.9885404082043507  0.6299909889968661  0.22349731211847504  1.0000
  Cu  Cu4       1.0  0.3700104235828761  0.01146766416389508  0.7765032439014518  1.0000
  Cu  Cu5       1.0  0.7272309756215948  0.22771856154296446  0.7349558537260705  1.0000
  Cu  Cu6       1.0  0.772284373693573  0.2727789118182145  0.2650441893310571  1.0000
  Cu  Cu7       1.0  0.2727636380029211  0.7722815861412827  0.2650455630513449  1.0000
  Cu  Cu8       1.0  0.22771736636352102  0.7272269813632377  0.7349542863246298  1.0000
  Si  Si1       1.0  0.8165691738426946  0.8165677150173708  0.7441775776253364  1.0000
  Si  Si2       1.0  0.18343159555237074  0.1834299984080019  0.255822193159986  1.0000
  H   H1        1.0  0.86361850589293  0.17853743629706287  0.34875481421877197  1.0000
  H   H2        1.0  0.8214660361601532  0.13637368221032645  0.6512425156075209  1.0000
  H   H3        1.0  0.1363794106305747  0.8214683455602129  0.651240577336864  1.0000
  H   H4        1.0  0.17852608647229568  0.8636197847734336  0.3487606665529555  1.0000
  H   H5        1.0  0.8230716174311824  0.4236083925890029  0.5832839733369184  1.0000
  H   H6        1.0  0.5763854601223669  0.1769178949311296  0.4167149568238456  1.0000
  H   H7        1.0  0.17691658440033112  0.576379983285996  0.4167153249626665  1.0000
  H   H8        1.0  0.42362024444214097  0.8230945280731208  0.5832865552402424  1.0000
  H   H9        1.0  0.8700789429206424  0.42772397861667605  0.698606545388536  1.0000
  H   H10       1.0  0.572276477472478  0.1299122424097447  0.3013929849740293  1.0000
  H   H11       1.0  0.1299092747646782  0.5722658081150911  0.3013937883808353  1.0000
  H   H12       1.0  0.42772996840352556  0.8700983659598124  0.6986079860915736  1.0000
  H   H13       1.0  0.0718730396414315  0.2899582886768499  0.66547559165938  1.0000
  H   H14       1.0  0.7100412931243129  0.9281193179821944  0.3345257824008243  1.0000
  H   H15       1.0  0.92812072554986  0.7100365915009804  0.3345230716898584  1.0000
  H   H16       1.0  0.28996199489848357  0.07188998628507905  0.6654777300679624  1.0000
  H   H17       1.0  0.07184008490570902  0.3054790851599449  0.8982052475233429  1.0000
  H   H18       1.0  0.6945286432877325  0.9281629137113898  0.10179448733412502  1.0000
  H   H19       1.0  0.928161598482305  0.6945260538428999  0.10179600551142443  1.0000
  H   H20       1.0  0.30547928928322676  0.0718419769609042  0.8982019656075477  1.0000
  H   H21       1.0  0.035070007480200595  0.2820400269506749  0.548286908972969  1.0000
  H   H22       1.0  0.7179585159284729  0.9649220677892745  0.4517138640914098  1.0000
  H   H23       1.0  0.9649269333455878  0.7179589651143419  0.4517122253737965  1.0000
  H   H24       1.0  0.28204321309349467  0.035085906855734095  0.548288518421799  1.0000
  H   H25       1.0  0.1346181184022655  0.3919503131627736  0.009325016895736806  1.0000
  H   H26       1.0  0.6080589989833243  0.8653850533552118  0.9906729089192083  1.0000
  H   H27       1.0  0.8653844681605776  0.6080594505969615  0.9906742352571952  1.0000
  H   H28       1.0  0.39194256935606125  0.13461229807813885  0.0093245319540003  1.0000
  H   H29       1.0  0.0496982389485652  0.5667233160262483  0.8388304209341725  1.0000
  H   H30       1.0  0.43327328585625224  0.9502912167618761  0.1611677597682402  1.0000
  H   H31       1.0  0.9502893318014003  0.4332711697326063  0.161168288198148  1.0000
  H   H32       1.0  0.56673388547744  0.049716166116219575  0.8388316348290842  1.0000
  H   H33       1.0  0.1018433625938826  0.6612888893939015  0.9474534366487288  1.0000
  H   H34       1.0  0.3387183751518563  0.8981510897653565  0.05254191851201279  1.0000
  H   H35       1.0  0.8981482780747498  0.3387129291165749  0.052542236398935  1.0000
  H   H36       1.0  0.6612910806403605  0.10185439724354238  0.9474570295726181  1.0000
  H   H37       1.0  0.92472773330514  0.20304910636965456  0.4635385410974777  1.0000
  H   H38       1.0  0.7969493538410221  0.07526676522255134  0.5364586698124539  1.0000
  H   H39       1.0  0.07527007202468641  0.7969516817744023  0.536456992158449  1.0000
  H   H40       1.0  0.20304529652680972  0.9247348142114122  0.4635423702430401  1.0000
  H   H41       1.0  0.1383605216253798  0.7312719985848374  0.035446698311439186  1.0000
  H   H42       1.0  0.26874123023370794  0.8616414710214643  0.9645508936075229  1.0000
  H   H43       1.0  0.8616436280102493  0.26873700636927117  0.9645502476701111  1.0000
  H   H44       1.0  0.7312625012991207  0.13835177075709032  0.0354511377762634  1.0000
  H   H45       1.0  0.8469258550689177  0.46813256169902934  0.4851316453471454  1.0000
  H   H46       1.0  0.5318685612223106  0.15307378659434795  0.5148716793059762  1.0000
  H   H47       1.0  0.1530718309233094  0.5318674095875622  0.5148709018629843  1.0000
  H   H48       1.0  0.46812288565836013  0.8469236530951606  0.48513077267426036  1.0000
  H   H49       1.0  0.2033532900903978  0.8228719613628642  0.1442716796479928  1.0000
  H   H50       1.0  0.17713456619235052  0.7966472120185772  0.8557277004756185  1.0000
  H   H51       1.0  0.7966546960414221  0.17713647037998467  0.8557264205070112  1.0000
  H   H52       1.0  0.8228669245884461  0.2033493643432181  0.144273929968378  1.0000
  H   H53       1.0  0.7820972477932885  0.4277230048549116  0.36897440312234403  1.0000
  H   H54       1.0  0.5722846999129844  0.21790749490978104  0.6310286961730539  1.0000
  H   H55       1.0  0.21790052657564027  0.5722805423238171  0.6310274376482778  1.0000
  H   H56       1.0  0.4277066744447994  0.7820877797443587  0.3689754977164838  1.0000
  H   H57       1.0  0.2599864692619533  0.579299161685718  0.2050261429323044  1.0000
  H   H58       1.0  0.4206916575335455  0.7399893338286176  0.7949729691461156  1.0000
  H   H59       1.0  0.7399973036626051  0.4206987259622467  0.7949730122355729  1.0000
  H   H60       1.0  0.5793067380625628  0.2600060011097511  0.20502696612594917  1.0000
  H   H61       1.0  0.20080025189207618  0.47714971516310106  0.09847068153987239  1.0000
  H   H62       1.0  0.5228473202780535  0.7991744177083504  0.9015255230302371  1.0000
  H   H63       1.0  0.7991874747217835  0.5228519014870798  0.9015280269051331  1.0000
  H   H64       1.0  0.47715410012433773  0.20081650826205794  0.09847243626517607  1.0000
  W   W1        1.0  0.8002277586434587  0.9559171598162807  0.8916359294844654  1.0000
  W   W2        1.0  0.044084262615143595  0.19977192999042614  0.1083647174309021  1.0000
  W   W3        1.0  0.19977295311878865  0.04407910096642103  0.10836563021447888  1.0000
  W   W4        1.0  0.9559204237259067  0.8002280806874396  0.8916349833534625  1.0000
  W   W5        1.0  0.675203966363533  0.9686907247277647  0.7500450134744908  1.0000
  W   W6        1.0  0.03130766688949651  0.3247947915662835  0.24995563927395636  1.0000
  W   W7        1.0  0.3247983103989824  0.031306174177444725  0.2499562169839962  1.0000
  W   W8        1.0  0.9686930876154917  0.6752022094663845  0.7500440845070385  1.0000
  W   W9        1.0  0.5387623421176571  0.679524058600748  0.7133701741497943  1.0000
  W   W10       1.0  0.3204737407007556  0.4612388965308796  0.2866298898672994  1.0000
  W   W11       1.0  0.46124072951720757  0.3204745667403159  0.2866321625235386  1.0000
  W   W12       1.0  0.6795278504556067  0.53875987272356  0.7133681157451264  1.0000
  W   W13       1.0  0.6651191851834142  0.6651135363719123  0.8542948449952731  1.0000
  W   W14       1.0  0.33488691822090294  0.33488068696551926  0.1457050449708461  1.0000
  W   W15       1.0  0.6927149882202175  0.8340182602031448  0.5951283841515433  1.0000
  W   W16       1.0  0.1659808305498416  0.3072830494656458  0.40487202726210103  1.0000
  W   W17       1.0  0.30728420921141725  0.16597880813539945  0.4048721866047984  1.0000
  W   W18       1.0  0.8340239014251621  0.6927197968543908  0.5951288030006978  1.0000
  W   W19       1.0  0.9371884297309235  0.0917667776532127  0.7807946151004684  1.0000
  W   W20       1.0  0.9082335164385781  0.06280862666237383  0.21920448290908465  1.0000
  W   W21       1.0  0.0628107537743716  0.9082302767566971  0.2192068971170116  1.0000
  W   W22       1.0  0.09176881002984771  0.9371890194571224  0.7807944409008839  1.0000
  W   W23       1.0  0.9565426339605096  0.9565443186921885  0.626071566111392  1.0000
  W   W24       1.0  0.0434566458483943  0.04345701703824291  0.3739297574014699  1.0000
  C   C1        1.0  0.8599218197186218  0.2408700095137135  0.38062628326130715  1.0000
  C   C2        1.0  0.7591320365354407  0.14007477382816094  0.619373496739442  1.0000
  C   C3        1.0  0.1400799342648043  0.759135897596373  0.6193712509332413  1.0000
  C   C4        1.0  0.2408601446935563  0.859920844262341  0.38062888497287156  1.0000
  C   C5        1.0  0.8798568985158398  0.3943687922828404  0.5989015112615732  1.0000
  C   C6        1.0  0.6056313453149471  0.12013825787908425  0.4010964343023318  1.0000
  C   C7        1.0  0.1201384386388895  0.6056267329818112  0.4010963521166389  1.0000
  C   C8        1.0  0.39436959676156386  0.879868695758454  0.5989053597309206  1.0000
  C   C9        1.0  0.8910458912267887  0.33780119132747205  0.48550336219192763  1.0000
  C   C10       1.0  0.6622004597625664  0.10895054407375691  0.5144948669885068  1.0000
  C   C11       1.0  0.1089502626535435  0.6621967797300599  0.5144951836748886  1.0000
  C   C12       1.0  0.3377973513496785  0.8910544348546947  0.4855065970601942  1.0000
  C   C13       1.0  0.12739962420945972  0.5374627397833508  0.989591587233569  1.0000
  C   C14       1.0  0.4625485006188939  0.8725976105645972  0.01040396048492201  1.0000
  C   C15       1.0  0.8725983031321576  0.4625458428945138  0.010407287453354303  1.0000
  C   C16       1.0  0.5374562155023029  0.12740382489867846  0.9895958343080905  1.0000
  C   C17       1.0  0.905368183154792  0.3965360164213295  0.6638511978454318  1.0000
  C   C18       1.0  0.6034651760286351  0.09462470272497116  0.336147176317624  1.0000
  C   C19       1.0  0.0946231933474735  0.6034557728767924  0.33614758298622144  1.0000
  C   C20       1.0  0.3965404689755801  0.905384870708467  0.6638541477291682  1.0000
  C   C21       1.0  0.1641294645201299  0.5944128914779938  0.0551145559419837  1.0000
  C   C22       1.0  0.4055966228925243  0.835862533398043  0.9448823975050685  1.0000
  C   C23       1.0  0.83586921902306  0.4055945889578824  0.9448838247507751  1.0000
  C   C24       1.0  0.5944071821269361  0.164133571879951  0.05511888043488258  1.0000
  C   C25       1.0  0.018044304869512504  0.3196715743136381  0.6451738515112879  1.0000
  C   C26       1.0  0.6803315238394704  0.9819505819065174  0.3548277861047424  1.0000
  C   C27       1.0  0.9819495347721484  0.6803268678277021  0.35482504685957383  1.0000
  C   C28       1.0  0.3196717781096652  0.01805873628939027  0.645174784902906  1.0000
  C   C29       1.0  0.08244001885294953  0.38545227949116173  0.9111697833315445  1.0000
  C   C30       1.0  0.6145528864765311  0.917557832926825  0.0888284044048078  1.0000
  C   C31       1.0  0.917557019240178  0.6145516923584466  0.0888301507760687  1.0000
  C   C32       1.0  0.38545348998480483  0.08244782351540893  0.9111698839776706  1.0000
  C   C33       1.0  0.9958767956141087  0.3144240088897803  0.5795962211024772  1.0000
  C   C34       1.0  0.6855736235706188  0.0041176454164144885  0.4204051160358516  1.0000
  C   C35       1.0  0.004119293670235902  0.6855725025607671  0.42040458440853  1.0000
  C   C36       1.0  0.3144265613405892  0.9958897119990411  0.5795961835260997  1.0000
  C   C37       1.0  0.1174653800425247  0.43528078812355636  0.9736967357208213  1.0000
  C   C38       1.0  0.5647269059125578  0.882536657399449  0.026300920132655413  1.0000
  C   C39       1.0  0.8825347950143013  0.5647244669353882  0.026302069175315503  1.0000
  C   C40       1.0  0.4352785942628827  0.11746370367910694  0.9736964977439228  1.0000
  C   C41       1.0  0.0683757596777568  0.5307688703355994  0.8781981500657563  1.0000
  C   C42       1.0  0.46923288072046176  0.931615326732029  0.12179866546770059  1.0000
  C   C43       1.0  0.9316119013763783  0.46923058824352654  0.121801829557981  1.0000
  C   C44       1.0  0.530774303575825  0.0683913716106375  0.8781987992030267  1.0000
  C   C45       1.0  0.10004136584737473  0.5839148293249395  0.9397286372771774  1.0000
  C   C46       1.0  0.41609033471248585  0.8999519075166663  0.06026662096443402  1.0000
  C   C47       1.0  0.899950296674497  0.41608770854255533  0.06026661204423788  1.0000
  C   C48       1.0  0.5839167989141529  0.10005334514765005  0.9397321618893456  1.0000
  C   C49       1.0  0.8949012169943418  0.25604977692333375  0.4453418865184915  1.0000
  C   C50       1.0  0.7439484191769381  0.10509282048032285  0.554656566333378  1.0000
  C   C51       1.0  0.10509578842742684  0.7439506747486746  0.5546549881840831  1.0000
  C   C52       1.0  0.2560446513005559  0.8949074084384281  0.44534475595824563  1.0000
  C   C53       1.0  0.1661518517525096  0.6936521626676467  0.07043001875756258  1.0000
  C   C54       1.0  0.3063547128800224  0.8338464492495278  0.9295656086276407  1.0000
  C   C55       1.0  0.8338522224690195  0.30635258185888875  0.9295657037369053  1.0000
  C   C56       1.0  0.6936475172847949  0.16614691554944738  0.07043350388694591  1.0000
  C   C57       1.0  0.8508018793742309  0.4017326495141448  0.457271021744674  1.0000
  C   C58       1.0  0.5982670585738035  0.1491975157291066  0.5427304159840673  1.0000
  C   C59       1.0  0.1491981566362384  0.5982675839742981  0.5427298077740302  1.0000
  C   C60       1.0  0.40172515243534707  0.8507995271467979  0.45727205973690127  1.0000
  C   C61       1.0  0.9239730533306842  0.3509936074659664  0.5548260559770383  1.0000
  C   C62       1.0  0.6490031591856179  0.0760189256671993  0.4451730144367048  1.0000
  C   C63       1.0  0.07602461295279278  0.6490021591075888  0.44517150190144855  1.0000
  C   C64       1.0  0.3509969234225494  0.9239848419274781  0.5548299330258999  1.0000
  C   C65       1.0  0.2016624730352774  0.7462743364178194  0.13206621629229423  1.0000
  C   C66       1.0  0.253732505295595  0.7983312452962893  0.8679319164645136  1.0000
  C   C67       1.0  0.7983370173791329  0.2537334874544186  0.8679303522232403  1.0000
  C   C68       1.0  0.7462712898694904  0.2016627576251866  0.13206686680961613  1.0000
  C   C69       1.0  0.8159484726266228  0.3811772163686555  0.3920251216082207  1.0000
  C   C70       1.0  0.618825941565639  0.1840511614449625  0.6079765327690652  1.0000
  C   C71       1.0  0.1840500797971174  0.618825947925103  0.607975801441988  1.0000
  C   C72       1.0  0.3811638886813781  0.81594349597961  0.3920265781692223  1.0000
  C   C73       1.0  0.2330484029917272  0.6100135300375058  0.16583004604996887  1.0000
  C   C74       1.0  0.38998564482937337  0.7669373829616363  0.8341692202375413  1.0000
  C   C75       1.0  0.7669408905498755  0.3899901216633169  0.8341703100855113  1.0000
  C   C76       1.0  0.6100182853101047  0.23306372995821797  0.1658309745409809  1.0000
  C   C77       1.0  0.1991868873853306  0.5532449656972745  0.10514502829457228  1.0000
  C   C78       1.0  0.4467580417976081  0.8007954338219251  0.8948528817527616  1.0000
  C   C79       1.0  0.800805526302419  0.44675785989205247  0.8948521746941792  1.0000
  C   C80       1.0  0.5532449027897712  0.19919678694915183  0.10514856115107558  1.0000
  N   N1        1.0  0.9733795485398886  0.3596889838051354  0.6874260509771303  1.0000
  N   N2        1.0  0.6403105515506411  0.026612046166334773  0.31257370714808264  1.0000
  N   N3        1.0  0.026613400889544895  0.640304149043878  0.31257291834896245  1.0000
  N   N4        1.0  0.35969344007660453  0.9733933132524586  0.6874286525786671  1.0000
  N   N5        1.0  0.05917220107725999  0.4325690618389971  0.8632912828001051  1.0000
  N   N6        1.0  0.5674356313992562  0.9408229126551575  0.1367075335424559  1.0000
  N   N7        1.0  0.9408224929970502  0.567433956309003  0.1367089098028984  1.0000
  N   N8        1.0  0.4325723189529853  0.05918478580203867  0.863291931799928  1.0000
  N   N9        1.0  0.23457729515249784  0.7055120344689388  0.18005262512419054  1.0000
  N   N10       1.0  0.29449460367338526  0.7654135830145989  0.8199463663309529  1.0000
  N   N11       1.0  0.7654221455559949  0.29449504218901273  0.8199462500398694  1.0000
  N   N12       1.0  0.7055123164565344  0.23458308611571252  0.18005420612376344  1.0000
  N   N13       1.0  0.8199052529811368  0.3016106227419543  0.3537092786864235  1.0000
  N   N14       1.0  0.6983950225911997  0.18009494641015783  0.6462903419805883  1.0000
  N   N15       1.0  0.1800949379295034  0.6983960431737516  0.6462905616794998  1.0000
  N   N16       1.0  0.30159793765635357  0.8199009872594375  0.35371211047679196  1.0000
  O   O1        1.0  0.902400689353783  0.0816026223685783  0.8670270531830084  1.0000
  O   O2        1.0  0.9183990017560506  0.09759731073151573  0.1329721542965743  1.0000
  O   O3        1.0  0.09760004329796601  0.9183936593070714  0.1329730943242282  1.0000
  O   O4        1.0  0.0816048906763811  0.902401671974559  0.8670274287384102  1.0000
  O   O5        1.0  0.0344773231818181  0.03447673795015049  0.8010436589998093  1.0000
  O   O6        1.0  0.9655226602315281  0.965520652931808  0.19895651177102278  1.0000
  O   O7        1.0  0.5915007212479325  0.029411252399213956  0.7401964478818925  1.0000
  O   O8        1.0  0.9705873320389743  0.40849805812659673  0.2598022196881757  1.0000
  O   O9        1.0  0.40850237920334825  0.9705880992631962  0.2598049943346297  1.0000
  O   O10       1.0  0.02941344335552289  0.5914989637990261  0.7401960919011116  1.0000
  O   O11       1.0  0.9389290639876579  0.04799310921938381  0.6930109333316423  1.0000
  O   O12       1.0  0.9520066404119802  0.06106805759895915  0.3069882029855222  1.0000
  O   O13       1.0  0.061068634003433396  0.9520054790677079  0.3069886954864244  1.0000
  O   O14       1.0  0.04799339463475861  0.9389314774254206  0.6930116380677163  1.0000
  O   O15       1.0  0.9055056325952009  0.9055067027924153  0.9063069974470038  1.0000
  O   O16       1.0  0.09449667394746092  0.09449162089819652  0.0936943270201382  1.0000
  O   O17       1.0  0.045060678828427604  0.0450640933022868  0.5860527639963279  1.0000
  O   O18       1.0  0.9549386377237925  0.9549386741778676  0.41394818279462  1.0000
  O   O19       1.0  0.6916307832335633  0.9326729350614047  0.6637504587355352  1.0000
  O   O20       1.0  0.0673252082010833  0.30836946207865873  0.3362479957703925  1.0000
  O   O21       1.0  0.3083683546377784  0.06732128370633457  0.3362499240035105  1.0000
  O   O22       1.0  0.932679493993774  0.6916319594559753  0.6637527404837582  1.0000
  O   O23       1.0  0.8227437986070639  0.8227432041979769  0.6679900790160644  1.0000
  O   O24       1.0  0.17725934458696457  0.17725688771439962  0.3320095272825085  1.0000
  O   O25       1.0  0.7864278517169936  0.9999849658397013  0.9674504364154399  1.0000
  O   O26       1.0  1.5637714462001703e-05  0.21356803276056271  0.03255076688505909  1.0000
  O   O27       1.0  0.2135728828622305  1.2712764082297716e-05  0.032551688022721195  1.0000
  O   O28       1.0  0.9999866222305017  0.7864267568238078  0.9674484396381756  1.0000
  O   O29       1.0  0.8046558862719381  0.09628731164161765  0.7564214081512332  1.0000
  O   O30       1.0  0.9037132979464461  0.19534196314559446  0.24357849613690516  1.0000
  O   O31       1.0  0.19534249636156892  0.9037087078321805  0.24358045704742887  1.0000
  O   O32       1.0  0.09629059448597839  0.8046570195604803  0.7564210868980722  1.0000
  O   O33       1.0  0.019521157161442204  0.22480850341119665  0.7883853677270594  1.0000
  O   O34       1.0  0.775193620374786  0.9804748474625458  0.2116150109205464  1.0000
  O   O35       1.0  0.9804772622153806  0.7751889478123177  0.2116161207496887  1.0000
  O   O36       1.0  0.22480873683752384  0.01952492190642371  0.7883849953635361  1.0000
  O   O37       1.0  0.8100546760194761  0.9215456328847798  0.7785155649718546  1.0000
  O   O38       1.0  0.07845457755261982  0.18994374503344605  0.2214840457056795  1.0000
  O   O39       1.0  0.1899468515046294  0.07845237522673192  0.22148568875022787  1.0000
  O   O40       1.0  0.9215477489158063  0.8100539010860502  0.7785148781042892  1.0000
  O   O41       1.0  0.7135188338701611  0.7135170985946574  0.752892169631437  1.0000
  O   O42       1.0  0.2864834796356631  0.28648123206026815  0.24710868410513598  1.0000
  O   O43       1.0  0.7290119564412052  0.7290074016352861  0.5545845996085959  1.0000
  O   O44       1.0  0.2709919299917942  0.2709922725705313  0.44541644262241686  1.0000
  O   O45       1.0  0.6950368541672063  0.9848010363682607  0.8423910374525433  1.0000
  O   O46       1.0  0.0152012113342721  0.304962768412068  0.1576070962853322  1.0000
  O   O47       1.0  0.3049630627226776  0.015193497978572218  0.1576094160315478  1.0000
  O   O48       1.0  0.9848050548971158  0.6950385927810101  0.8423923222629028  1.0000
  O   O49       1.0  0.8255451984316552  0.9381429936648406  0.5796554086312895  1.0000
  O   O50       1.0  0.06185874861560591  0.17445615606529688  0.4203440173246021  1.0000
  O   O51       1.0  0.1744548445419909  0.061857246787923315  0.42034495015683854  1.0000
  O   O52       1.0  0.938142088266659  0.8255451123592652  0.579656459212913  1.0000
  O   O53       1.0  0.5817351620447013  0.8261086867739776  0.7458038349980142  1.0000
  O   O54       1.0  0.1738902890713447  0.4182669754395222  0.2541952621697234  1.0000
  O   O55       1.0  0.4182655586081836  0.17388897790117142  0.25419923090128543  1.0000
  O   O56       1.0  0.8261113467552336  0.5817339309930177  0.7458028844556848  1.0000
  O   O57       1.0  0.5516835555707615  0.5516782876991684  0.690626409561993  1.0000
  O   O58       1.0  0.44831794217320453  0.44831829562694736  0.30937475015143423  1.0000
  O   O59       1.0  0.4067466349163027  0.642998314176026  0.691838089580564  1.0000
  O   O60       1.0  0.3569971072766264  0.5932540813232379  0.3081616416309885  1.0000
  O   O61       1.0  0.5932556209567039  0.3569985638362284  0.3081645530696306  1.0000
  O   O62       1.0  0.6430037048611864  0.40674437235210786  0.6918362932363776  1.0000
  O   O63       1.0  0.7023863133615507  0.8118155832296169  0.8794169051218785  1.0000
  O   O64       1.0  0.18818541406021444  0.2976096843002694  0.1205830745564143  1.0000
  O   O65       1.0  0.297615097933182  0.18817882113248885  0.1205869379619884  1.0000
  O   O66       1.0  0.8118192316825701  0.7023861007716126  0.879413049088015  1.0000
  O   O67       1.0  0.6107261530956195  0.846006753880332  0.5339348756861284  1.0000
  O   O68       1.0  0.1539920950633658  0.3892721749744724  0.4660668107030901  1.0000
  O   O69       1.0  0.38927298477571537  0.15398746488740767  0.4660655070529102  1.0000
  O   O70       1.0  0.846015724169426  0.6107312073406065  0.5339351969967581  1.0000
  O   O71       1.0  0.6134546941578947  0.6134412150451424  0.9202382745412976  1.0000
  O   O72       1.0  0.3865628116132598  0.3865442065173995  0.0797617835184994  1.0000
  O   O73       1.0  0.5956994824582155  0.730912220447131  0.6383547466746363  1.0000
  O   O74       1.0  0.2690863080424463  0.4043006849646106  0.36164577531523173  1.0000
  O   O75       1.0  0.4043012153776928  0.2690840264069365  0.36164775448543907  1.0000
  O   O76       1.0  0.7309176141701246  0.5956997225268666  0.6383539017284007  1.0000
  O   O77       1.0  0.541425547093617  0.654043757018023  0.8013803620304357  1.0000
  O   O78       1.0  0.3459563960917507  0.4585740311980048  0.1986183747569257  1.0000
  O   O79       1.0  0.4585790369443927  0.3459526638390642  0.1986209866545749  1.0000
  O   O80       1.0  0.6540482306889999  0.541423129909063  0.8013811380101359  1.0000
