data_image0
_chemical_formula_structural       Cu6H50W2C60S6Br2N20O2
_chemical_formula_sum              "Cu6 H50 W2 C60 S6 Br2 N20 O2"
_cell_length_a       10.786388214260441
_cell_length_b       12.476732920999947
_cell_length_c       14.4255
_cell_angle_alpha    66.83729160851288
_cell_angle_beta     75.83349615754055
_cell_angle_gamma    79.17858996865213

_space_group_name_H-M_alt    "P 1"
_space_group_IT_number       1

loop_
  _space_group_symop_operation_xyz
  'x, y, z'

loop_
  _atom_site_type_symbol
  _atom_site_label
  _atom_site_symmetry_multiplicity
  _atom_site_fract_x
  _atom_site_fract_y
  _atom_site_fract_z
  _atom_site_occupancy
  Cu  Cu1       1.0  0.0779305548552429  0.7612423496424938  0.0243276150857454  1.0000
  Cu  Cu2       1.0  0.9220699643013149  0.2387567919330991  0.9756732751666702  1.0000
  Cu  Cu3       1.0  0.09432253347435453  0.4597920934037063  0.22458809801231183  1.0000
  Cu  Cu4       1.0  0.9056770295092563  0.5402070481718866  0.7754129672197863  1.0000
  Cu  Cu5       1.0  0.06841257408042623  0.7112863435427315  0.3060455761267847  1.0000
  Cu  Cu6       1.0  0.9315869889031845  0.2887127980328614  0.6939554891053135  1.0000
  H   H1        1.0  0.8467295102250392  0.7543398987803869  0.4913448950927516  1.0000
  H   H2        1.0  0.1532708116395725  0.2456609955760243  0.508656128174259  1.0000
  H   H3        1.0  0.5739294895955425  0.7622405583184602  0.31944736333175433  1.0000
  H   H4        1.0  0.4260709309150458  0.2377594596475419  0.6805532468195281  1.0000
  H   H5        1.0  0.43840739166086007  0.8599300444405031  0.3976065391917274  1.0000
  H   H6        1.0  0.5615926342658214  0.1400734790871425  0.60239225733811  1.0000
  H   H7        1.0  0.02759673014082859  0.1979240099921142  0.3786806641449941  1.0000
  H   H8        1.0  0.9724050411266136  0.8020725024122513  0.621318811780547  1.0000
  H   H9        1.0  0.3214126252099234  0.3121352081065893  0.11970574664358942  1.0000
  H   H10       1.0  0.6785877953006576  0.6878648098594198  0.8802941702908101  1.0000
  H   H11       1.0  0.8446502481610311  0.6236262692624805  0.03018894238506677  1.0000
  H   H12       1.0  0.15535027099552687  0.3763728723131123  0.9698119478673561  1.0000
  H   H13       1.0  0.8576872286266735  0.4103759437959482  0.14349250708040273  1.0000
  H   H14       1.0  0.1423122357109605  0.5896240741700538  0.85650689161681  1.0000
  H   H15       1.0  0.6761147197626016  0.0850668350597061  0.028866895807531955  1.0000
  H   H16       1.0  0.3238885692668418  0.9149331829062959  0.9711338826215725  1.0000
  H   H17       1.0  0.3192318537636396  0.7325335526210566  0.8562356384260285  1.0000
  H   H18       1.0  0.6807666544010402  0.2674664653449526  0.1437625488171221  1.0000
  H   H19       1.0  0.5910469027447789  0.707041108401029  0.08616889810650012  1.0000
  H   H20       1.0  0.40895351776580924  0.2929589095649732  0.9138310188279064  1.0000
  H   H21       1.0  0.46384746126781107  0.545858013529795  0.32359350697527844  1.0000
  H   H22       1.0  0.5361528605967935  0.4541428808266161  0.6764061298579804  1.0000
  H   H23       1.0  0.8209044578050921  0.7106150284893573  0.22245444119280924  1.0000
  H   H24       1.0  0.17909434629751786  0.2893823603054173  0.777548052438128  1.0000
  H   H25       1.0  0.8410810299582182  0.9538782199060734  0.046987222343268825  1.0000
  H   H26       1.0  0.1589214015442479  0.0461209216695195  0.9530126247329135  1.0000
  H   H27       1.0  0.5093803816621759  0.7881308837842198  0.7450437437257023  1.0000
  H   H28       1.0  0.4906159182186727  0.2118717633530096  0.25495603282401197  1.0000
  H   H29       1.0  0.5015293367336041  0.2062427077553295  0.09575707416787083  1.0000
  H   H30       1.0  0.49847319341483853  0.7937555574298544  0.9042444394431967  1.0000
  H   H31       1.0  0.7121863819114438  0.40927169188047685  0.5478120910046229  1.0000
  H   H32       1.0  0.2878137426612142  0.5907309552567526  0.45218698562636217  1.0000
  H   H33       1.0  0.6067760929700157  0.4299299666038864  0.24947274095772798  1.0000
  H   H34       1.0  0.3932233713676184  0.5700700513621157  0.7505280441732295  1.0000
  H   H35       1.0  0.001055870527920905  0.9891187546465616  0.817432387773536  1.0000
  H   H36       1.0  0.9989426376367591  0.0108812633194404  0.18256857233711085  1.0000
  H   H37       1.0  0.8650510214479183  0.4742288726128834  0.40805409504605455  1.0000
  H   H38       1.0  0.13494844288971566  0.5257711453531257  0.5919446104342895  1.0000
  H   H39       1.0  0.1525446599551046  0.0165506328759335  0.6268030770912033  1.0000
  H   H40       1.0  0.847453650917629  0.9834511378708868  0.37319732281716245  1.0000
  H   H41       1.0  0.45134502293427664  0.7889503088167372  0.17941026015938633  1.0000
  H   H42       1.0  0.5486562551032819  0.2110505855396809  0.8205878152604454  1.0000
  H   H43       1.0  0.2754556345721113  0.9103961097583593  0.24629195972730142  1.0000
  H   H44       1.0  0.7245447859384698  0.0896039082076427  0.7537065707733603  1.0000
  H   H45       1.0  0.1706695911004985  0.0015257957022499  0.3459600650204635  1.0000
  H   H46       1.0  0.8293339938668681  0.9984715930925248  0.6540394740614343  1.0000
  H   H47       1.0  0.25905783012914446  0.8996366647057882  0.5248744378401964  1.0000
  H   H48       1.0  0.7409404807435891  0.100365106041032  0.4751238824175488  1.0000
  H   H49       1.0  0.6857629208342144  0.7334055610781149  0.6224598403854315  1.0000
  H   H50       1.0  0.3142352913925421  0.2665970860591216  0.377539586204918  1.0000
  W   W1        1.0  0.2336098286012813  0.6403951233502809  0.16186201367409583  1.0000
  W   W2        1.0  0.7663905919093068  0.3596048946157211  0.8381379032603107  1.0000
  C   C1        1.0  0.806383808592827  0.748580261011753  0.4318283121187464  1.0000
  C   C2        1.0  0.1936154584528538  0.2514215097350672  0.5681712195930616  1.0000
  C   C3        1.0  0.6663473036069263  0.7547237577795727  0.33922408068132626  1.0000
  C   C4        1.0  0.3336532155496315  0.2452753837960202  0.6607761163542205  1.0000
  C   C5        1.0  0.5754925412640617  0.7951945904816  0.5004571810998542  1.0000
  C   C6        1.0  0.42450662713564213  0.2048080566556294  0.49954345694455776  1.0000
  C   C7        1.0  0.4553336965298982  0.843567835502526  0.4736064481379215  1.0000
  C   C8        1.0  0.5446636581698742  0.1564339352443014  0.5263934335332507  1.0000
  C   C9        1.0  0.11084165498550651  0.1919391398883405  0.3199579908134424  1.0000
  C   C10       1.0  0.8891590614630047  0.8080582489064341  0.6800420732075095  1.0000
  C   C11       1.0  0.2626293730810403  0.2552592233365374  0.1869295514318168  1.0000
  C   C12       1.0  0.7373721022484717  0.7447399182390555  0.8130704706240408  1.0000
  C   C13       1.0  0.37751132133996634  0.0660737021135986  0.178556318949525  1.0000
  C   C14       1.0  0.6224901539895455  0.9339254394619942  0.821443009889464  1.0000
  C   C15       1.0  0.8062404341313327  0.7052646650417742  0.04139650530875371  1.0000
  C   C16       1.0  0.19376008502523231  0.2947344765338187  0.9586043849436621  1.0000
  C   C17       1.0  0.8219221238833329  0.4267916125488824  0.21433531169153505  1.0000
  C   C18       1.0  0.17807648292732378  0.5732075290267105  0.7856652353033766  1.0000
  C   C19       1.0  0.5902239533727922  0.0453759898217854  0.07885328786279192  1.0000
  C   C20       1.0  0.40977943430262803  0.9546231517538074  0.9211477706674528  1.0000
  C   C21       1.0  0.5782202494332154  0.9270790775860718  0.10400140717671745  1.0000
  C   C22       1.0  0.4217793135503954  0.0729200639895211  0.8959989648385118  1.0000
  C   C23       1.0  0.600124399444944  0.4759089130271335  0.4272947458566633  1.0000
  C   C24       1.0  0.3998766813006682  0.524093734110096  0.5727041557946393  1.0000
  C   C25       1.0  0.3729410870252252  0.8486999777382351  0.6431179942858661  1.0000
  C   C26       1.0  0.6270555087935534  0.1513000402277669  0.3568819293504006  1.0000
  C   C27       1.0  0.25497285116506424  0.8081152142830276  0.8214574614220568  1.0000
  C   C28       1.0  0.7450247994726383  0.1918839272925652  0.1785425673356684  1.0000
  C   C29       1.0  0.6804768028370702  0.7452508538475655  0.06885699683171256  1.0000
  C   C30       1.0  0.3195245738464649  0.2547491641184365  0.9311427451230044  1.0000
  C   C31       1.0  0.4799202961428364  0.5243189664452359  0.4009811751509532  1.0000
  C   C32       1.0  0.520080685956799  0.47568455708240265  0.599018139616078  1.0000
  C   C33       1.0  0.7886109918653261  0.7293093123059577  0.29222017436929804  1.0000
  C   C34       1.0  0.21138866976425422  0.270688952879226  0.7077804777470718  1.0000
  C   C35       1.0  0.8096087634065582  0.8763869035426596  0.0469679726948371  1.0000
  C   C36       1.0  0.19039271192295365  0.1236122380329334  0.9530320493610205  1.0000
  C   C37       1.0  0.4936282106392227  0.8024037779868963  0.6692500011960475  1.0000
  C   C38       1.0  0.5063681878876026  0.19759799275992412  0.3307493622379383  1.0000
  C   C39       1.0  0.4903055367987648  0.1142883204704717  0.1164716867733517  1.0000
  C   C40       1.0  0.5096977522306788  0.8857116974955304  0.8835290916557454  1.0000
  C   C41       1.0  0.6200857918307179  0.4513559593256673  0.5261815581216851  1.0000
  C   C42       1.0  0.37991423409596353  0.5486475642019712  0.47381862484190407  1.0000
  C   C43       1.0  0.6976349839186398  0.43554938190706594  0.2657270495051947  1.0000
  C   C44       1.0  0.3023644804189942  0.5644506360589432  0.7342730424088941  1.0000
  C   C45       1.0  0.09073445699163328  0.9398735011685845  0.7976152987646401  1.0000
  C   C46       1.0  0.9092651059919774  0.0601256404070085  0.20238507325058203  1.0000
  C   C47       1.0  0.8309350055522415  0.4585283384337799  0.35035102487135106  1.0000
  C   C48       1.0  0.1690654149583395  0.5414716795322292  0.6496488920630552  1.0000
  C   C49       1.0  0.16487285195191256  0.9545390182745379  0.7022855961785978  1.0000
  C   C50       1.0  0.8351248973317666  0.0454592469106458  0.29771332624651586  1.0000
  C   C51       1.0  0.4639535266854296  0.8797224454397109  0.16286164736504116  1.0000
  C   C52       1.0  0.5360496636980372  0.12027844891670011  0.8371360780954263  1.0000
  C   C53       1.0  0.3635458792061286  0.9490650837792741  0.19990881533007615  1.0000
  C   C54       1.0  0.6364553988314299  0.050935810577144  0.8000892600897629  1.0000
  C   C55       1.0  0.18136578077064064  0.09444684160835239  0.30523497135787636  1.0000
  C   C56       1.0  0.8186367493778022  0.9055514235768314  0.6947644626025707  1.0000
  C   C57       1.0  0.3537627496449076  0.8686746679425426  0.545118591243117  1.0000
  C   C58       1.0  0.6462356598737954  0.1313262264138686  0.45488070233263767  1.0000
  C   C59       1.0  0.5941521657710638  0.7736949809654591  0.5991500153985782  1.0000
  C   C60       1.0  0.40584604645568595  0.2263076661717776  0.4008487179749025  1.0000
  S   S1        1.0  0.167920843807579  0.57161162209173  0.05846629440526378  1.0000
  S   S2        1.0  0.8320786205300552  0.428388395874272  0.9415358771594455  1.0000
  S   S3        1.0  0.16309864704673774  0.5260217930101234  0.327780256740013  1.0000
  S   S4        1.0  0.836900915936873  0.4739773485654695  0.6722201152752162  1.0000
  S   S5        1.0  0.1336869028933449  0.8247158014122817  0.13593106838094124  1.0000
  S   S6        1.0  0.866312561444289  0.1752842165537203  0.8640697167500165  1.0000
  Br  Br1       1.0  0.11874191233930995  0.7904647114436685  0.4274457409611472  1.0000
  Br  Br2       1.0  0.881261278044157  0.2095361829127498  0.5725540641499407  1.0000
  N   N1        1.0  0.8749097156320077  0.7265968839897781  0.3501734152847007  1.0000
  N   N2        1.0  0.12508984735160314  0.2734022575858148  0.6498283431642733  1.0000
  N   N3        1.0  0.6779707581125508  0.7669458984249432  0.42825348853833844  1.0000
  N   N4        1.0  0.3220286075791067  0.2330549959314681  0.5717463232746097  1.0000
  N   N5        1.0  0.16270719534504252  0.2912280385069934  0.24580578834449077  1.0000
  N   N6        1.0  0.8372916087575676  0.7087693502877811  0.7541953188527019  1.0000
  N   N7        1.0  0.2780181472857777  0.1354470141174815  0.2202082060846848  1.0000
  N   N8        1.0  0.7219834266897108  0.8645512510677094  0.7797914028554446  1.0000
  N   N9        1.0  0.14784831631639148  0.8480637183012264  0.8712139016377806  1.0000
  N   N10       1.0  0.8521501918482883  0.1519362996647757  0.12878567203911462  1.0000
  N   N11       1.0  0.6835882723702086  0.8548759009511926  0.07157895026245599  1.0000
  N   N12       1.0  0.3164131043133338  0.1451241170148094  0.9284207916922681  1.0000
  N   N13       1.0  0.9037648628129846  0.44284620845326833  0.2672406410806046  1.0000
  N   N14       1.0  0.09623470017062631  0.5571529331223317  0.7327597309346245  1.0000
  N   N15       1.0  0.704351666224575  0.4551253144752252  0.35264238440480966  1.0000
  N   N16       1.0  0.295648754286006  0.5448747034907768  0.6473575325295968  1.0000
  N   N17       1.0  0.2699330626755341  0.8705273572673918  0.7181792745091754  1.0000
  N   N18       1.0  0.7300635331432376  0.1294726606986174  0.28182134234396017  1.0000
  N   N19       1.0  0.885805403101017  0.7870792152932963  0.02889312304962033  1.0000
  N   N20       1.0  0.11419617087447158  0.21291904989188742  0.9711078723242537  1.0000
  O   O1        1.0  0.4017262114564488  0.6391366267228094  0.13623041413894296  1.0000
  O   O2        1.0  0.5982741104081556  0.36086426763360185  0.8637699159111988  1.0000
