data_image0
_chemical_formula_structural       Al4H20C48O20
_chemical_formula_sum              "Al4 H20 C48 O20"
_cell_length_a       6.698285230024729
_cell_length_b       17.870697386692946
_cell_length_c       19.69502956735593
_cell_angle_alpha    104.44833451449968
_cell_angle_beta     90.00003583069166
_cell_angle_gamma    90.00028609227688

_space_group_name_H-M_alt    "P 1"
_space_group_IT_number       1

loop_
  _space_group_symop_operation_xyz
  'x, y, z'

loop_
  _atom_site_type_symbol
  _atom_site_label
  _atom_site_symmetry_multiplicity
  _atom_site_fract_x
  _atom_site_fract_y
  _atom_site_fract_z
  _atom_site_occupancy
  Al  Al1       1.0  0.24159355988943076  0.2504828789750846  0.2508200258702685  1.0000
  Al  Al2       1.0  0.7584086735001848  0.7495147089011382  0.74917784038729  1.0000
  Al  Al3       1.0  0.74159465452464  0.24951557622928527  0.2491780206401089  1.0000
  Al  Al4       1.0  0.25840608595291303  0.7504831320202144  0.7508198501067015  1.0000
  H   H1        1.0  0.29568383709750623  0.6572811517372088  0.9241540098309854  1.0000
  H   H2        1.0  0.7043139175389969  0.34271713810241516  0.07584438299026168  1.0000
  H   H3        1.0  0.7956783599530298  0.8427205605009717  0.5758473874733453  1.0000
  H   H4        1.0  0.20432238054265642  0.157280537214092  0.4241531116097833  1.0000
  H   H5        1.0  0.5529663277235387  0.468119993012202  0.8930624253941346  1.0000
  H   H6        1.0  0.44703441275461836  0.5318785803918686  0.1069370160687981  1.0000
  H   H7        1.0  0.0529650842147689  0.0318796846415168  0.606936554491824  1.0000
  H   H8        1.0  0.9470326704319234  0.9681200091342677  0.3930628914598557  1.0000
  H   H9        1.0  0.548248234933112  0.3847449517580587  0.9760394702102175  1.0000
  H   H10       1.0  0.4517539984681207  0.6152541818349846  0.023959973498101295  1.0000
  H   H11       1.0  0.048247926364190605  0.11525457425350547  0.5239589821477395  1.0000
  H   H12       1.0  0.9517498282839156  0.884745261302939  0.47604098812427514  1.0000
  H   H13       1.0  0.7164565674858708  0.5717045810685804  0.8480902679308998  1.0000
  H   H14       1.0  0.2835396942275565  0.428293148582064  0.15190812264496148  1.0000
  H   H15       1.0  0.21645164266855943  0.9282959800280679  0.6519095002985936  1.0000
  H   H16       1.0  0.7835490978248814  0.07170469928023951  0.34809152085998823  1.0000
  H   H17       1.0  0.4929779816878083  0.3515412166234242  0.2709349308004647  1.0000
  H   H18       1.0  0.5070242517097512  0.6484573567822026  0.7290645106629724  1.0000
  H   H19       1.0  0.992976221978914  0.1484567715946739  0.2290596163908845  1.0000
  H   H20       1.0  0.007027504335418701  0.8515419297227068  0.7709361593204918  1.0000
  C   C1        1.0  0.4905236448008806  0.14522276731673864  0.14462340015675323  1.0000
  C   C2        1.0  0.5094935178080392  0.8547779189439668  0.8553797160438564  1.0000
  C   C3        1.0  0.9904979531694239  0.3547767822684449  0.3553790079177901  1.0000
  C   C4        1.0  0.009492336877166  0.645222216466685  0.6446220065025798  1.0000
  C   C5        1.0  0.4915720025924628  0.16844527782343732  0.3311392360807944  1.0000
  C   C6        1.0  0.5084362025024874  0.8315562383061774  0.6688607409294178  1.0000
  C   C7        1.0  0.9915396825362917  0.33155342326227805  0.1688600267823048  1.0000
  C   C8        1.0  0.008452100416668901  0.6684438879769347  0.8311388858674745  1.0000
  C   C9        1.0  0.16862271706957443  0.6198850418244605  0.9267642806853758  1.0000
  C   C10       1.0  0.8313735446430285  0.380112411200095  0.07323515628626612  1.0000
  C   C11       1.0  0.6686117530119519  0.880114859088991  0.5732354527734244  1.0000
  C   C12       1.0  0.33138749456290373  0.11988609684384956  0.42676452198886494  1.0000
  C   C13       1.0  0.006264696625962099  0.6188454788771692  0.8817996031907143  1.0000
  C   C14       1.0  0.9937360438411889  0.38115141396464486  0.11819983153755939  1.0000
  C   C15       1.0  0.5062568170160588  0.8811521185308848  0.618198964501417  1.0000
  C   C16       1.0  0.4937439234833009  0.11884953937158832  0.38180153682659324  1.0000
  C   C17       1.0  0.8417453784602601  0.5709978455282608  0.8833129534172951  1.0000
  C   C18       1.0  0.1582478974231165  0.4290011462747572  0.11668596596764053  1.0000
  C   C19       1.0  0.34173890338198026  0.9290022754961171  0.6166863734342983  1.0000
  C   C20       1.0  0.658261837113706  0.07099882221893952  0.38331412564883033  1.0000
  C   C21       1.0  0.8385084489891882  0.5216626393969862  0.9286188355081959  1.0000
  C   C22       1.0  0.16148930565382355  0.4783364941913816  0.0713806081986021  1.0000
  C   C23       1.0  0.3385085059883579  0.9783370564611572  0.5713810112201827  1.0000
  C   C24       1.0  0.6614892486583273  0.021662637314626896  0.42861843473149713  1.0000
  C   C25       1.0  0.0014136692423249997  0.5239400183725564  0.9761283358048585  1.0000
  C   C26       1.0  0.9985855783164298  0.4760585550299512  0.023871105657562505  1.0000
  C   C27       1.0  0.5014083470443822  0.9760602349894824  0.5238718105303092  1.0000
  C   C28       1.0  0.4985879146814796  0.023939317004071425  0.47612711110053146  1.0000
  C   C29       1.0  0.16692650963512526  0.5745086653436219  0.9755501246405842  1.0000
  C   C30       1.0  0.8330727379250433  0.42549004983954564  0.0244498411421716  1.0000
  C   C31       1.0  0.6669250050738498  0.9254909554079519  0.5244506540639051  1.0000
  C   C32       1.0  0.3330742424944829  0.07450915677614492  0.4755482698128333  1.0000
  C   C33       1.0  0.6767682045057484  0.46932575595175763  0.9293565151336978  1.0000
  C   C34       1.0  0.32322955014603133  0.5306746397920962  0.07064345738319838  1.0000
  C   C35       1.0  0.1767683695168643  0.03067530086747184  0.5706425534193399  1.0000
  C   C36       1.0  0.8232293851334944  0.9693249530957215  0.4293568947772215  1.0000
  C   C37       1.0  0.67411204281602  0.423290042064842  0.9752218932433223  1.0000
  C   C38       1.0  0.3258872047529167  0.5767099352738256  0.024778601349531502  1.0000
  C   C39       1.0  0.17411570979650293  0.07671003061157221  0.5247776933354658  1.0000
  C   C40       1.0  0.8258835377710129  0.923289804946428  0.4752222769370533  1.0000
  C   C41       1.0  0.0096545974970113  0.5828759160290886  0.5818136315152883  1.0000
  C   C42       1.0  0.9903416642045781  0.41711985643321736  0.4181857987217015  1.0000
  C   C43       1.0  0.5096596994295767  0.9171202914776941  0.918185980392181  1.0000
  C   C44       1.0  0.49034253395839766  0.08287674314634329  0.08181397865693901  1.0000
  C   C45       1.0  0.0034003585028302002  0.5294520490266522  0.5291263816257655  1.0000
  C   C46       1.0  0.996595903287002  0.47055621014518323  0.4708799074283405  1.0000
  C   C47       1.0  0.503398795136242  0.9705560719217274  0.9708800825992158  1.0000
  C   C48       1.0  0.4965959737327593  0.029452045467877504  0.029125682134051107  1.0000
  O   O1        1.0  0.6602152533117406  0.18525034737491813  0.30877590304309877  1.0000
  O   O2        1.0  0.3397839942616869  0.8147504667772624  0.691223547398856  1.0000
  O   O3        1.0  0.16021488758380537  0.31474935552543565  0.19122733133841052  1.0000
  O   O4        1.0  0.8397888387300937  0.6852485228489087  0.808773678596772  1.0000
  O   O5        1.0  0.3211177823460005  0.1691860016734807  0.17031252255532792  1.0000
  O   O6        1.0  0.6788859440105172  0.8308184571691938  0.8296879899981136  1.0000
  O   O7        1.0  0.8211320372023891  0.3308197673690643  0.32968717793016816  1.0000
  O   O8        1.0  0.1788776607981148  0.669179784638537  0.6703117437052412  1.0000
  O   O9        1.0  0.3214867988695147  0.18910034704468606  0.3131624532785722  1.0000
  O   O10       1.0  0.6785064770415731  0.8109025730054853  0.6868385768569992  1.0000
  O   O11       1.0  0.821488579444079  0.31089616232574  0.18683197282189212  1.0000
  O   O12       1.0  0.17851514686494602  0.689101425552046  0.8131658934361639  1.0000
  O   O13       1.0  0.16151396392285733  0.33059835052506514  0.3315857182446038  1.0000
  O   O14       1.0  0.838483790707123  0.6693990955658152  0.6684116236910923  1.0000
  O   O15       1.0  0.6615048991742825  0.16939476074215074  0.1684138243258175  1.0000
  O   O16       1.0  0.33850032005332037  0.8306025505111022  0.8315850883285378  1.0000
  O   O17       1.0  0.49203109063775236  0.2957125447406881  0.25548939467494586  1.0000
  O   O18       1.0  0.5079681569218195  0.7042863052879157  0.7445090003916947  1.0000
  O   O19       1.0  0.9920330770640576  0.20428503696570746  0.24450986402220556  1.0000
  O   O20       1.0  0.0079706492529112  0.7957135364414823  0.755489577441743  1.0000
