data_image0
_chemical_formula_structural       Ag6H26C24O28
_chemical_formula_sum              "Ag6 H26 C24 O28"
_cell_length_a       6.377764459581277
_cell_length_b       9.485520017680061
_cell_length_c       15.259318203092464
_cell_angle_alpha    96.2800088977986
_cell_angle_beta     93.49377345870792
_cell_angle_gamma    100.4005398019841

_space_group_name_H-M_alt    "P 1"
_space_group_IT_number       1

loop_
  _space_group_symop_operation_xyz
  'x, y, z'

loop_
  _atom_site_type_symbol
  _atom_site_label
  _atom_site_symmetry_multiplicity
  _atom_site_fract_x
  _atom_site_fract_y
  _atom_site_fract_z
  _atom_site_occupancy
  Ag  Ag1       1.0  0.38123820310450895  0.8600040493648888  0.009628795091074876  1.0000
  Ag  Ag2       1.0  0.6187757642727477  0.140001352854874  0.9903729919313662  1.0000
  Ag  Ag3       1.0  0.8677176245849483  0.4139390322578294  0.43076278661887807  1.0000
  Ag  Ag4       1.0  0.13227942823523614  0.5860620344416957  0.5692376336892764  1.0000
  Ag  Ag5       1.0  0.56001549679538  0.41763790659287986  0.5684438257514374  1.0000
  Ag  Ag6       1.0  0.4399838056422354  0.5823599209359286  0.4315570774560697  1.0000
  H   H1        1.0  0.8857243096415245  0.4176131296422766  0.8376980739076316  1.0000
  H   H2        1.0  0.11428324163423297  0.5823803774809804  0.1623053472439864  1.0000
  H   H3        1.0  0.4767762362928136  0.8948291933087442  0.5696338938889838  1.0000
  H   H4        1.0  0.5232113968850031  0.10517185661007739  0.4303676087498616  1.0000
  H   H5        1.0  0.9224520317148543  0.876537812672204  0.898199457856002  1.0000
  H   H6        1.0  0.0775531856828096  0.12346433749087989  0.1018025458779945  1.0000
  H   H7        1.0  0.25077519866480447  0.9853541070063228  0.7325268113607918  1.0000
  H   H8        1.0  0.749224108064645  0.014643717654699597  0.2674747470925496  1.0000
  H   H9        1.0  0.25143408608037987  0.23386297005518478  0.7491550226239028  1.0000
  H   H10       1.0  0.7485696012886436  0.7661338030758741  0.2508413251432273  1.0000
  H   H11       1.0  0.1635429744621604  0.09413029344602819  0.6112431940524631  1.0000
  H   H12       1.0  0.8364584589975976  0.905869721723533  0.38875201556948  1.0000
  H   H13       1.0  0.8183211603251053  0.0033597843905112997  0.5374202627777649  1.0000
  H   H14       1.0  0.18167431254041577  0.9966412862037469  0.4625788090118945  1.0000
  H   H15       1.0  0.011867868046913012  0.8623930648656638  0.6115368897140598  1.0000
  H   H16       1.0  0.9881279082492397  0.13760908285568257  0.3884629201214763  1.0000
  H   H17       1.0  0.9939327110553222  0.7921329882310599  0.7518880079784226  1.0000
  H   H18       1.0  0.006068431849293164  0.2078659412080411  0.2481084293351401  1.0000
  H   H19       1.0  0.17651429059102242  0.6317085704324726  0.8736652520819064  1.0000
  H   H20       1.0  0.8234833605067635  0.3682946562568076  0.12633533382634  1.0000
  H   H21       1.0  0.20489854091237444  0.5353752479921993  0.9488073708207166  1.0000
  H   H22       1.0  0.7951025391907365  0.4646290709770398  0.05119140820373499  1.0000
  H   H23       1.0  0.6408859886490674  0.2838286968986664  0.23789412285224637  1.0000
  H   H24       1.0  0.3591119658793502  0.7161756069176943  0.7621072011018768  1.0000
  H   H25       1.0  0.7552385390867898  0.4519862264133962  0.2596584837405445  1.0000
  H   H26       1.0  0.2447632321382328  0.548014842940894  0.7403427058939229  1.0000
  C   C1        1.0  0.11975522986747929  0.017329353532389298  0.7695502365732452  1.0000
  C   C2        1.0  0.8802406178138397  0.9826673989232186  0.23044854204307086  1.0000
  C   C3        1.0  0.09338590851844228  0.16280991051804955  0.7391495637519938  1.0000
  C   C4        1.0  0.9066127113809158  0.8371911608901285  0.2608502393371595  1.0000
  C   C5        1.0  0.029870295026768186  0.139221758851285  0.638721804921154  1.0000
  C   C6        1.0  0.9701348966199177  0.8607804085185574  0.3612762673378569  1.0000
  C   C7        1.0  0.8292250801887634  0.023961007681101893  0.6101399933798035  1.0000
  C   C8        1.0  0.17077854867057587  0.9760411521123017  0.3898593513440431  1.0000
  C   C9        1.0  0.8671192786608585  0.8818452966280645  0.6435622966422799  1.0000
  C   C10       1.0  0.1328714715079897  0.11815577417922189  0.35643535057523934  1.0000
  C   C11       1.0  0.9297126915659601  0.8905369014976467  0.7428367797958727  1.0000
  C   C12       1.0  0.07028000908152167  0.10945985014404866  0.2571612675209565  1.0000
  C   C13       1.0  0.21899965111174416  0.0334750749976962  0.8644515365435623  1.0000
  C   C14       1.0  0.781000535866788  0.9665260011191206  0.13554764932658256  1.0000
  C   C15       1.0  0.9483927355438341  0.23384638780515118  0.7973919038345515  1.0000
  C   C16       1.0  0.05159445929404416  0.766141700121288  0.20260999174907818  1.0000
  C   C17       1.0  0.034491666940837655  0.2737176015902065  0.5927858375749224  1.0000
  C   C18       1.0  0.9655091011479796  0.7262856459875378  0.40721089291199053  1.0000
  C   C19       1.0  0.6231149957641762  0.08030431187673057  0.6267089822417516  1.0000
  C   C20       1.0  0.37688700321448454  0.9197032327381647  0.37329332141199245  1.0000
  C   C21       1.0  0.7071960598797276  0.7454483274837073  0.6068985577139046  1.0000
  C   C22       1.0  0.2927975424759879  0.25455166127482437  0.3931003932488863  1.0000
  C   C23       1.0  0.7333818512164  0.8740605284781183  0.7952918081037055  1.0000
  C   C24       1.0  0.2666098591703658  0.12593839278365238  0.2047037458030587  1.0000
  O   O1        1.0  0.16229109105213257  0.9282508067035732  0.9098372876731985  1.0000
  O   O2        1.0  0.8377044446149001  0.07174487436054018  0.0901594424055716  1.0000
  O   O3        1.0  0.36091259735812287  0.14365884256822165  0.8884860092258435  1.0000
  O   O4        1.0  0.639083633722656  0.8563335860131643  0.11151378670878388  1.0000
  O   O5        1.0  0.8288644583029808  0.16990696862642093  0.8459330197287755  1.0000
  O   O6        1.0  0.17114686675108695  0.8300833327127106  0.15406371464488433  1.0000
  O   O7        1.0  0.9759779643511877  0.3776698806790789  0.7953588408172934  1.0000
  O   O8        1.0  0.02403392192994855  0.6223279529731798  0.2046443323423333  1.0000
  O   O9        1.0  0.9186964915428034  0.2569069906916681  0.5200683401692885  1.0000
  O   O10       1.0  0.08130174495709493  0.7430984045907393  0.47993044560154624  1.0000
  O   O11       1.0  0.16370638412585944  0.38870756449021115  0.6263509356096861  1.0000
  O   O12       1.0  0.8362966550395399  0.6112924295778511  0.3736495540057376  1.0000
  O   O13       1.0  0.620763991072053  0.20447129616987775  0.659763044499229  1.0000
  O   O14       1.0  0.37923944866012244  0.7955243625527755  0.34024108341782267  1.0000
  O   O15       1.0  0.44168118012552776  0.9916930696530951  0.5944340057151222  1.0000
  O   O16       1.0  0.5583183586493804  0.0083112274007391  0.40556932200332346  1.0000
  O   O17       1.0  0.565719405064108  0.7558317389768233  0.5451169434061142  1.0000
  O   O18       1.0  0.43427262592060595  0.24416824794085557  0.45488196952985044  1.0000
  O   O19       1.0  0.7355823960291802  0.6283653334282632  0.6340375404341572  1.0000
  O   O20       1.0  0.2644146396236806  0.3716357447424343  0.3659602588906665  1.0000
  O   O21       1.0  0.5516022079570247  0.8592956810905008  0.7572199070888246  1.0000
  O   O22       1.0  0.4484130445279249  0.1407086343718618  0.2427838008978966  1.0000
  O   O23       1.0  0.7598676443517717  0.85681263317808  0.8795130521855512  1.0000
  O   O24       1.0  0.24013542914826047  0.14318733794763716  0.1204926793965129  1.0000
  O   O25       1.0  0.14911228816326624  0.6207388506406629  0.9364582907280905  1.0000
  O   O26       1.0  0.8508922552797955  0.37926653766619006  0.0635439233792141  1.0000
  O   O27       1.0  0.7777714780504823  0.3547437758882168  0.2399512144361111  1.0000
  O   O28       1.0  0.22222653927944686  0.6452551383979992  0.7600477678071229  1.0000
