data_image0
_chemical_formula_structural       Na2H36C30N2O8
_chemical_formula_sum              "Na2 H36 C30 N2 O8"
_cell_length_a       6.2763065020981985
_cell_length_b       6.640697106344056
_cell_length_c       18.77564340923401
_cell_angle_alpha    78.43584506989805
_cell_angle_beta     87.97295466663606
_cell_angle_gamma    71.3499203411728

_space_group_name_H-M_alt    "P 1"
_space_group_IT_number       1

loop_
  _space_group_symop_operation_xyz
  'x, y, z'

loop_
  _atom_site_type_symbol
  _atom_site_label
  _atom_site_symmetry_multiplicity
  _atom_site_fract_x
  _atom_site_fract_y
  _atom_site_fract_z
  _atom_site_occupancy
  Na  Na1       1.0  0.8821843293138869  0.29252741824218015  0.4747837187771253  1.0000
  Na  Na2       1.0  0.11785154819209966  0.7074542983202362  0.5252217349366219  1.0000
  H   H1        1.0  0.9405262741466914  0.9909627565093544  0.3906584263474357  1.0000
  H   H2        1.0  0.0595031421049015  0.009000953887337494  0.6093476239810798  1.0000
  H   H3        1.0  0.18365747886113576  0.015668327698350002  0.38512612147571446  1.0000
  H   H4        1.0  0.8163555343854086  0.9843123572142285  0.6148667417885747  1.0000
  H   H5        1.0  0.2815530435119343  0.20663572337860361  0.5647141437398985  1.0000
  H   H6        1.0  0.7184603521345068  0.7933376249452876  0.4352898190357664  1.0000
  H   H7        1.0  0.3579042391108018  0.3010000530621539  0.48685982575290854  1.0000
  H   H8        1.0  0.6421083146442116  0.698989711731535  0.5131415486362769  1.0000
  H   H9        1.0  0.0479662422225005  0.17768861535019198  0.1851681830359766  1.0000
  H   H10       1.0  0.9520564201551881  0.8223173402462222  0.8148358802621942  1.0000
  H   H11       1.0  0.7330261542651825  0.4585865585876617  0.22515612414317593  1.0000
  H   H12       1.0  0.26700288909670883  0.5413864791379197  0.77485522464179  1.0000
  H   H13       1.0  0.7950531268606867  0.6423952742826201  0.323059127225136  1.0000
  H   H14       1.0  0.20494998680577942  0.35758413704707687  0.6769482591773937  1.0000
  H   H15       1.0  0.17438882139362724  0.5219864939257519  0.3837554868017534  1.0000
  H   H16       1.0  0.8256010999874448  0.47802241810117607  0.6162453944646841  1.0000
  H   H17       1.0  0.6166714375654224  0.9998510710831922  0.2674977708685233  1.0000
  H   H18       1.0  0.3833610499928853  0.00012280358297550063  0.7325033824229549  1.0000
  H   H19       1.0  0.48481171779840787  0.523231972467734  0.05397459495608098  1.0000
  H   H20       1.0  0.5151757189780496  0.4767931643858176  0.9460258507245454  1.0000
  H   H21       1.0  0.21445605983691962  0.5464938711385301  0.15448917989292  1.0000
  H   H22       1.0  0.7855880719974095  0.4535012764650972  0.8455122137890284  1.0000
  H   H23       1.0  0.20959795564156983  0.7833719173873915  0.2414987585353785  1.0000
  H   H24       1.0  0.7903929351487733  0.21661054973881022  0.7585085152216705  1.0000
  H   H25       1.0  0.6977274579156044  0.1775421343460977  0.14631255242741048  1.0000
  H   H26       1.0  0.30229073581403293  0.8224541664397053  0.853689458147869  1.0000
  H   H27       1.0  0.7318749922405631  0.1352127893339983  0.05542023497493889  1.0000
  H   H28       1.0  0.2681029143596874  0.8647945766869396  0.9445770812506779  1.0000
  H   H29       1.0  0.929324876337091  0.9646830576978259  0.1239083644300436  1.0000
  H   H30       1.0  0.07066004727474959  0.03531272409163218  0.8760933421563449  1.0000
  H   H31       1.0  0.7785953974253274  0.6185611506547773  0.9902039181783093  1.0000
  H   H32       1.0  0.22135513265924084  0.3814809025899565  0.009779735607104099  1.0000
  H   H33       1.0  0.9538707665886648  0.7124801610054307  0.03873956586257072  1.0000
  H   H34       1.0  0.046088414811407616  0.28754527922905737  0.9612509047587068  1.0000
  H   H35       1.0  0.7389287685088916  0.9000946177046886  0.9786489660072845  1.0000
  H   H36       1.0  0.2610239573538777  0.09995313459156559  0.021345519457710797  1.0000
  C   C1        1.0  0.32293797874935143  0.2725590933407673  0.32336972548644377  1.0000
  C   C2        1.0  0.6770370911218676  0.7274231894882063  0.676636587598196  1.0000
  C   C3        1.0  0.29144426923085115  0.17901715968569934  0.26355644693995817  1.0000
  C   C4        1.0  0.7085638219004835  0.8209577711167384  0.7364469185573697  1.0000
  C   C5        1.0  0.0743914485543584  0.24930211649797232  0.2299650332496554  1.0000
  C   C6        1.0  0.9256274655732212  0.7506826170683067  0.7700398054389977  1.0000
  C   C7        1.0  0.8982325462863086  0.40954869111786957  0.2520228979932  1.0000
  C   C8        1.0  0.10179339310848687  0.5904524273429318  0.7479814389794085  1.0000
  C   C9        1.0  0.9319842183915626  0.5123521273901374  0.3071510694478334  1.0000
  C   C10       1.0  0.06802156720954143  0.48765709265791196  0.6928491661567973  1.0000
  C   C11       1.0  0.14294794526576743  0.44396117590630974  0.3412424838368011  1.0000
  C   C12       1.0  0.8570502342367519  0.5560228396745259  0.6587673171367072  1.0000
  C   C13       1.0  0.5354709986367538  0.19204540431593392  0.3687078038613834  1.0000
  C   C14       1.0  0.46451593470724367  0.8079236722643724  0.6312827204378876  1.0000
  C   C15       1.0  0.4629567678145747  0.9081107259331418  0.18625241838905993  1.0000
  C   C16       1.0  0.5370356296082051  0.09189948954927729  0.8137531649379142  1.0000
  C   C17       1.0  0.6094013406111431  0.9042458814893378  0.12731955759705474  1.0000
  C   C18       1.0  0.39059480760028714  0.09577320692172721  0.8726769400336776  1.0000
  C   C19       1.0  0.6196330310593865  0.7604195869427386  0.0801722430489207  1.0000
  C   C20       1.0  0.38036104032876494  0.23960130226802076  0.9198214934810949  1.0000
  C   C21       1.0  0.4764844401806272  0.6338992605332265  0.09048905993981998  1.0000
  C   C22       1.0  0.5235204951197829  0.3661211555626806  0.909513166554106  1.0000
  C   C23       1.0  0.32519424701520444  0.6456730458090759  0.1469822432751684  1.0000
  C   C24       1.0  0.674813508349338  0.35433926393084664  0.8530204577123185  1.0000
  C   C25       1.0  0.3204527174714116  0.7802325253763129  0.19546741005174081  1.0000
  C   C26       1.0  0.6795554226779217  0.21978284737750903  0.8045377673403208  1.0000
  C   C27       1.0  0.7490274498921253  0.05327760043009991  0.1130057783257428  1.0000
  C   C28       1.0  0.25096030806384556  0.9467328649487425  0.8869955545084309  1.0000
  C   C29       1.0  0.7807409022335675  0.7465734093290096  0.018789721856656217  1.0000
  C   C30       1.0  0.21921515235650452  0.2534748499774651  0.9811988516727794  1.0000
  N   N1        1.0  0.46974683165599623  0.03377952961142229  0.23803145807512038  1.0000
  N   N2        1.0  0.530268764538448  0.9662203169691564  0.7619660901665171  1.0000
  O   O1        1.0  0.08220770623496777  0.9663092404236763  0.4196006123505285  1.0000
  O   O2        1.0  0.9178048100898621  0.03369797016955539  0.5804060994028717  1.0000
  O   O3        1.0  0.2346630256944877  0.32710835308347436  0.5224038869086839  1.0000
  O   O4        1.0  0.7653514630859564  0.6728668493960797  0.47759729272286217  1.0000
  O   O5        1.0  0.5515965649559361  0.2815444105594125  0.42123843605715894  1.0000
  O   O6        1.0  0.4483650807443809  0.7184471940837156  0.5787492745646786  1.0000
  O   O7        1.0  0.6946371984596522  0.026591364631542495  0.3541944451648078  1.0000
  O   O8        1.0  0.3053430100313576  0.9733972909270109  0.6457933340156855  1.0000
