data_image0
_chemical_formula_structural       Zn4H24C48S8N8O16
_chemical_formula_sum              "Zn4 H24 C48 S8 N8 O16"
_cell_length_a       11.090682011112976
_cell_length_b       12.822913299819191
_cell_length_c       12.822918671146336
_cell_angle_alpha    62.4641324850437
_cell_angle_beta     84.60767374931292
_cell_angle_gamma    84.6077879714163

_space_group_name_H-M_alt    "P 1"
_space_group_IT_number       1

loop_
  _space_group_symop_operation_xyz
  'x, y, z'

loop_
  _atom_site_type_symbol
  _atom_site_label
  _atom_site_symmetry_multiplicity
  _atom_site_fract_x
  _atom_site_fract_y
  _atom_site_fract_z
  _atom_site_occupancy
  Zn  Zn1       1.0  0.1327538820799532  0.9755675321774502  0.5011239613578059  1.0000
  Zn  Zn2       1.0  0.36724486499851855  0.4988761417144401  0.02443573355945733  1.0000
  Zn  Zn3       1.0  0.8672459209763589  0.024434420775669704  0.49887542759739034  1.0000
  Zn  Zn4       1.0  0.6327549380577863  0.5011258112386799  0.975563655395739  1.0000
  H   H1        1.0  0.2478645423093226  0.30675823607499814  0.2022669009693132  1.0000
  H   H2        1.0  0.25213417459040244  0.7977398409475285  0.69323839462421  1.0000
  H   H3        1.0  0.7521379830529683  0.6932437280481025  0.7977330257556688  1.0000
  H   H4        1.0  0.7478689691477456  0.2022665266143449  0.306757872091481  1.0000
  H   H5        1.0  0.872840343390145  0.3987626906834692  0.25872257800030957  1.0000
  H   H6        1.0  0.6271511439564178  0.7412780070190553  0.6012439335342564  1.0000
  H   H7        1.0  0.127160382890203  0.6012392715555066  0.7412790659142062  1.0000
  H   H8        1.0  0.37284876151490914  0.2587230817051278  0.3987620871343226  1.0000
  H   H9        1.0  0.9055852797414945  0.6027515569114074  0.09811146607636101  1.0000
  H   H10       1.0  0.5944123250050454  0.9018834743775342  0.39725330897322675  1.0000
  H   H11       1.0  0.09441547198387923  0.39724951398128633  0.9018866905007459  1.0000
  H   H12       1.0  0.4055897352864477  0.09811143938527782  0.6027499347996044  1.0000
  H   H13       1.0  0.8040809658047721  0.9710813350404592  0.18253075601457883  1.0000
  H   H14       1.0  0.6959162544006717  0.8174698970920531  0.02891178835388078  1.0000
  H   H15       1.0  0.1959144632479095  0.0289179558511066  0.8174686910103974  1.0000
  H   H16       1.0  0.304081953768808  0.1825276243628836  0.9710820001545742  1.0000
  H   H17       1.0  0.16135462706856163  0.8111412529234416  0.28065740228007746  1.0000
  H   H18       1.0  0.3386423295730907  0.7193446366910267  0.1888565261921116  1.0000
  H   H19       1.0  0.8386345424839021  0.18885714419931784  0.7193461243479007  1.0000
  H   H20       1.0  0.6613578529045228  0.28065114776040906  0.8111449166109639  1.0000
  H   H21       1.0  0.16838291155234233  0.7537651927646251  0.11604644384994613  1.0000
  H   H22       1.0  0.33161870204148874  0.8839536761921352  0.24623778779888286  1.0000
  H   H23       1.0  0.8316159546764368  0.24623764642081622  0.8839557342603825  1.0000
  H   H24       1.0  0.668380415748551  0.116044750066834  0.7537632997833514  1.0000
  C   C1        1.0  0.04393250569970769  0.2144120076092406  0.3398220318490673  1.0000
  C   C2        1.0  0.45606924824141265  0.6601743461789554  0.7855919403531788  1.0000
  C   C3        1.0  0.956068293391816  0.785589079971054  0.6601823518362195  1.0000
  C   C4        1.0  0.543951508294903  0.3398259208431682  0.21440874823435516  1.0000
  C   C5        1.0  0.059147453883035384  0.3376240589802891  0.24466984178960877  1.0000
  C   C6        1.0  0.4408516282762207  0.7553312323111926  0.66237951518054  1.0000
  C   C7        1.0  0.9408587779789171  0.6623770467680644  0.7553340606582072  1.0000
  C   C8        1.0  0.5591518203101131  0.24467074109776382  0.33762266650376926  1.0000
  C   C9        1.0  0.1700063831149805  0.3698193148167945  0.1818335534132345  1.0000
  C   C10       1.0  0.3299942224249719  0.8181715368894159  0.6301809696079135  1.0000
  C   C11       1.0  0.8299971264409863  0.6301817797615711  0.8181698112647952  1.0000
  C   C12       1.0  0.670011771479203  0.1818330862672184  0.36981897925353735  1.0000
  C   C13       1.0  0.9618677683843515  0.42243920454667017  0.21357275042931442  1.0000
  C   C14       1.0  0.5381284482431781  0.7864288775578744  0.5775638384669224  1.0000
  C   C15       1.0  0.0381348297891151  0.577561884917742  0.7864299160664319  1.0000
  C   C16       1.0  0.46187330543818217  0.2135713300479409  0.4224400912288005  1.0000
  C   C17       1.0  0.9796711789692123  0.5353090854216236  0.12446162428195616  1.0000
  C   C18       1.0  0.5203269907416868  0.87553715992955  0.4646970462937434  1.0000
  C   C19       1.0  0.020330379961698994  0.46469375450404726  0.8755371996555469  1.0000
  C   C20       1.0  0.4796757234502849  0.1244621697877406  0.5353072078009335  1.0000
  C   C21       1.0  0.094354641071412  0.5610835370483825  0.06572032016737246  1.0000
  C   C22       1.0  0.40564373564780704  0.9342795100653448  0.43891682813708877  1.0000
  C   C23       1.0  0.9056452170337579  0.4389175349881995  0.9342794733930193  1.0000
  C   C24       1.0  0.5943598425605146  0.06571980807831322  0.5610818970316773  1.0000
  C   C25       1.0  0.9888366875983651  0.8347791519877391  0.06630596760800245  1.0000
  C   C26       1.0  0.5111590343638497  0.9336964881390202  0.1652187212110548  1.0000
  C   C27       1.0  0.0111576394801887  0.16522366788574772  0.9336950547565054  1.0000
  C   C28       1.0  0.48883733151636477  0.0663019165202243  0.8347779366587817  1.0000
  C   C29       1.0  0.8864987980432344  0.923123951951091  0.1707862676714812  1.0000
  C   C30       1.0  0.6134970657163663  0.8292187019005156  0.07687000624511608  1.0000
  C   C31       1.0  0.1134929718759423  0.07687621400282302  0.8292154307388346  1.0000
  C   C32       1.0  0.386504689726941  0.17078060601522083  0.923127322559097  1.0000
  C   C33       1.0  0.9831551534912178  0.8960202420976843  0.24379690961632147  1.0000
  C   C34       1.0  0.5168427799494566  0.7562048328648241  0.10397589336316351  1.0000
  C   C35       1.0  0.0168383663817906  0.1039808087428327  0.7562034453877831  1.0000
  C   C36       1.0  0.4831583944045548  0.24378918443774475  0.8960231648899754  1.0000
  C   C37       1.0  0.08568044180853458  0.833348546378069  0.22446039218642275  1.0000
  C   C38       1.0  0.4143188642072105  0.7755401569989215  0.16664764271052243  1.0000
  C   C39       1.0  0.9143139166358054  0.16665338423509013  0.7755379212291943  1.0000
  C   C40       1.0  0.5856849655623719  0.22445474821826394  0.8333499919301561  1.0000
  C   C41       1.0  0.9818269772279891  0.93682316121253  0.33605444155426073  1.0000
  C   C42       1.0  0.5181738654937932  0.663948997737542  0.0631683662745815  1.0000
  C   C43       1.0  0.018156539358578503  0.0631787414083078  0.6639479478903855  1.0000
  C   C44       1.0  0.4818452233445143  0.33604771244508674  0.9368239820954474  1.0000
  C   C45       1.0  0.0896589971038395  0.8010264860682382  0.13476269071453137  1.0000
  C   C46       1.0  0.41033671683651096  0.8652365352252431  0.1989717504976625  1.0000
  C   C47       1.0  0.9103363768999769  0.19897368573986543  0.8652363517052352  1.0000
  C   C48       1.0  0.5896607137312772  0.13475922762646766  0.801025262593001  1.0000
  S   S1        1.0  0.9760275735061582  0.8037437097325155  0.9455785976761962  1.0000
  S   S2        1.0  0.5239723229198391  0.054419394313775585  0.19625616657260997  1.0000
  S   S3        1.0  0.023973294237720197  0.19625560141305703  0.05442114649982704  1.0000
  S   S4        1.0  0.47602685760178076  0.9455772534245381  0.8037395031118425  1.0000
  S   S5        1.0  0.1286097613264658  0.7016080049521136  0.9490614431771864  1.0000
  S   S6        1.0  0.37138780519642717  0.05093920179744061  0.2983866941479435  1.0000
  S   S7        1.0  0.8713920965318638  0.29839043873467824  0.050942517340409714  1.0000
  S   S8        1.0  0.6286141094727143  0.9490574612827417  0.7016110700833453  1.0000
  N   N1        1.0  0.8894696043106763  0.8936114534260682  0.08303684035831803  1.0000
  N   N2        1.0  0.6105277149304696  0.9169677989400851  0.10638610009513663  1.0000
  N   N3        1.0  0.11052754925082552  0.1063896136983828  0.9169647505978562  1.0000
  N   N4        1.0  0.3894692261182726  0.08303589424637892  0.8936080499372567  1.0000
  N   N5        1.0  0.1881964000545011  0.47908472199924296  0.09391705297910148  1.0000
  N   N6        1.0  0.3118028270185392  0.9060820260254516  0.5209150836074914  1.0000
  N   N7        1.0  0.8118052139252825  0.520917237009897  0.9060821755635973  1.0000
  N   N8        1.0  0.6881997847584104  0.0939181679207834  0.47908253877379553  1.0000
  O   O1        1.0  0.8805645414119142  0.9734112849639515  0.36671163085294034  1.0000
  O   O2        1.0  0.6194302849981314  0.6332945810658971  0.02657765436779168  1.0000
  O   O3        1.0  0.11942439610353972  0.026590631653050402  0.6332887205771913  1.0000
  O   O4        1.0  0.3805694038016156  0.3667082319442656  0.9734135460969714  1.0000
  O   O5        1.0  0.08448410313255292  0.9323798255544274  0.37559453154082706  1.0000
  O   O6        1.0  0.4155112795689888  0.624411005439562  0.06760854288769019  1.0000
  O   O7        1.0  0.915503499374985  0.0676150501899713  0.6244138874745319  1.0000
  O   O8        1.0  0.5844908493748591  0.3755821318885351  0.9323900613758769  1.0000
  O   O9        1.0  0.9356256148981714  0.18513550508300367  0.3737503930568167  1.0000
  O   O10       1.0  0.5643701818436639  0.6262466962932081  0.8148696866346443  1.0000
  O   O11       1.0  0.0643815774743928  0.8148647227768178  0.626253833789953  1.0000
  O   O12       1.0  0.4356253869106014  0.37375084319504026  0.1851344615433419  1.0000
  O   O13       1.0  0.14023428895546172  0.14981803633320817  0.3780702912835069  1.0000
  O   O14       1.0  0.3597602606182519  0.6219222782082667  0.8501874007624297  1.0000
  O   O15       1.0  0.8597709900785944  0.8501830496995313  0.6219274642623703  1.0000
  O   O16       1.0  0.6402391553340366  0.3780867408506694  0.1498157568478718  1.0000
