data_image0
_chemical_formula_structural       Zn2H52C76N4Cl4O16
_chemical_formula_sum              "Zn2 H52 C76 N4 Cl4 O16"
_cell_length_a       14.639271316252541
_cell_length_b       15.944544736257322
_cell_length_c       23.647441470210072
_cell_angle_alpha    89.27717095161488
_cell_angle_beta     70.61101316646918
_cell_angle_gamma    80.07284913195772

_space_group_name_H-M_alt    "P 1"
_space_group_IT_number       1

loop_
  _space_group_symop_operation_xyz
  'x, y, z'

loop_
  _atom_site_type_symbol
  _atom_site_label
  _atom_site_symmetry_multiplicity
  _atom_site_fract_x
  _atom_site_fract_y
  _atom_site_fract_z
  _atom_site_occupancy
  Zn  Zn1       1.0  0.6031698494951951  0.5142743704259659  0.4760838394337341  1.0000
  Zn  Zn2       1.0  0.4021193335489599  0.4864099414573317  0.5241276115361514  1.0000
  H   H1        1.0  0.6484554563067916  0.3378097850093056  0.030212732238830142  1.0000
  H   H2        1.0  0.31417478538560323  0.6925441819130141  0.9786985063489623  1.0000
  H   H3        1.0  0.7909697425828952  0.09071676001639868  0.48610765521257077  1.0000
  H   H4        1.0  0.19839283124853319  0.9074583748731156  0.5571663739725352  1.0000
  H   H5        1.0  0.640364665236767  0.855619305178095  0.4812760259148803  1.0000
  H   H6        1.0  0.3566116879028485  0.14584577578889218  0.5105976821996521  1.0000
  H   H7        1.0  0.9472562862749921  0.3667760957305006  0.6322737516123026  1.0000
  H   H8        1.0  0.057572763421241284  0.6371898195109439  0.37846421486366216  1.0000
  H   H9        1.0  0.7540937713400951  0.491104194683743  0.5325669299989854  1.0000
  H   H10       1.0  0.23409816894663044  0.5424719643759772  0.4925576830706503  1.0000
  H   H11       1.0  0.11295407255451552  0.34049272540676867  0.6467325180027004  1.0000
  H   H12       1.0  0.9074555682776475  0.6369450744983353  0.34982857360848385  1.0000
  H   H13       1.0  0.8410681787712946  0.4336397789598577  0.5776315049113875  1.0000
  H   H14       1.0  0.15517156069355312  0.5863082425876271  0.44202185233859126  1.0000
  H   H15       1.0  0.648749318661345  0.33004194160098876  0.9231847464712998  1.0000
  H   H16       1.0  0.3043496767943665  0.6941051195902617  0.08762702095980049  1.0000
  H   H17       1.0  0.6427781210114246  0.5497756088997434  0.6549236643205417  1.0000
  H   H18       1.0  0.3980039317885727  0.39913675836674395  0.339253715607768  1.0000
  H   H19       1.0  0.3661578629585378  0.46143993756979995  0.7018903835717936  1.0000
  H   H20       1.0  0.5506345600658449  0.6119184755540418  0.3152508647214631  1.0000
  H   H21       1.0  0.7521086960404517  0.951243176215513  0.4845822575671192  1.0000
  H   H22       1.0  0.2379391683022263  0.050421173165801705  0.542338265283206  1.0000
  H   H23       1.0  0.25493300881101527  0.7487979358167537  0.5512283745833884  1.0000
  H   H24       1.0  0.7416590684556894  0.24999944897980697  0.4895906146321352  1.0000
  H   H25       1.0  0.7304698185247748  0.5441412442902516  0.2895830066153521  1.0000
  H   H26       1.0  0.8495769682139169  0.5482395551157708  0.29306628820707903  1.0000
  H   H27       1.0  0.6950421793694801  0.7022250418122412  0.2865489443749354  1.0000
  H   H28       1.0  0.8115249500270139  0.7095643012067255  0.29101567184557103  1.0000
  H   H29       1.0  0.8946401802726599  0.6215571727677228  0.19297014515091593  1.0000
  H   H30       1.0  0.81554716734189  0.7142867272881832  0.18336813950285352  1.0000
  H   H31       1.0  0.7771189462473982  0.6140949849627403  0.1889314666157559  1.0000
  H   H32       1.0  0.3544687022510046  0.2574108653550837  0.5750391910789502  1.0000
  H   H33       1.0  0.26016470231961364  0.2515056608983529  0.6459405778162903  1.0000
  H   H34       1.0  0.4635711548077026  0.2941303524298604  0.6288394971763863  1.0000
  H   H35       1.0  0.37258410151337534  0.28444630316694486  0.6988872337891576  1.0000
  H   H36       1.0  0.38285303199300813  0.12796262040232162  0.6691911680057032  1.0000
  H   H37       1.0  0.4966070769128378  0.1496875513432272  0.6713001476155824  1.0000
  H   H38       1.0  0.4783713851349559  0.13951235281417243  0.6014238228615766  1.0000
  H   H39       1.0  0.6695801121449916  0.6486258094008193  0.816699890519743  1.0000
  H   H40       1.0  0.5502012315035927  0.6690342989930826  0.8092710968551486  1.0000
  H   H41       1.0  0.7443546845516665  0.6760710294816404  0.7078876197686271  1.0000
  H   H42       1.0  0.6257133100623307  0.698933180531377  0.7012173623717713  1.0000
  H   H43       1.0  0.577483865495331  0.8226487699536307  0.7772398740502027  1.0000
  H   H44       1.0  0.6831769969644911  0.8346547650982643  0.715774702184703  1.0000
  H   H45       1.0  0.6958939709662745  0.8000894559081857  0.7848049155713354  1.0000
  H   H46       1.0  0.27367883284078687  0.3846949087932287  0.20065882379649477  1.0000
  H   H47       1.0  0.2743702228006697  0.4924023249167959  0.22032549277982125  1.0000
  H   H48       1.0  0.22671075102626756  0.3510064444350504  0.3090914747886515  1.0000
  H   H49       1.0  0.22687189050098766  0.4576497590921277  0.328874038790623  1.0000
  H   H50       1.0  0.09103558021333667  0.5097849082375205  0.2867110820647767  1.0000
  H   H51       1.0  0.054724371498266984  0.4362486108094997  0.3431901038582836  1.0000
  H   H52       1.0  0.08999415647343059  0.40311812890721643  0.2663746819459689  1.0000
  C   C1        1.0  0.5749719564891791  0.34026237505815976  0.4851738839568042  1.0000
  C   C2        1.0  0.435370126324905  0.6605667817315322  0.5034783952611547  1.0000
  C   C3        1.0  0.5728165741993153  0.5330856367435075  0.7490876659454457  1.0000
  C   C4        1.0  0.4260196177214651  0.45543783665986126  0.2531898147635445  1.0000
  C   C5        1.0  0.579699335557315  0.5308300144933114  0.6888669527379179  1.0000
  C   C6        1.0  0.42928680976049094  0.44886432333562715  0.3113241216484326  1.0000
  C   C7        1.0  0.5046013690853428  0.5058855458340689  0.6724868528004463  1.0000
  C   C8        1.0  0.4752170029413206  0.5046170794606439  0.3330299722798813  1.0000
  C   C9        1.0  0.42386589826804055  0.4804945092762408  0.7156544763844224  1.0000
  C   C10       1.0  0.5160173805230599  0.5684624627435183  0.2974227293799458  1.0000
  C   C11       1.0  0.4192395857733259  0.47945984534101177  0.775356860242283  1.0000
  C   C12       1.0  0.5119869959821983  0.5752457290965935  0.23952093522517257  1.0000
  C   C13       1.0  0.492364954790851  0.5068100007699883  0.7926804456728291  1.0000
  C   C14       1.0  0.46809723776503637  0.5186376013466185  0.21669166706992365  1.0000
  C   C15       1.0  0.6026115850497078  0.24477317576514673  0.4789796431879694  1.0000
  C   C16       1.0  0.40590013684224857  0.755669377680661  0.5032851419562405  1.0000
  C   C17       1.0  0.7193755861458084  0.12035015800330481  0.48379407816918263  1.0000
  C   C18       1.0  0.2760666514600416  0.8792661575774687  0.5370766031997363  1.0000
  C   C19       1.0  0.693219372849974  0.2076090602271776  0.4850968999861464  1.0000
  C   C20       1.0  0.3063494157773762  0.7922122232823765  0.5330774152859162  1.0000
  C   C21       1.0  0.5397873195796877  0.1924810801848977  0.4712537398410602  1.0000
  C   C22       1.0  0.47334859128328344  0.8094704599510008  0.4779216196360565  1.0000
  C   C23       1.0  0.5076443317503063  0.5064962519237071  0.6083254785736045  1.0000
  C   C24       1.0  0.4819677639441975  0.4961592943427108  0.3949828096885284  1.0000
  C   C25       1.0  0.5577583611183954  0.10264499350989807  0.47789778024983315  1.0000
  C   C26       1.0  0.44830517375138607  0.8993000513875485  0.4905890975590523  1.0000
  C   C27       1.0  0.6530500033059353  0.0671704101475754  0.480835162894138  1.0000
  C   C28       1.0  0.34578908512721546  0.9339218294424539  0.5170145413292742  1.0000
  C   C29       1.0  0.4869037396200397  0.0460247948106343  0.4850991960973303  1.0000
  C   C30       1.0  0.5189513683224052  0.9561742562262409  0.4816944710270833  1.0000
  C   C31       1.0  0.6172666183213238  0.9237934917452786  0.47979912061619256  1.0000
  C   C32       1.0  0.38320474951174793  0.0776038769916454  0.5052778204763583  1.0000
  C   C33       1.0  0.6798177703124465  0.9771567865436878  0.481717595245989  1.0000
  C   C34       1.0  0.3162843795602939  0.0241271259293541  0.5229419073665085  1.0000
  C   C35       1.0  0.13725478536409244  0.3847277387127547  0.6116654048603039  1.0000
  C   C36       1.0  0.8773812437755167  0.602491192946722  0.3898995843091271  1.0000
  C   C37       1.0  0.2308635190548571  0.4042344302385246  0.5969056511623589  1.0000
  C   C38       1.0  0.7853876348708724  0.5799580076008722  0.4032663328901194  1.0000
  C   C39       1.0  0.20246577623983336  0.4983274783826488  0.5258150217402644  1.0000
  C   C40       1.0  0.7940705424971313  0.5204858580136433  0.4921466998881385  1.0000
  C   C41       1.0  0.10728449419156758  0.48164324827624927  0.5362619906579198  1.0000
  C   C42       1.0  0.8911696845782231  0.5336123038332231  0.4803665694229835  1.0000
  C   C43       1.0  0.07307223778688157  0.4239168209495218  0.5820138443053223  1.0000
  C   C44       1.0  0.9319802006524821  0.5797718744503656  0.4285528289732313  1.0000
  C   C45       1.0  0.404378192635086  0.5820044827941543  0.1398524136599093  1.0000
  C   C46       1.0  0.5452971692157007  0.4395023818212707  0.8716933098850106  1.0000
  C   C47       1.0  0.04617657840414322  0.5188682726633259  0.5022547256203751  1.0000
  C   C48       1.0  0.9498901718733778  0.5007417608509712  0.5168924443678192  1.0000
  C   C49       1.0  0.9156035731719001  0.4468736845780796  0.5654594717316002  1.0000
  C   C50       1.0  0.0818061039000142  0.5709133205105772  0.45281929009787086  1.0000
  C   C51       1.0  0.9747372222020445  0.40903087466787724  0.5963286532576786  1.0000
  C   C52       1.0  0.027537397760163236  0.5998133866921193  0.41703486198970546  1.0000
  C   C53       1.0  0.5417445237541401  0.45515635342196953  0.1162867701178598  1.0000
  C   C54       1.0  0.42505486048212043  0.5778863810837221  0.8915670206015704  1.0000
  C   C55       1.0  0.5399435752296498  0.4512720330809259  0.0541474990142987  1.0000
  C   C56       1.0  0.4204911295654625  0.577659445599032  0.9550922139996059  1.0000
  C   C57       1.0  0.4774138336687912  0.5148648812660281  0.0353252211417541  1.0000
  C   C58       1.0  0.48023153044568556  0.5122490188215352  0.9745376980502981  1.0000
  C   C59       1.0  0.4122826833531974  0.5810223338558839  0.07567899846389989  1.0000
  C   C60       1.0  0.5428071140030896  0.4443798850221725  0.934773707131967  1.0000
  C   C61       1.0  0.601266865725421  0.3857021640091104  0.014193002864963902  1.0000
  C   C62       1.0  0.35868120989648133  0.6428589571649326  0.9952249714172792  1.0000
  C   C63       1.0  0.6018624314946165  0.38172547761473663  0.9547692100222206  1.0000
  C   C64       1.0  0.3537478172460027  0.6440120399766583  0.055561602446864804  1.0000
  C   C65       1.0  0.7738202838711247  0.5838359782213516  0.30412133417115683  1.0000
  C   C66       1.0  0.7717452998016086  0.6686471559112022  0.2742262590696782  1.0000
  C   C67       1.0  0.8174018579212899  0.6538712075620977  0.20605746340797276  1.0000
  C   C68       1.0  0.32509683958731017  0.2803896070535004  0.6224565960232339  1.0000
  C   C69       1.0  0.40339930625861337  0.2599275268628247  0.6518196461830073  1.0000
  C   C70       1.0  0.4422531594137807  0.16400188468276872  0.6482101327496537  1.0000
  C   C71       1.0  0.6292370298140497  0.6467702038406956  0.7850237342244667  1.0000
  C   C72       1.0  0.6665675786341511  0.7023186433379321  0.7324557599691274  1.0000
  C   C73       1.0  0.6551360640144851  0.7949611651825774  0.7537509486868004  1.0000
  C   C74       1.0  0.2847567814884541  0.425899923003108  0.23385842053512818  1.0000
  C   C75       1.0  0.21282653277674513  0.41736582900701785  0.2962562468555133  1.0000
  C   C76       1.0  0.1063178322528344  0.4429236540781288  0.2982176477087322  1.0000
  N   N1        1.0  0.4711940473335048  0.5196111326833801  0.155549359935037  1.0000
  N   N2        1.0  0.48688429205756734  0.5080555966679937  0.8542626049660171  1.0000
  N   N3        1.0  0.26156423704158277  0.46139536319092395  0.5547840269008901  1.0000
  N   N4        1.0  0.7432712315592195  0.5426148535590515  0.45520838575725964  1.0000
  Cl  Cl1       1.0  0.3222127371262006  0.44400108036634106  0.8286515686368573  1.0000
  Cl  Cl2       1.0  0.5643688359333439  0.6528656384843358  0.19468346967834557  1.0000
  Cl  Cl3       1.0  0.5840124485390417  0.7663946133650583  0.423270394051805  1.0000
  Cl  Cl4       1.0  0.4457648581847238  0.2399384418328125  0.44532925509520277  1.0000
  O   O1        1.0  0.6414222937623674  0.38369698508710565  0.46011885866797547  1.0000
  O   O2        1.0  0.3698342714680294  0.6153385592293149  0.5075926745629502  1.0000
  O   O3        1.0  0.48746000364398145  0.3691481035809545  0.5186376481524633  1.0000
  O   O4        1.0  0.5224578203929725  0.6331477678211  0.5028769785328677  1.0000
  O   O5        1.0  0.5914962050131862  0.4968311679971578  0.56732410478714  1.0000
  O   O6        1.0  0.4144834742671791  0.4655981427093607  0.43408495586525925  1.0000
  O   O7        1.0  0.42438548992398495  0.5163872551822307  0.6009994911594561  1.0000
  O   O8        1.0  0.5550802746869293  0.5210906621046262  0.4025811139230626  1.0000
  O   O9        1.0  0.3429146522882647  0.633012675209109  0.1780213942838742  1.0000
  O   O10       1.0  0.5943587659637827  0.38032293665106204  0.8359237597554949  1.0000
  O   O11       1.0  0.6001434997925229  0.4064884188077399  0.13380429669879856  1.0000
  O   O12       1.0  0.3792608620549059  0.6355075232726863  0.8713687269635669  1.0000
  O   O13       1.0  0.7282585433830845  0.5923661009219856  0.36872256023207933  1.0000
  O   O14       1.0  0.2968467689870806  0.3726596436692873  0.6239021863894719  1.0000
  O   O15       1.0  0.6456611600448454  0.5571923365116119  0.7665666571021459  1.0000
  O   O16       1.0  0.3865956303443028  0.39787648690063543  0.22964498698124908  1.0000
