data_image0
_chemical_formula_structural       Cu2H16C20N16
_chemical_formula_sum              "Cu2 H16 C20 N16"
_cell_length_a       6.4926959540259395
_cell_length_b       8.441131562387373
_cell_length_c       10.810877701497404
_cell_angle_alpha    87.76847924904376
_cell_angle_beta     88.57997324975562
_cell_angle_gamma    76.9605556842204

_space_group_name_H-M_alt    "P 1"
_space_group_IT_number       1

loop_
  _space_group_symop_operation_xyz
  'x, y, z'

loop_
  _atom_site_type_symbol
  _atom_site_label
  _atom_site_symmetry_multiplicity
  _atom_site_fract_x
  _atom_site_fract_y
  _atom_site_fract_z
  _atom_site_occupancy
  Cu  Cu1       1.0  0.2451848912436176  0.5016253449309573  0.5516786693225768  1.0000
  Cu  Cu2       1.0  0.754822655478023  0.49836936922152125  0.44832266259559356  1.0000
  H   H1        1.0  0.13946665859673146  0.7422492883606608  0.9738897105802664  1.0000
  H   H2        1.0  0.8605252775862909  0.25775167925974773  0.0261070801202408  1.0000
  H   H3        1.0  0.9772593811770207  0.029443953977299517  0.9003656810706602  1.0000
  H   H4        1.0  0.02273147045499976  0.9705497762265477  0.0996350809780751  1.0000
  H   H5        1.0  0.9107909763225167  0.08715162359089132  0.675133842819342  1.0000
  H   H6        1.0  0.08920477836617377  0.9128469005377797  0.3248694341486384  1.0000
  H   H7        1.0  0.009709946823768752  0.8547415696523474  0.5290004210367911  1.0000
  H   H8        1.0  0.9902890564551826  0.14526171852837422  0.4709952284267231  1.0000
  H   H9        1.0  0.2530769856254765  0.48934566967378873  0.018984441510042395  1.0000
  H   H10       1.0  0.7469185405262807  0.5106649580470588  0.9810147210151924  1.0000
  H   H11       1.0  0.4113489772136206  0.19768216184767345  0.048386648918374  1.0000
  H   H12       1.0  0.5886512183951426  0.802328415192548  0.9516152006235571  1.0000
  H   H13       1.0  0.5131198349817512  0.024488822099712596  0.8572106605847907  1.0000
  H   H14       1.0  0.4868625711883254  0.975513528898695  0.1427936657607702  1.0000
  H   H15       1.0  0.45621160584394005  0.16388838933371372  0.6488752679038043  1.0000
  H   H16       1.0  0.5438015004783239  0.8361086856557736  0.35112865048088787  1.0000
  C   C1        1.0  0.164580296352753  0.6521522659380992  0.7884206861617074  1.0000
  C   C2        1.0  0.8354056572853424  0.34785361853855795  0.21157327442757176  1.0000
  C   C3        1.0  0.10949293696148736  0.7729679873598417  0.8761065352807407  1.0000
  C   C4        1.0  0.8905012873273391  0.22702445977660096  0.12388958116004288  1.0000
  C   C5        1.0  0.019631257761062716  0.9313500437179061  0.8355349101792128  1.0000
  C   C6        1.0  0.9803663685787782  0.0686411343810249  0.16445933467907986  1.0000
  C   C7        1.0  0.9828620470944146  0.9651134422581293  0.7096840270397493  1.0000
  C   C8        1.0  0.0171388507402597  0.03488861716177641  0.29031347854477463  1.0000
  C   C9        1.0  0.038106438936807735  0.8386187586473002  0.6281728985916288  1.0000
  C   C10       1.0  0.9618899526996925  0.1613773230402984  0.3718286005733233  1.0000
  C   C11       1.0  0.26667651768872963  0.4811455045638696  0.8182618058898966  1.0000
  C   C12       1.0  0.7333245890867276  0.5188444419105951  0.1817379647870823  1.0000
  C   C13       1.0  0.298928234901652  0.4146544224265015  0.9384838085929131  1.0000
  C   C14       1.0  0.7010633371255112  0.5853538509469445  0.061518286513773994  1.0000
  C   C15       1.0  0.3880556511727206  0.24908286704594224  0.9545017036765202  1.0000
  C   C16       1.0  0.6119399500552091  0.7509216901722978  0.0454958173694919  1.0000
  C   C17       1.0  0.4441547476167501  0.15448037441119308  0.8508264060988963  1.0000
  C   C18       1.0  0.5558527338267895  0.845520414920536  0.14917749197364566  1.0000
  C   C19       1.0  0.41208183082248684  0.2297294901228355  0.7338759689294889  1.0000
  C   C20       1.0  0.5879212735521622  0.7702762225547488  0.2661306180797993  1.0000
  N   N1        1.0  0.12772299867278747  0.6866390083897828  0.666608315941481  1.0000
  N   N2        1.0  0.8722622933586023  0.3133523609770564  0.33338985964073226  1.0000
  N   N3        1.0  0.3258772883794093  0.3886274646245411  0.7183176425394961  1.0000
  N   N4        1.0  0.6741169000255383  0.6113710717210381  0.2816838140811058  1.0000
  N   N5        1.0  0.430445326002534  0.3241006499837625  0.4641484343580018  1.0000
  N   N6        1.0  0.5695726898660567  0.6758951156915174  0.5358498847406848  1.0000
  N   N7        1.0  0.4105041327588595  0.2801702657873407  0.3613139537561665  1.0000
  N   N8        1.0  0.5895049247664943  0.7198305160041089  0.6386926893389029  1.0000
  N   N9        1.0  0.402890052941011  0.23128599409631795  0.2622257868622668  1.0000
  N   N10       1.0  0.5971087265363481  0.7687124541555905  0.7377709593738472  1.0000
  N   N11       1.0  0.09625318337577947  0.6216057546198853  0.408726596347833  1.0000
  N   N12       1.0  0.9037651150828337  0.37839487904399494  0.5912761740291472  1.0000
  N   N13       1.0  0.14412235614825158  0.6205148809538414  0.30040839044005446  1.0000
  N   N14       1.0  0.8558885469424596  0.3794846486936337  0.6995954854002875  1.0000
  N   N15       1.0  0.17666648567142568  0.6286887466693686  0.19370541948102726  1.0000
  N   N16       1.0  0.8233418173292294  0.3713144214435716  0.806291905315291  1.0000
