data_image0
_chemical_formula_structural       Cu4H16C24N16O12
_chemical_formula_sum              "Cu4 H16 C24 N16 O12"
_cell_length_a       6.389935768256235
_cell_length_b       8.005092023923309
_cell_length_c       17.007296969998244
_cell_angle_alpha    89.9860639982437
_cell_angle_beta     90.00767345571963
_cell_angle_gamma    89.97929380076255

_space_group_name_H-M_alt    "P 1"
_space_group_IT_number       1

loop_
  _space_group_symop_operation_xyz
  'x, y, z'

loop_
  _atom_site_type_symbol
  _atom_site_label
  _atom_site_symmetry_multiplicity
  _atom_site_fract_x
  _atom_site_fract_y
  _atom_site_fract_z
  _atom_site_occupancy
  Cu  Cu1       1.0  0.9999999993930971  3.7476148478000024e-06  0.9999999998302801  1.0000
  Cu  Cu2       1.0  6.7819279366000025e-06  0.4999979665299961  0.499998622119776  1.0000
  Cu  Cu3       1.0  0.500001912234204  0.9999972927782536  1.6885510661000127e-06  1.0000
  Cu  Cu4       1.0  0.5000071285259227  0.4999990073967877  0.49999972246504154  1.0000
  H   H1        1.0  0.9141729836300102  0.1513636839318409  0.2334528148212272  1.0000
  H   H2        1.0  0.0857354379421835  0.6510826208317295  0.2665731164013891  1.0000
  H   H3        1.0  0.41407927117630555  0.8489520239300105  0.7665277728781136  1.0000
  H   H4        1.0  0.5858999404463391  0.3489024927738882  0.7335739354342365  1.0000
  H   H5        1.0  0.08581936484692683  0.8486305865721631  0.7665489814662438  1.0000
  H   H6        1.0  0.9142772538755752  0.34891539498659085  0.7334239765438328  1.0000
  H   H7        1.0  0.5859130737858608  0.1510597372801356  0.2334681427880483  1.0000
  H   H8        1.0  0.41411588149830453  0.6510955219133762  0.2664249215660632  1.0000
  H   H9        1.0  0.9277131444844502  0.2351937463428868  0.37844077460950143  1.0000
  H   H10       1.0  0.07231834556484532  0.7349932813201078  0.12154993011091621  1.0000
  H   H11       1.0  0.42758791374048855  0.76502200662582  0.6215501436992313  1.0000
  H   H12       1.0  0.57230110593013  0.26501682824064676  0.8785885595745242  1.0000
  H   H13       1.0  0.0722807695629086  0.7647980249101565  0.6215627857930457  1.0000
  H   H14       1.0  0.9276771308062666  0.26501098334559703  0.8784483379326957  1.0000
  H   H15       1.0  0.5724106912706832  0.2349897528732683  0.3784475361283129  1.0000
  H   H16       1.0  0.4276959351339542  0.7349899341775836  0.12141088437494571  1.0000
  C   C1        1.0  0.25006441185828276  0.14476930964818985  0.22292095901934064  1.0000
  C   C2        1.0  0.7499165278364192  0.6446965129137608  0.27704323624640653  1.0000
  C   C3        1.0  0.7499263699684633  0.8552337063151966  0.7770784848872553  1.0000
  C   C4        1.0  0.2500945996954371  0.35529775539603037  0.7229544447983116  1.0000
  C   C5        1.0  0.06230587656961011  0.16915832845930362  0.2637788807673545  1.0000
  C   C6        1.0  0.9376797067405251  0.6689652636380926  0.2362154504395805  1.0000
  C   C7        1.0  0.5622037843224775  0.83101045182741  0.7362219189487862  1.0000
  C   C8        1.0  0.4377734012242343  0.33102312048314525  0.7638620078699887  1.0000
  C   C9        1.0  0.9376927314152186  0.8308384391109055  0.7362235036024884  1.0000
  C   C10       1.0  0.06233142052324331  0.3310315027142251  0.7637834064578544  1.0000
  C   C11       1.0  0.43778856185841886  0.16899631146082325  0.2637775248412454  1.0000
  C   C12       1.0  0.5622408555570503  0.6689761436990691  0.23613684902059626  1.0000
  C   C13       1.0  0.0647205647757829  0.21567139462712243  0.3417786706293243  1.0000
  C   C14       1.0  0.9352875076966927  0.7154942305423333  0.15819145687688527  1.0000
  C   C15       1.0  0.5646373498386766  0.7844577670261612  0.6582058319661926  1.0000
  C   C16       1.0  0.4353142183464415  0.28450754628481423  0.8418805442666369  1.0000
  C   C17       1.0  0.9352811732676687  0.784325371995713  0.6582248898126721  1.0000
  C   C18       1.0  0.0647095342423825  0.28450628621852997  0.8418068113895814  1.0000
  C   C19       1.0  0.43535499674928974  0.21554774650606834  0.34179537582920017  1.0000
  C   C20       1.0  0.5646859537877731  0.7154929691613032  0.1581200760378465  1.0000
  C   C21       1.0  0.25003517012932264  0.09122589164461198  0.1389523658954772  1.0000
  C   C22       1.0  0.7499255424919301  0.5912430234850061  0.3610554804931851  1.0000
  C   C23       1.0  0.7499603071241838  0.9087758733253962  0.861050018141782  1.0000
  C   C24       1.0  0.2500855849741371  0.4087524936623623  0.638943376460823  1.0000
  N   N1        1.0  0.25006724750014103  0.2400157466542368  0.3802867466393991  1.0000
  N   N2        1.0  0.7500080394087194  0.7399225875524706  0.1196358999824909  1.0000
  N   N3        1.0  0.7499282304943052  0.7599810216796641  0.619715049641222  1.0000
  N   N4        1.0  0.24998900232805  0.260079178413335  0.8803623682274095  1.0000
  N   N5        1.0  0.25005258943380687  0.8413072235385497  0.9987240605640368  1.0000
  N   N6        1.0  0.7500793188998076  0.3412832609159295  0.5012795629743253  1.0000
  N   N7        1.0  0.7499381926001762  0.15869704052767014  0.0012789111835687002  1.0000
  N   N8        1.0  0.24992554872202533  0.6587122573914426  0.4987192937670955  1.0000
  N   N9        1.0  0.2500462852060465  0.7365227391956779  0.9465123939967698  1.0000
  N   N10       1.0  0.7501133127015295  0.2363974547194373  0.5534542739311875  1.0000
  N   N11       1.0  0.7499398034266492  0.2634715324683298  0.0534894020781138  1.0000
  N   N12       1.0  0.24989311798746885  0.7636068090183769  0.44654046658686763  1.0000
  N   N13       1.0  0.25003808693947605  0.6361893668539692  0.8976767237351739  1.0000
  N   N14       1.0  0.750105511821154  0.13592739795527822  0.6022625813075069  1.0000
  N   N15       1.0  0.7499480017055477  0.3638111480794918  0.10233389180079662  1.0000
  N   N16       1.0  0.24990092130285294  0.8640656212848298  0.3977374515660658  1.0000
  O   O1        1.0  0.0711004572949321  0.06989249624034949  0.10744430789547013  1.0000
  O   O2        1.0  0.9288593336733015  0.5699672810280418  0.3925901631328658  1.0000
  O   O3        1.0  0.5710604324909527  0.9300656463888898  0.8925529847698215  1.0000
  O   O4        1.0  0.4290036083944246  0.43000439379438393  0.6074279004229339  1.0000
  O   O5        1.0  0.9288965828258997  0.9301205120189449  0.8925557237540647  1.0000
  O   O6        1.0  0.0711533588171562  0.43002573833786056  0.6074057540727865  1.0000
  O   O7        1.0  0.4289319164613021  0.06992737417541409  0.10745116350594233  1.0000
  O   O8        1.0  0.5710075185329943  0.5699948707841429  0.3925715443442855  1.0000
  O   O9        1.0  0.25006870384987684  0.2839047421698026  0.454090139295225  1.0000
  O   O10       1.0  0.7500486971897403  0.783865183379305  0.04582265181679901  1.0000
  O   O11       1.0  0.7499314686864765  0.7160920262125217  0.5459087172301907  1.0000
  O   O12       1.0  0.24994051953943605  0.21613783324146135  0.9541756160707991  1.0000
