data_image0
_chemical_formula_structural       H24Pb2C28S4N4O8
_chemical_formula_sum              "H24 Pb2 C28 S4 N4 O8"
_cell_length_a       7.701806649043323
_cell_length_b       9.243368287268739
_cell_length_c       12.237232923746356
_cell_angle_alpha    110.31791507410372
_cell_angle_beta     106.15303511511785
_cell_angle_gamma    95.50818109722863

_space_group_name_H-M_alt    "P 1"
_space_group_IT_number       1

loop_
  _space_group_symop_operation_xyz
  'x, y, z'

loop_
  _atom_site_type_symbol
  _atom_site_label
  _atom_site_symmetry_multiplicity
  _atom_site_fract_x
  _atom_site_fract_y
  _atom_site_fract_z
  _atom_site_occupancy
  H   H1        1.0  0.9517308514847115  0.3728379198520528  0.04073284322713274  1.0000
  H   H2        1.0  0.4100547905201353  0.33231174189186413  0.9591266213778694  1.0000
  H   H3        1.0  0.048252757048665246  0.6271701915232268  0.9592600072698475  1.0000
  H   H4        1.0  0.5899382469715634  0.6676799015646182  0.04087421550171654  1.0000
  H   H5        1.0  0.12616343570005734  0.6533129772070791  0.1325100131816725  1.0000
  H   H6        1.0  0.49327102258420313  0.5208507042986595  0.8673069934164985  1.0000
  H   H7        1.0  0.8738796951155905  0.3466845119686326  0.8674749484212684  1.0000
  H   H8        1.0  0.5067658122413903  0.4791268228062934  0.1326970068640989  1.0000
  H   H9        1.0  0.1785773506361537  0.647947341012639  0.4925677812071926  1.0000
  H   H10       1.0  0.18630646827957523  0.1555317779025245  0.5072107355715474  1.0000
  H   H11       1.0  0.8214452569794377  0.3520654590140921  0.5074151261143598  1.0000
  H   H12       1.0  0.8137131910857819  0.8444527927431765  0.4927880100589733  1.0000
  H   H13       1.0  0.9976872522665231  0.37032046507089683  0.3841666357540062  1.0000
  H   H14       1.0  0.11300751832867212  0.9865280350443514  0.6156813108250034  1.0000
  H   H15       1.0  0.0022724921786903087  0.6297112393721208  0.6158306346356  1.0000
  H   H16       1.0  0.8869951557154111  0.013458886883533703  0.38431752999798624  1.0000
  H   H17       1.0  0.45201627708502196  0.030910591114078997  0.33557154783351006  1.0000
  H   H18       1.0  0.6154941249956352  0.6958711808321922  0.664112815876713  1.0000
  H   H19       1.0  0.5479676795062643  0.9691044663210846  0.6643929349781388  1.0000
  H   H20       1.0  0.3844602689718002  0.3041606436169458  0.3359113349636472  1.0000
  H   H21       1.0  0.38311429371859157  0.8358294346458661  0.22059868757200718  1.0000
  H   H22       1.0  0.6621838680472365  0.6157871533089506  0.7791640919660879  1.0000
  H   H23       1.0  0.6168800774359865  0.16417857087520102  0.7793698662714733  1.0000
  H   H24       1.0  0.337835738865465  0.3842352104895496  0.2208477463384284  1.0000
  Pb  Pb1       1.0  0.8032505946243375  0.05292253770724639  0.10626541938601264  1.0000
  Pb  Pb2       1.0  0.1966770017728123  0.947066775290331  0.8937478910526054  1.0000
  C   C1        1.0  0.002206174465378298  0.43985565178493863  0.1404591112591405  1.0000
  C   C2        1.0  0.3609492932695133  0.2996162186480831  0.8593783834189638  1.0000
  C   C3        1.0  0.9978108774865007  0.5601347738000725  0.8595308958991481  1.0000
  C   C4        1.0  0.6390457414955578  0.700367159550069  0.14061983481962412  1.0000
  C   C5        1.0  0.10174005323015217  0.59515401490183  0.1919233483377454  1.0000
  C   C6        1.0  0.4094638598376291  0.40332878042995196  0.8079329356759644  1.0000
  C   C7        1.0  0.8982913245462925  0.4048505543262094  0.8080638531203803  1.0000
  C   C8        1.0  0.5905495124281116  0.5966522481606875  0.19206542409380495  1.0000
  C   C9        1.0  0.16836213210028453  0.674252437377646  0.3210639514335795  1.0000
  C   C10       1.0  0.34731005056358555  0.3533318540752788  0.6787621824945873  1.0000
  C   C11       1.0  0.8316527135969949  0.3257509047315281  0.6789143215584944  1.0000
  C   C12       1.0  0.6526989174318486  0.6466586248141084  0.32124031799448727  1.0000
  C   C13       1.0  0.12792537734940618  0.592231362510752  0.3917979264789935  1.0000
  C   C14       1.0  0.23620425701776065  0.20064101817699506  0.6080391422778675  1.0000
  C   C15       1.0  0.8721092405745452  0.4077862119255967  0.6081964936368467  1.0000
  C   C16       1.0  0.7638107058542472  0.7993518255575298  0.39196420390035763  1.0000
  C   C17       1.0  0.027884976506285897  0.4376414126744592  0.3317755316229806  1.0000
  C   C18       1.0  0.19567311467427123  0.10618032135374018  0.6680493721794178  1.0000
  C   C19       1.0  0.9721040321799704  0.5623666867664382  0.6682141735119203  1.0000
  C   C20       1.0  0.8043281951998794  0.893806572813183  0.33194350276058776  1.0000
  C   C21       1.0  0.33701147667449755  0.9270212816348078  0.28421872368937773  1.0000
  C   C22       1.0  0.5522334330210014  0.6432624483394775  0.7156053480613735  1.0000
  C   C23       1.0  0.6629856800419703  0.07297615060210208  0.7157581893095397  1.0000
  C   C24       1.0  0.4477663505995295  0.35676707862862134  0.28442777103978767  1.0000
  C   C25       1.0  0.16995437545870823  0.9738924545804649  0.21368677886353285  1.0000
  C   C26       1.0  0.45546312429055297  0.7603438299919104  0.7861209642992223  1.0000
  C   C27       1.0  0.830023141252795  0.026107433661024998  0.786313490969242  1.0000
  C   C28       1.0  0.5445202071104093  0.23964673633030745  0.21390322888322547  1.0000
  S   S1        1.0  0.30188915636327346  0.8651663037480475  0.40232648782737357  1.0000
  S   S2        1.0  0.39932687663678473  0.46315762384052306  0.597529049535666  1.0000
  S   S3        1.0  0.6981712037087745  0.13481350562763336  0.5976585189124393  1.0000
  S   S4        1.0  0.6006903424907007  0.5368388128242287  0.40248624910237407  1.0000
  N   N1        1.0  0.9651651076762562  0.36082458339262047  0.2078171091246404  1.0000
  N   N2        1.0  0.256540213735164  0.1533266407272507  0.792045110970051  1.0000
  N   N3        1.0  0.03483049574906261  0.6391882688527701  0.7921798881046271  1.0000
  N   N4        1.0  0.7434405383544699  0.846659088375816  0.2079528574569665  1.0000
  O   O1        1.0  0.10616923431151547  0.9020053314335924  0.09658789128741313  1.0000
  O   O2        1.0  0.5080365100917277  0.8048287346641628  0.9031462260437592  1.0000
  O   O3        1.0  0.8937781521368535  0.09798749937301211  0.9034191692837653  1.0000
  O   O4        1.0  0.4919193248488014  0.1951382233987928  0.0968751916147923  1.0000
  O   O5        1.0  0.10497584745296958  0.08268820021092439  0.2762559118489847  1.0000
  O   O6        1.0  0.328497513729431  0.8071820611319395  0.723632269366945  1.0000
  O   O7        1.0  0.8950219570881542  0.9173117243304674  0.7237503641925045  1.0000
  O   O8        1.0  0.6715127468152248  0.19282979629583252  0.276403803509524  1.0000
