data_image0
_chemical_formula_structural       Zn4H52C68N16Cl4
_chemical_formula_sum              "Zn4 H52 C68 N16 Cl4"
_cell_length_a       14.824473533058173
_cell_length_b       14.982687395068185
_cell_length_c       16.811883389061187
_cell_angle_alpha    107.38344647771707
_cell_angle_beta     106.654451150115
_cell_angle_gamma    109.25081732785463

_space_group_name_H-M_alt    "P 1"
_space_group_IT_number       1

loop_
  _space_group_symop_operation_xyz
  'x, y, z'

loop_
  _atom_site_type_symbol
  _atom_site_label
  _atom_site_symmetry_multiplicity
  _atom_site_fract_x
  _atom_site_fract_y
  _atom_site_fract_z
  _atom_site_occupancy
  Zn  Zn1       1.0  0.3703050945286749  0.9900600209934042  0.8792034498206931  1.0000
  Zn  Zn2       1.0  0.6111037960494271  0.9668613669687004  0.10254793810655372  1.0000
  Zn  Zn3       1.0  0.35266368471720755  0.8435113411437032  0.989009669194232  1.0000
  Zn  Zn4       1.0  0.6221277553400669  0.12073971977453388  0.995295639709454  1.0000
  H   H1        1.0  0.12093993824870372  0.9529585888033054  0.7966455062990363  1.0000
  H   H2        1.0  0.6498074623770336  0.7907257845391626  0.17133600639556332  1.0000
  H   H3        1.0  0.3156085129034096  0.6282891614307218  0.822760201320186  1.0000
  H   H4        1.0  0.6793213237648885  0.0012983908528312151  0.8392586993268908  1.0000
  H   H5        1.0  0.6471910137059709  0.7934318214659514  0.9730175949612133  1.0000
  H   H6        1.0  0.3834061389853005  0.8492881563877078  0.7045675222943616  1.0000
  H   H7        1.0  0.3078886656836772  0.6314027044407736  0.03279657239271225  1.0000
  H   H8        1.0  0.3080120660164525  0.33227946981276085  0.07775741677416194  1.0000
  H   H9        1.0  0.3110639287450851  0.4974406546123475  0.08403901385420202  1.0000
  H   H10       1.0  0.7367403941200122  0.6901832474538524  0.2564698289875055  1.0000
  H   H11       1.0  0.7107781804956018  0.47868801807626926  0.13262375313235705  1.0000
  H   H12       1.0  0.7335106014612547  0.5200064623488743  0.2513100385222842  1.0000
  H   H13       1.0  0.2995330418196718  0.5054898561837506  0.6986107941553713  1.0000
  H   H14       1.0  0.16448857924793714  0.5875690633811814  0.37173754050809293  1.0000
  H   H15       1.0  0.021303405874398672  0.42849623981523177  0.2389520988233401  1.0000
  H   H16       1.0  0.035227071276651215  0.25200596099944766  0.39855890419914897  1.0000
  H   H17       1.0  0.605107493731829  0.21269088107256104  0.41766016721081206  1.0000
  H   H18       1.0  0.2916945388934593  0.9894255496115604  0.12411519788783217  1.0000
  H   H19       1.0  0.6968751863973494  0.27088261588453105  0.583064131334659  1.0000
  H   H20       1.0  0.2591100286012065  0.06995919157119353  0.42613631436514515  1.0000
  H   H21       1.0  0.6908346695568071  0.256018311209779  0.7221429439033358  1.0000
  H   H22       1.0  0.3493808527884283  0.10170656920082882  0.5891385028401572  1.0000
  H   H23       1.0  0.8957923052575154  0.7002058783571885  0.8686439288185  1.0000
  H   H24       1.0  0.7990840013066672  0.012619037059636365  0.7609281903871478  1.0000
  H   H25       1.0  0.8712754291054452  0.08493581824029665  0.8834134012753055  1.0000
  H   H26       1.0  0.9609114565330188  0.003869036317446676  0.7498382743218386  1.0000
  H   H27       1.0  0.6447896082363939  0.31346693076677207  0.16041173302453163  1.0000
  H   H28       1.0  0.032720667390272386  0.07769160377634449  0.872111176587275  1.0000
  H   H29       1.0  0.30819578378824275  0.16327371255775355  0.9870700329842564  1.0000
  H   H30       1.0  0.8592667531248493  0.32130821528215864  0.14958452920134854  1.0000
  H   H31       1.0  0.09463061105263677  0.7675899013766028  0.9506585659439964  1.0000
  H   H32       1.0  0.3465069236030516  0.03230540939331655  0.6922431460720517  1.0000
  H   H33       1.0  0.7273843228681968  0.33622762803793893  0.0165618196154611  1.0000
  H   H34       1.0  0.7831767433770905  0.24733765990367837  0.9941946109359563  1.0000
  H   H35       1.0  0.848346164859258  0.3753116655612557  0.005362501410651425  1.0000
  H   H36       1.0  0.7535350741184956  0.24083878854441573  0.840165293598922  1.0000
  H   H37       1.0  0.7113890937639125  0.3387724673156355  0.860861501313792  1.0000
  H   H38       1.0  0.3278803463124262  0.349060027536666  0.6634820148724218  1.0000
  H   H39       1.0  0.2310438133890502  0.35097101850896467  0.7057602069384148  1.0000
  H   H40       1.0  0.22309518680244622  0.22972977879945936  0.6388438926759363  1.0000
  H   H41       1.0  0.09134728249525649  0.2664127774078153  0.5421613035043009  1.0000
  H   H42       1.0  0.18542223940162467  0.2595978056578189  0.5000691019795411  1.0000
  H   H43       1.0  0.11508989975158115  0.9733782135955238  0.30103011914222594  1.0000
  H   H44       1.0  0.15026954159933592  0.10496581228126445  0.31625366328226795  1.0000
  H   H45       1.0  0.06886586160791114  0.9987844090831289  0.2050243869979412  1.0000
  H   H46       1.0  0.24555425335435646  0.08040860174863702  0.21333546354861713  1.0000
  H   H47       1.0  0.21858281947812938  0.9549537286819997  0.2078345212554638  1.0000
  H   H48       1.0  0.8062790489771033  0.2764295593151403  0.38856178551404946  1.0000
  H   H49       1.0  0.7272758551924381  0.2552904428131271  0.27652182770792433  1.0000
  H   H50       1.0  0.6904291033079345  0.2949020305274956  0.36727804686572085  1.0000
  H   H51       1.0  0.6601386678623983  0.11865630384869524  0.3749400513489647  1.0000
  H   H52       1.0  0.69841738847348  0.08527510970434797  0.28572215989561295  1.0000
  C   C1        1.0  0.1318082234541508  0.9103547604710229  0.837763034885434  1.0000
  C   C2        1.0  0.9121421244340056  0.24350322378380435  0.23636268425706664  1.0000
  C   C3        1.0  0.4521528230505253  0.07759230303387445  0.2476761503243452  1.0000
  C   C4        1.0  0.4747144939207075  0.2814027704896134  0.0934725774048033  1.0000
  C   C5        1.0  0.4267643956242609  0.08076277882166484  0.7458279841340172  1.0000
  C   C6        1.0  0.5660575468311535  0.7658761758278416  0.13536309643325958  1.0000
  C   C7        1.0  0.33656412131735186  0.6951836779853978  0.8066768940456656  1.0000
  C   C8        1.0  0.6648632768049013  0.9589243487324168  0.8801090014183331  1.0000
  C   C9        1.0  0.6470536065379237  0.8517116854642314  0.947355367062322  1.0000
  C   C10       1.0  0.3695387276592401  0.8073603334003253  0.7455871953409955  1.0000
  C   C11       1.0  0.5971326149730772  0.18988557333116782  0.8329194349379067  1.0000
  C   C12       1.0  0.8494627964603507  0.1405840221244006  0.22138044978756719  1.0000
  C   C13       1.0  0.39176880175704554  0.6847786269693684  0.0646432335087824  1.0000
  C   C14       1.0  0.5152027291143925  0.15291536024998473  0.7447473982115654  1.0000
  C   C15       1.0  0.47852431008757884  0.6729966651763561  0.11300279396747467  1.0000
  C   C16       1.0  0.33394682145588933  0.6993441919466079  0.7229633932847436  1.0000
  C   C17       1.0  0.6881713726611733  0.8765755743872958  0.8865164626616107  1.0000
  C   C18       1.0  0.5693167515517741  0.4756566550373406  0.1553888560272156  1.0000
  C   C19       1.0  0.4762610060518853  0.3838824127136817  0.12205448243938828  1.0000
  C   C20       1.0  0.3842114784188695  0.398636833421584  0.10092555164123236  1.0000
  C   C21       1.0  0.3859073648158429  0.4933054735202163  0.10386234338372459  1.0000
  C   C22       1.0  0.47940422603382155  0.5823496698659909  0.12741039031696036  1.0000
  C   C23       1.0  0.3758335820039561  0.0142890956507387  0.15502413365825163  1.0000
  C   C24       1.0  0.5708602858828443  0.5697593792388744  0.15717502453517795  1.0000
  C   C25       1.0  0.6894868056453446  0.6224496641882382  0.18861076305113764  1.0000
  C   C26       1.0  0.6873879998269955  0.5156928879425067  0.18482677713129178  1.0000
  C   C27       1.0  0.28646562276856  0.6079766658205513  0.633906412713614  1.0000
  C   C28       1.0  0.012554906400140554  0.32869470520961397  0.3107046915906296  1.0000
  C   C29       1.0  0.13603737214688053  0.5145225176096632  0.3784055427230302  1.0000
  C   C30       1.0  0.05505833410001062  0.4248065994887327  0.3039063585398267  1.0000
  C   C31       1.0  0.06398749683270934  0.32515735642262206  0.39222672707614953  1.0000
  C   C32       1.0  0.1481494612606583  0.4159427610147405  0.4702089518022633  1.0000
  C   C33       1.0  0.1807770342840486  0.5147477932895798  0.46535140187599217  1.0000
  C   C34       1.0  0.563142426828051  0.2616439960740067  0.11088633375933907  1.0000
  C   C35       1.0  0.2508958426018567  0.6087408341836921  0.5477979474695901  1.0000
  C   C36       1.0  0.2634152671523539  0.5068972226480143  0.6330288024564795  1.0000
  C   C37       1.0  0.19803438094269407  0.4131106953599186  0.5555792289710979  1.0000
  C   C38       1.0  0.4384296804452814  0.11483437822430184  0.33305971775461524  1.0000
  C   C39       1.0  0.5188116148048891  0.17474190450030844  0.6660932098865544  1.0000
  C   C40       1.0  0.6206345788428109  0.23389324676903575  0.584351699020182  1.0000
  C   C41       1.0  0.6168517460029719  0.22578518323067712  0.6628263199693479  1.0000
  C   C42       1.0  0.4260122365755451  0.13857483574312834  0.588476659419783  1.0000
  C   C43       1.0  0.4275544850320615  0.14180050011933087  0.5057393357617174  1.0000
  C   C44       1.0  0.5266792728663461  0.1879388334749451  0.5025795326610237  1.0000
  C   C45       1.0  0.5478883970128549  0.08104698139040774  0.24243732976837143  1.0000
  C   C46       1.0  0.5281581872101669  0.17629282858786152  0.416749161754666  1.0000
  C   C47       1.0  0.337317975731061  0.08247906870438024  0.33804659860796704  1.0000
  C   C48       1.0  0.33512321931073796  0.09695401789669232  0.42259533061371723  1.0000
  C   C49       1.0  0.920932143613797  0.911616390296153  0.8280600239902683  1.0000
  C   C50       1.0  0.9539105326809221  0.8398723841479097  0.8467271662260104  1.0000
  C   C51       1.0  0.8802896481333633  0.7634220744599958  0.8590624191521243  1.0000
  C   C52       1.0  0.7883673289128055  0.7670422584011548  0.8626167030269515  1.0000
  C   C53       1.0  0.7618870541689517  0.8484394034968828  0.8563589895985757  1.0000
  C   C54       1.0  0.8301313273762505  0.915333903365756  0.8332159682232715  1.0000
  C   C55       1.0  0.8555935533075001  0.017181277072033874  0.8228615832344277  1.0000
  C   C56       1.0  0.3911309434338078  0.18461058928500046  0.02312420324930996  1.0000
  C   C57       1.0  0.9578810492136396  0.012187607248904473  0.8161463045763283  1.0000
  C   C58       1.0  0.845228637351944  0.25394521083278926  0.1649061889701712  1.0000
  C   C59       1.0  0.11793392126757858  0.8146898817185574  0.9152729930604125  1.0000
  C   C60       1.0  0.05927320777917099  0.8503797159536576  0.8623970503323337  1.0000
  C   C61       1.0  0.7102307022574265  0.27143928001519413  0.8751824840366282  1.0000
  C   C62       1.0  0.769906482506741  0.30946629610192394  0.9786121633751109  1.0000
  C   C63       1.0  0.1756934558529366  0.3080043527955993  0.5577670261174319  1.0000
  C   C64       1.0  0.24332344746297732  0.3102344193506995  0.6466357582062942  1.0000
  C   C65       1.0  0.2345155709053586  0.034284565914440186  0.2530453182634389  1.0000
  C   C66       1.0  0.1371498383123821  0.027579093250750534  0.2702306462690771  1.0000
  C   C67       1.0  0.6596118709507975  0.12972811935788534  0.3130970420368087  1.0000
  C   C68       1.0  0.7246113048615258  0.24587244912836334  0.33820571454399573  1.0000
  N   N1        1.0  0.2252006307973248  0.9097841098952131  0.8727517611124187  1.0000
  N   N2        1.0  0.5338510848215208  0.826733009648322  0.10266530147040953  1.0000
  N   N3        1.0  0.36818370311866044  0.7915176869670617  0.8710909570099262  1.0000
  N   N4        1.0  0.6172757019848661  0.982234216548406  0.9347290096304378  1.0000
  N   N5        1.0  0.6063437803265898  0.9164914792572316  0.9760998905076335  1.0000
  N   N6        1.0  0.38828179553532755  0.8602940107751352  0.833454105318893  1.0000
  N   N7        1.0  0.5582874842790133  0.14186081125391337  0.8806391237638849  1.0000
  N   N8        1.0  0.4252113131162646  0.7766555705063708  0.05871864309654746  1.0000
  N   N9        1.0  0.7544509321068985  0.0956912073026501  0.14922959402824176  1.0000
  N   N10       1.0  0.42118862778846017  0.9826276461647865  0.10063696308320408  1.0000
  N   N11       1.0  0.5341169564507523  0.1620683376429071  0.05387672305300842  1.0000
  N   N12       1.0  0.5261975022675998  0.024548295330660653  0.15429399835652904  1.0000
  N   N13       1.0  0.42850302081172503  0.11498279939634432  0.9999381425495955  1.0000
  N   N14       1.0  0.7526247274339467  0.16667883956808532  0.11370138393212399  1.0000
  N   N15       1.0  0.21686382548711014  0.8506640183844995  0.9213867863907128  1.0000
  N   N16       1.0  0.45272681321024066  0.07461507126667753  0.8266462847033154  1.0000
  Cl  Cl1       1.0  0.7362380727407467  0.662601189806452  0.11088469958355067  1.0000
  Cl  Cl2       1.0  0.8768102613208554  0.06911830014410475  0.2790542773330528  1.0000
  Cl  Cl3       1.0  0.28341584738176817  0.7258859964074134  0.5369540844919953  1.0000
  Cl  Cl4       1.0  0.7073879813160462  0.6668734229422315  0.8795565322957657  1.0000
