data_image0
_chemical_formula_structural       Co6H24C36N36O24
_chemical_formula_sum              "Co6 H24 C36 N36 O24"
_cell_length_a       14.878010775468791
_cell_length_b       14.877926785958067
_cell_length_c       14.87796854307193
_cell_angle_alpha    109.47135328596497
_cell_angle_beta     109.47090193861709
_cell_angle_gamma    109.47126372796197

_space_group_name_H-M_alt    "P 1"
_space_group_IT_number       1

loop_
  _space_group_symop_operation_xyz
  'x, y, z'

loop_
  _atom_site_type_symbol
  _atom_site_label
  _atom_site_symmetry_multiplicity
  _atom_site_fract_x
  _atom_site_fract_y
  _atom_site_fract_z
  _atom_site_occupancy
  Co  Co1       1.0  0.7500001662731037  0.5000003644564758  0.2500002580915036  1.0000
  Co  Co2       1.0  0.24999953013840323  0.5000002678466585  0.7500006837575339  1.0000
  Co  Co3       1.0  0.5000007660704853  0.24999795868673408  0.7499976784527149  1.0000
  Co  Co4       1.0  0.4999987563893599  0.7500033228547169  0.2500027881294784  1.0000
  Co  Co5       1.0  0.7499974064227286  0.24999721048111917  0.5000009317551387  1.0000
  Co  Co6       1.0  0.2500020931268311  0.7500032249542841  0.4999983874170296  1.0000
  H   H1        1.0  0.8687840093111704  0.5409905683505086  0.11433505616067664  1.0000
  H   H2        1.0  0.5733462437516578  0.4590080274020067  0.32779380244485873  1.0000
  H   H3        1.0  0.42665468897799724  0.754447353519616  0.8856617709792258  1.0000
  H   H4        1.0  0.1312184971687315  0.24555277615419857  0.6722077302996537  1.0000
  H   H5        1.0  0.4590043896697865  0.3277924671253346  0.573346497046181  1.0000
  H   H6        1.0  0.5409960558030206  0.11434084493027526  0.8687875844939297  1.0000
  H   H7        1.0  0.24555506361063825  0.6722083315037822  0.13121038983058497  1.0000
  H   H8        1.0  0.7544436825932265  0.8856536575394074  0.42665147840668266  1.0000
  H   H9        1.0  0.6722093871457561  0.13121117634651816  0.24556295357540844  1.0000
  H   H10       1.0  0.8856498973250025  0.42664738087397314  0.7544392540297122  1.0000
  H   H11       1.0  0.3277911863086516  0.5733532334227718  0.4590027138670436  1.0000
  H   H12       1.0  0.114350243402285  0.8687899721238566  0.5409971590791045  1.0000
  H   H13       1.0  0.32779329488403863  0.45900883738249115  0.5733446209186752  1.0000
  H   H14       1.0  0.11433468878186663  0.5409910375996176  0.8687846137636582  1.0000
  H   H15       1.0  0.6722073379705833  0.24555069261825227  0.1312157847404832  1.0000
  H   H16       1.0  0.8856658041331398  0.7544507835613032  0.42665706112266816  1.0000
  H   H17       1.0  0.13121217989869646  0.6722086506399734  0.24555703430109324  1.0000
  H   H18       1.0  0.42664757713473017  0.8856530347314404  0.7544397387147583  1.0000
  H   H19       1.0  0.5733503564054558  0.32779111506564357  0.4590058679815739  1.0000
  H   H20       1.0  0.8687869158392444  0.114343631052712  0.5409963572978282  1.0000
  H   H21       1.0  0.5410003327117322  0.8687915167141682  0.11434844952164266  1.0000
  H   H22       1.0  0.4590002908267292  0.5733484891531191  0.3277916554151473  1.0000
  H   H23       1.0  0.7544394492998449  0.426646665683954  0.8856490497440885  1.0000
  H   H24       1.0  0.24556070074361014  0.13121021144733205  0.6722076640870966  1.0000
  C   C1        1.0  0.6161583867931242  0.3636987465724674  0.9999965793144341  1.0000
  C   C2        1.0  0.6362970765944168  0.6363018734943823  0.25246062374089456  1.0000
  C   C3        1.0  0.36370243646246775  0.6161631292954225  4.509886231562968e-06  1.0000
  C   C4        1.0  0.3838433125145071  0.3838393347766169  0.7475405644744909  1.0000
  C   C5        1.0  0.6362938590885747  0.25245373836706625  0.6362958650955831  1.0000
  C   C6        1.0  0.3637058416700042  2.4667935178794056e-06  0.6161609503090163  1.0000
  C   C7        1.0  0.3838381484898149  0.7475447456121458  0.38383785934900044  1.0000
  C   C8        1.0  0.6161611090764081  0.9999998793329395  0.3637060615402276  1.0000
  C   C9        1.0  0.7475422925321666  0.38383981882834217  0.3838422380756298  1.0000
  C   C10       1.0  0.9999973514102718  0.36369882170468765  0.6161579586087595  1.0000
  C   C11       1.0  0.2524567447980176  0.6362996079892086  0.6362967527733119  1.0000
  C   C12       1.0  2.0484912469392932e-06  0.6161604141056146  0.3637024425613261  1.0000
  C   C13       1.0  0.7836488861737295  0.4767079466902899  0.05729432803693873  1.0000
  C   C14       1.0  0.5805862362441729  0.5232900860621541  0.3069411769347423  1.0000
  C   C15       1.0  0.419414877669162  0.7263555761215413  0.9427037096961964  1.0000
  C   C16       1.0  0.2163531141294541  0.2736472611350393  0.6930593420928801  1.0000
  C   C17       1.0  0.5232900268941093  0.3069359409011837  0.580585008071594  1.0000
  C   C18       1.0  0.4767098529454187  0.05729379341394038  0.7836456424201541  1.0000
  C   C19       1.0  0.273647082214488  0.6930655244920133  0.21635184125855741  1.0000
  C   C20       1.0  0.7263514751776795  0.9427034038207154  0.41941690026870737  1.0000
  C   C21       1.0  0.6930605713654004  0.21634534443813183  0.2736476894371407  1.0000
  C   C22       1.0  0.9426983478660629  0.41941157285920366  0.7263532524753342  1.0000
  C   C23       1.0  0.3069397660509665  0.5805870152662038  0.5232855516632212  1.0000
  C   C24       1.0  0.05730150780615161  0.7836556627257707  0.47671424270076557  1.0000
  C   C25       1.0  0.30693854991991976  0.5232903035305368  0.5805863114085809  1.0000
  C   C26       1.0  0.05729536391318391  0.47670842287344317  0.7836490943557023  1.0000
  C   C27       1.0  0.6930617280962466  0.273646935942338  0.21635219147508158  1.0000
  C   C28       1.0  0.9427043135229736  0.7263536953101237  0.4194136143097324  1.0000
  C   C29       1.0  0.21635145353801735  0.6930645655304346  0.27364644043277747  1.0000
  C   C30       1.0  0.41941368033744897  0.9427028683606622  0.7263520675918045  1.0000
  C   C31       1.0  0.5805855453035136  0.30693843597225623  0.5232889830910777  1.0000
  C   C32       1.0  0.7836481051941603  0.05729560948063305  0.47671276991133027  1.0000
  C   C33       1.0  0.4767147078224453  0.7836537700983114  0.057300068574527054  1.0000
  C   C34       1.0  0.5232863056740555  0.5805852600068988  0.3069390969929555  1.0000
  C   C35       1.0  0.7263523708722771  0.41941142116868946  0.9426990349966359  1.0000
  C   C36       1.0  0.2736482123889842  0.21634560851376233  0.693058618192289  1.0000
  N   N1        1.0  0.7133815335503754  0.44084148306550464  0.09322457201827204  1.0000
  N   N2        1.0  0.652384220449349  0.5591601596203262  0.27254157925782607  1.0000
  N   N3        1.0  0.3476161035301215  0.6201575595663796  0.9067759252621667  1.0000
  N   N4        1.0  0.28662050224168906  0.37984502928586017  0.7274599224641489  1.0000
  N   N5        1.0  0.5591528724406983  0.2725362401614361  0.6523800506026729  1.0000
  N   N6        1.0  0.4408470766543004  0.09322717477252236  0.7133838409275909  1.0000
  N   N7        1.0  0.37984209896858095  0.7274631527871805  0.2866160966886112  1.0000
  N   N8        1.0  0.6201568873509372  0.906773416278483  0.34761960066492026  1.0000
  N   N9        1.0  0.7274582017105402  0.2866187149115192  0.37984295212460484  1.0000
  N   N10       1.0  0.9067755606715977  0.34761470075736883  0.6201578596681258  1.0000
  N   N11       1.0  0.27254108326074794  0.6523844394173182  0.5591598126754747  1.0000
  N   N12       1.0  0.0932240897716242  0.7133821289134162  0.4408389644155973  1.0000
  N   N13       1.0  0.2725375739499468  0.5591574165156601  0.6523823416739062  1.0000
  N   N14       1.0  0.0932246945149799  0.4408418196824471  0.7133810218625456  1.0000
  N   N15       1.0  0.7274620996989825  0.3798444801016814  0.2866192757103575  1.0000
  N   N16       1.0  0.906774978838534  0.620155856094385  0.34761694963120227  1.0000
  N   N17       1.0  0.28661615588895734  0.7274620582835638  0.37984041143145214  1.0000
  N   N18       1.0  0.34761771328850716  0.9067765893537968  0.6201572605978355  1.0000
  N   N19       1.0  0.6523820895978502  0.27253896235509245  0.5591588996473502  1.0000
  N   N20       1.0  0.7133827619132306  0.09322298248035567  0.44084463988981065  1.0000
  N   N21       1.0  0.4408427161440755  0.7133851036043808  0.09322714047853946  1.0000
  N   N22       1.0  0.5591571504700141  0.6523839214023398  0.2725421023110073  1.0000
  N   N23       1.0  0.620156393336472  0.3476129418439979  0.9067728815119122  1.0000
  N   N24       1.0  0.37984505763475346  0.2866179297317189  0.7274571861513407  1.0000
  N   N25       1.0  0.5188379350808815  0.30637112394505545  0.9999923528015129  1.0000
  N   N26       1.0  0.6936201128317308  0.6936293461908108  0.21246683083966644  1.0000
  N   N27       1.0  0.3063796328758457  0.5188467465193156  9.294132389924501e-06  1.0000
  N   N28       1.0  0.48116368261742787  0.48115437213934337  0.7875331274992943  1.0000
  N   N29       1.0  0.6936212753248937  0.21246260372146242  0.6936223251451777  1.0000
  N   N30       1.0  0.30637791721903074  1.4809078407491337e-06  0.5188413672426576  1.0000
  N   N31       1.0  0.48115608192213705  0.7875363318963764  0.48115712507517105  1.0000
  N   N32       1.0  0.5188432641600116  7.407620757036777e-07  0.30637926146663114  1.0000
  N   N33       1.0  0.7875346946323417  0.4811561322580644  0.4811635385919999  1.0000
  N   N34       1.0  0.9999920142532089  0.3063709878477639  0.518837372857881  1.0000
  N   N35       1.0  0.2124642778025106  0.6936285496266592  0.6936204665258501  1.0000
  N   N36       1.0  7.061865993270066e-06  0.5188442506068753  0.3063791614591053  1.0000
  O   O1        1.0  0.43326763810219393  0.2369914548605577  0.908816948000897  1.0000
  O   O2        1.0  0.6718233208137504  0.7630084232173004  0.19627420725009861  1.0000
  O   O3        1.0  0.3281749030678753  0.5244509352483888  0.0911841325009348  1.0000
  O   O4        1.0  0.5667336360600003  0.4755472637235556  0.8037236289828867  1.0000
  O   O5        1.0  0.7630047196576583  0.1962732024411835  0.6718310441971197  1.0000
  O   O6        1.0  0.2369943097410499  0.9088264750568912  0.43326827597485346  1.0000
  O   O7        1.0  0.4755557850897674  0.8037279443384335  0.5667309315931418  1.0000
  O   O8        1.0  0.5244435812070306  0.09117511521897372  0.3281711566776834  1.0000
  O   O9        1.0  0.8037285413139371  0.5667308681098006  0.4755688205077674  1.0000
  O   O10       1.0  0.091160400162174  0.3281579720694836  0.5244314159852407  1.0000
  O   O11       1.0  0.1962704295630076  0.6718390385462243  0.7630014584278441  1.0000
  O   O12       1.0  0.9088381156475193  0.43326983337090047  0.23699959818866737  1.0000
  O   O13       1.0  0.1962736027732177  0.7630094029519441  0.6718237824720956  1.0000
  O   O14       1.0  0.9088141278857762  0.23699053964796227  0.4332665038114382  1.0000
  O   O15       1.0  0.8037252034472929  0.4755488143220248  0.5667341533495004  1.0000
  O   O16       1.0  0.09118353254252998  0.5244495815176505  0.3281752308111975  1.0000
  O   O17       1.0  0.5667303492497524  0.803728249334128  0.47555885845690676  1.0000
  O   O18       1.0  0.3281697642137472  0.09117505552564603  0.5244399381861413  1.0000
  O   O19       1.0  0.6718295070353476  0.19626895622531743  0.7630036741374793  1.0000
  O   O20       1.0  0.4332688804174437  0.9088272884139457  0.23699597069903433  1.0000
  O   O21       1.0  0.23699827426840864  0.43327255745098364  0.9088385070736251  1.0000
  O   O22       1.0  0.7630005081988003  0.6718392210346026  0.19627315621814745  1.0000
  O   O23       1.0  0.5244348907835955  0.3281604565968266  0.09116317806041242  1.0000
  O   O24       1.0  0.4755683622895718  0.5667300258455725  0.8037274360522844  1.0000
