data_image0
_chemical_formula_structural       Ca4H40C32O32
_chemical_formula_sum              "Ca4 H40 C32 O32"
_cell_length_a       6.571031005277566
_cell_length_b       9.239734773068816
_cell_length_c       18.684321167011383
_cell_angle_alpha    89.99993562360044
_cell_angle_beta     90.00013345139682
_cell_angle_gamma    105.69159953450857

_space_group_name_H-M_alt    "P 1"
_space_group_IT_number       1

loop_
  _space_group_symop_operation_xyz
  'x, y, z'

loop_
  _atom_site_type_symbol
  _atom_site_label
  _atom_site_symmetry_multiplicity
  _atom_site_fract_x
  _atom_site_fract_y
  _atom_site_fract_z
  _atom_site_occupancy
  Ca  Ca1       1.0  0.5963319011400685  0.8101760715385427  0.4852582295160062  1.0000
  Ca  Ca2       1.0  0.9036690265308919  0.1898248139983495  0.9852590465427086  1.0000
  Ca  Ca3       1.0  0.403670308087534  0.18982493003954204  0.5147418650559601  1.0000
  Ca  Ca4       1.0  0.09633083074780303  0.8101739286544786  0.014741048028859898  1.0000
  H   H1        1.0  0.43566540308430746  0.353140658961145  0.8013136567567757  1.0000
  H   H2        1.0  0.06433513367487365  0.6468601056334792  0.3013129046452576  1.0000
  H   H3        1.0  0.5643352803261834  0.6468603319472239  0.19868750823071224  1.0000
  H   H4        1.0  0.9356636108450259  0.35313975047889573  0.6986861195093041  1.0000
  H   H5        1.0  0.2645225095632214  0.5243571803751765  0.49320921579354166  1.0000
  H   H6        1.0  0.235476475718997  0.4756444720468737  0.9932107912407346  1.0000
  H   H7        1.0  0.735474709131985  0.47564266506897473  0.506788202736054  1.0000
  H   H8        1.0  0.7645237946240753  0.5243553947340162  0.006789303330691601  1.0000
  H   H9        1.0  0.18417291041107833  0.596479752500038  0.4255829403947047  1.0000
  H   H10       1.0  0.3158263914585718  0.40351973808976993  0.9255846281164538  1.0000
  H   H11       1.0  0.8158273599244196  0.4035201142823511  0.5744144781362266  1.0000
  H   H12       1.0  0.6841734658186026  0.5964790045633492  0.0744149312470199  1.0000
  H   H13       1.0  0.8343470650608181  0.9690369121071  0.7387585348325275  1.0000
  H   H14       1.0  0.6656528792454209  0.030965373687060104  0.2387582239644317  1.0000
  H   H15       1.0  0.16564751506304276  0.030964036125993712  0.2612404893198743  1.0000
  H   H16       1.0  0.33434891692083113  0.9690345037623518  0.7612429410238661  1.0000
  H   H17       1.0  0.63862496274718  0.6658641364631566  0.9164230038338843  1.0000
  H   H18       1.0  0.8613733494575937  0.33413905310109027  0.4164232283028754  1.0000
  H   H19       1.0  0.36137266901999243  0.3341368331075786  0.083577090736064  1.0000
  H   H20       1.0  0.1386327375405756  0.6658642180710856  0.5835774014782515  1.0000
  H   H21       1.0  0.5383159169363265  0.49988763593509583  0.6996621213858064  1.0000
  H   H22       1.0  0.961687557219548  0.5001124774060202  0.1996618046664693  1.0000
  H   H23       1.0  0.46169156944610285  0.5001111600627155  0.30033904360531954  1.0000
  H   H24       1.0  0.03830508402281654  0.499887336029282  0.8003382899015961  1.0000
  H   H25       1.0  0.565239226118095  0.5010190231530133  0.4125652696718163  1.0000
  H   H26       1.0  0.9347604636165343  0.4989796955583545  0.9125659377296885  1.0000
  H   H27       1.0  0.4347610442219434  0.4989808436284877  0.5874337544834135  1.0000
  H   H28       1.0  0.06523939366215366  0.5010190470944665  0.0874341568418799  1.0000
  H   H29       1.0  0.7992017068812558  0.6145053786774143  0.4024595414857474  1.0000
  H   H30       1.0  0.7007963997821562  0.3854933406856347  0.9024595320823892  1.0000
  H   H31       1.0  0.20079897652468764  0.385495612231857  0.5975400178774422  1.0000
  H   H32       1.0  0.2992030444321472  0.6145042778391172  0.09754056248932132  1.0000
  H   H33       1.0  0.07818637062130314  0.8511267619215133  0.4913684594291183  1.0000
  H   H34       1.0  0.4218128908564295  0.1488715308481545  0.9913687806817676  1.0000
  H   H35       1.0  0.9218150124760169  0.14887199140072485  0.5086310999350161  1.0000
  H   H36       1.0  0.5781858536665041  0.8511283252636235  0.008631313888990601  1.0000
  H   H37       1.0  0.046170917420127695  0.9409059737967598  0.4247392930635243  1.0000
  H   H38       1.0  0.453828379665083  0.05909351773912871  0.9247391586893627  1.0000
  H   H39       1.0  0.9538293529229448  0.05909389298413711  0.575260801507902  1.0000
  H   H40       1.0  0.5461714776136121  0.9409052249136923  0.0752609358821985  1.0000
  C   C1        1.0  0.6874328026106654  0.7378011827781351  0.7112616845713902  1.0000
  C   C2        1.0  0.8125661597996012  0.26219888556121157  0.21126244212444334  1.0000
  C   C3        1.0  0.3125651157834994  0.26219642507749097  0.28873840999964534  1.0000
  C   C4        1.0  0.18743105890622055  0.7378009598808506  0.7887387228618439  1.0000
  C   C5        1.0  0.7630513888282949  0.856412154247522  0.7590563025617811  1.0000
  C   C6        1.0  0.7369493701581007  0.14358787122178282  0.2590565257010908  1.0000
  C   C7        1.0  0.23694471711721826  0.14358880465439233  0.2409432567993974  1.0000
  C   C8        1.0  0.26305353876390575  0.8564108927686721  0.740944639288017  1.0000
  C   C9        1.0  0.7467854539046853  0.8302194580751561  0.8327410777757012  1.0000
  C   C10       1.0  0.7532150228161283  0.1697827224396136  0.3327413003560338  1.0000
  C   C11       1.0  0.25320912621917563  0.16978149015793784  0.16725794637670083  1.0000
  C   C12       1.0  0.24678953836190232  0.8302205380634434  0.6672593294244251  1.0000
  C   C13       1.0  0.6518817730565516  0.6856402306910712  0.8588581618330124  1.0000
  C   C14       1.0  0.8481188516165757  0.3143619205676842  0.3588578506533437  1.0000
  C   C15       1.0  0.34811697146486137  0.3143596254210053  0.1411413975296441  1.0000
  C   C16       1.0  0.15188377067541145  0.6856402051384765  0.6411422439184806  1.0000
  C   C17       1.0  0.5774442514003582  0.5683258224063581  0.8106599970889904  1.0000
  C   C18       1.0  0.9225556871632604  0.4316752587161333  0.3106591496026851  1.0000
  C   C19       1.0  0.4225556058798503  0.43167292024616444  0.18934063269067283  1.0000
  C   C20       1.0  0.07744347041951033  0.568325721524616  0.6893393393436329  1.0000
  C   C21       1.0  0.5956816868909414  0.5924535254093685  0.7371877009518073  1.0000
  C   C22       1.0  0.9043208870938956  0.4075476593543074  0.2371879215176591  1.0000
  C   C23       1.0  0.4043212220280381  0.4075452385816903  0.26281239362110403  1.0000
  C   C24       1.0  0.09567674467328399  0.5924533102164274  0.7628121730522892  1.0000
  C   C25       1.0  0.6957861249163884  0.7664120088896953  0.6323629078725475  1.0000
  C   C26       1.0  0.8042139163508252  0.23358815850104972  0.1323636743666583  1.0000
  C   C27       1.0  0.3042141454282046  0.23358785789090333  0.36763772190698063  1.0000
  C   C28       1.0  0.19578358898198195  0.7664083252259106  0.8676374906207087  1.0000
  C   C29       1.0  0.8300649657498481  0.9559119261061895  0.8847397567466971  1.0000
  C   C30       1.0  0.6699353924786563  0.044089072031965805  0.3847394421760058  1.0000
  C   C31       1.0  0.16993266601581067  0.04408904346484381  0.11525980261514952  1.0000
  C   C32       1.0  0.330071394207856  0.9559119615537741  0.6152601171898767  1.0000
  O   O1        1.0  0.6205897891179217  0.6556100581698628  0.5898491861461039  1.0000
  O   O2        1.0  0.8794077857996996  0.344392383761992  0.0898510263452721  1.0000
  O   O3        1.0  0.37941048122515036  0.34438980861103374  0.4101509084253294  1.0000
  O   O4        1.0  0.12059054566339712  0.6556063482208075  0.9101506738499198  1.0000
  O   O5        1.0  0.7684609963736831  0.8988643255452333  0.6086012682819586  1.0000
  O   O6        1.0  0.7315393233447336  0.1011369925919325  0.10860097565952032  1.0000
  O   O7        1.0  0.23154038672818433  0.10113442777610972  0.3913998967064813  1.0000
  O   O8        1.0  0.2684574822951902  0.898861728722352  0.8913996541188  1.0000
  O   O9        1.0  0.8947229156124266  0.09001684034867453  0.8630341328693661  1.0000
  O   O10       1.0  0.605278845474885  0.9099841927729172  0.36303433720004114  1.0000
  O   O11       1.0  0.10526556123389967  0.9099840652073471  0.13696596169655353  1.0000
  O   O12       1.0  0.3947379222658042  0.0900191530827854  0.6369668277938915  1.0000
  O   O13       1.0  0.8293439982633259  0.9212874466330024  0.9521106913094856  1.0000
  O   O14       1.0  0.6706556288686443  0.07871458949500722  0.4521108928187799  1.0000
  O   O15       1.0  0.17065404656672453  0.0787146470661071  0.0478888680522189  1.0000
  O   O16       1.0  0.32934963200076345  0.9212864334210169  0.5478897369626239  1.0000
  O   O17       1.0  0.4846028973613982  0.42666278263629215  0.8393428688497339  1.0000
  O   O18       1.0  0.015395216259676795  0.573339042147609  0.3393426506098294  1.0000
  O   O19       1.0  0.5153988988033333  0.573337094813418  0.16065776093046943  1.0000
  O   O20       1.0  0.9846024155059819  0.4266619274234246  0.6606569087520171  1.0000
  O   O21       1.0  0.25614084057214376  0.6204527439427708  0.47167080515652066  1.0000
  O   O22       1.0  0.24385455799004063  0.3795477871402327  0.9716724428759278  1.0000
  O   O23       1.0  0.7438548523044444  0.37954709083196303  0.5283271485805017  1.0000
  O   O24       1.0  0.7561452992886472  0.6204509555125881  0.0283276516956406  1.0000
  O   O25       1.0  0.6721058212835728  0.5909620087516815  0.43229894907631217  1.0000
  O   O26       1.0  0.8278924544209827  0.4090366771852488  0.9322990387020412  1.0000
  O   O27       1.0  0.327894449057986  0.40903785802951376  0.5677006102870196  1.0000
  O   O28       1.0  0.17210587703756638  0.5909620547984532  0.0677010558688522  1.0000
  O   O29       1.0  0.9736440225663542  0.852939086925119  0.4538325703460658  1.0000
  O   O30       1.0  0.5263547881906661  0.14706069901802724  0.9538325426870101  1.0000
  O   O31       1.0  0.02635624777671813  0.14706077985577798  0.5461675242253676  1.0000
  O   O32       1.0  0.4736454821524063  0.8529391677628697  0.04616755188441601  1.0000
