data_image0
_chemical_formula_structural       Dy4H28C36S6O32
_chemical_formula_sum              "Dy4 H28 C36 S6 O32"
_cell_length_a       5.753533707056612
_cell_length_b       12.881128905014899
_cell_length_c       15.992767380339046
_cell_angle_alpha    80.58504792574686
_cell_angle_beta     79.70138836161115
_cell_angle_gamma    77.103487029075

_space_group_name_H-M_alt    "P 1"
_space_group_IT_number       1

loop_
  _space_group_symop_operation_xyz
  'x, y, z'

loop_
  _atom_site_type_symbol
  _atom_site_label
  _atom_site_symmetry_multiplicity
  _atom_site_fract_x
  _atom_site_fract_y
  _atom_site_fract_z
  _atom_site_occupancy
  Dy  Dy1       1.0  0.9743936935317161  0.8473537124005618  0.8878048491477912  1.0000
  Dy  Dy2       1.0  0.7088676292738396  0.6526495671226158  0.6122596579990188  1.0000
  Dy  Dy3       1.0  0.025603110597984417  0.1526468676970509  0.11219482002609031  1.0000
  Dy  Dy4       1.0  0.29113511688066757  0.3473502098494095  0.3877398137002076  1.0000
  H   H1        1.0  0.055223441965324686  0.67912781457931  0.08759755796545221  1.0000
  H   H2        1.0  0.82089739407548  0.8213203965187148  0.41199277397544887  1.0000
  H   H3        1.0  0.9447694326284614  0.3208727655183026  0.9124025063012058  1.0000
  H   H4        1.0  0.17910343503201864  0.1786785773277302  0.5880072904346891  1.0000
  H   H5        1.0  0.1314417420226518  0.4924733970534448  0.18867671893051607  1.0000
  H   H6        1.0  0.8122426630483516  0.0079613839375838  0.3110169555340292  1.0000
  H   H7        1.0  0.8685561312638015  0.5075279861697553  0.811324972644272  1.0000
  H   H8        1.0  0.18775651380877198  0.9920375899088543  0.6889829939049222  1.0000
  H   H9        1.0  0.24260486537212977  0.1523794268767915  0.7950083032083697  1.0000
  H   H10       1.0  0.18991933350747559  0.3478762571084744  0.7049592887484339  1.0000
  H   H11       1.0  0.7574033251852446  0.8476211532208211  0.20498881564566324  1.0000
  H   H12       1.0  0.8100840911825458  0.652121110486789  0.295039065850105  1.0000
  H   H13       1.0  0.43941369866377067  0.9108978119189289  0.8167699210066958  1.0000
  H   H14       1.0  0.16672785944130902  0.5890572800690634  0.683395371277314  1.0000
  H   H15       1.0  0.5605922984911371  0.08910437442985142  0.18323027270043474  1.0000
  H   H16       1.0  0.8332727048695505  0.4109408906517871  0.3166054008149217  1.0000
  H   H17       1.0  0.42070769666983654  0.8158406706429774  0.7661744838234057  1.0000
  H   H18       1.0  0.0025706608995079336  0.6839939525070592  0.7340518888228971  1.0000
  H   H19       1.0  0.579292718698781  0.184161515705803  0.2338259900053146  1.0000
  H   H20       1.0  0.997430835184687  0.3160058244649662  0.2659488329466484  1.0000
  H   H21       1.0  0.9444211543477365  0.9164988097582025  0.06101888657903491  1.0000
  H   H22       1.0  0.9212285647483751  0.5835791604445006  0.4392159770761523  1.0000
  H   H23       1.0  0.05558123156824699  0.0835017703394101  0.9389805024732569  1.0000
  H   H24       1.0  0.07877308027805431  0.41641660089958793  0.5607850429569012  1.0000
  H   H25       1.0  0.673220083691163  0.9539003683149759  0.0498816381689977  1.0000
  H   H26       1.0  0.6768704201410995  0.5457704172154436  0.45002699481872105  1.0000
  H   H27       1.0  0.326780024939289  0.0461002117826368  0.9501182609472637  1.0000
  H   H28       1.0  0.3231349850664953  0.4542229347518898  0.5499751281326868  1.0000
  C   C1        1.0  0.4685843939386275  0.7470601923015465  0.9820425119069044  1.0000
  C   C2        1.0  0.19656162843962469  0.7530049278917801  0.5178672400001647  1.0000
  C   C3        1.0  0.5314120615113609  0.252937978419304  0.01795530015994729  1.0000
  C   C4        1.0  0.8034364677019281  0.2469964553314199  0.4821324614979616  1.0000
  C   C5        1.0  0.44193768096155134  0.6507309000968036  0.04379695236949029  1.0000
  C   C6        1.0  0.13567632611094632  0.8493045044498332  0.45606533617772993  1.0000
  C   C7        1.0  0.558059536907024  0.3492664674984667  0.9562023073858015  1.0000
  C   C8        1.0  0.8643242801414528  0.1506944693966048  0.5439367183090696  1.0000
  C   C9        1.0  0.23035922837669182  0.6266291012501456  0.09206087792026811  1.0000
  C   C10       1.0  0.9482170213931197  0.8736938222563992  0.40767378995381165  1.0000
  C   C11       1.0  0.7696391860618444  0.3733706757218798  0.907937623830236  1.0000
  C   C12       1.0  0.051777854130754836  0.1263091672179684  0.5923282463910697  1.0000
  C   C13       1.0  0.26970159553858525  0.5282173043999663  0.14562999053507042  1.0000
  C   C14       1.0  0.9431384101876715  0.9720903597204398  0.3541581756485924  1.0000
  C   C15       1.0  0.7302917347356155  0.47178086632088423  0.8543709467075687  1.0000
  C   C16       1.0  0.05686133820425717  0.0279110235027602  0.645841640820727  1.0000
  C   C17       1.0  0.5112758809274212  0.4780564896527012  0.1367412122311578  1.0000
  C   C18       1.0  0.12606538208984125  0.0220056410662579  0.3631656155846699  1.0000
  C   C19       1.0  0.48871663342784927  0.5219448935704989  0.8632587693885654  1.0000
  C   C20       1.0  0.8739315059229326  0.9779965452825297  0.6368366183783396  1.0000
  C   C21       1.0  0.6212129634632079  0.3716953557487345  0.17775567090625094  1.0000
  C   C22       1.0  0.1710690734629451  0.1282936905418595  0.32215119009981663  1.0000
  C   C23       1.0  0.37878228385800833  0.6283036180977035  0.8222446736254838  1.0000
  C   C24       1.0  0.8289353249419378  0.8717060864301587  0.6778483965705959  1.0000
  C   C25       1.0  0.7208425292928805  0.0587253460002088  0.839757363847916  1.0000
  C   C26       1.0  0.6195620341471295  0.4412869909323902  0.6602857752370072  1.0000
  C   C27       1.0  0.2791558735868448  0.941277643474159  0.1602429123626763  1.0000
  C   C28       1.0  0.38044101874555036  0.5587143922908099  0.3397142711746924  1.0000
  C   C29       1.0  0.6177260291948131  0.16090781747834632  0.7925336575393871  1.0000
  C   C30       1.0  0.5712351326000015  0.3391342351009499  0.707434358974041  1.0000
  C   C31       1.0  0.38227738393639044  0.8390927626192665  0.20746647151924696  1.0000
  C   C32       1.0  0.4287617134712391  0.660867148122243  0.29256659259440454  1.0000
  C   C33       1.0  0.38368357627782484  0.1988546983082529  0.7740735014903566  1.0000
  C   C34       1.0  0.35654739406325564  0.3013150512392713  0.7258956114795794  1.0000
  C   C35       1.0  0.6163224324359006  0.801144275538185  0.22592491775667872  1.0000
  C   C36       1.0  0.6434551192659371  0.6986871351095092  0.2741009971670039  1.0000
  S   S1        1.0  0.6877733280716071  0.5509489709962949  0.06221824520215339  1.0000
  S   S2        1.0  0.3007327967188971  0.9488575427582262  0.43778897158693303  1.0000
  S   S3        1.0  0.3122231693199211  0.449050002850143  0.9377808492592621  1.0000
  S   S4        1.0  0.6992634243171808  0.051143840464973805  0.5622126050166685  1.0000
  S   S5        1.0  0.8003981544379003  0.24995516999156567  0.749983179911787  1.0000
  S   S6        1.0  0.1996045382162491  0.7500470163572146  0.2500167838529705  1.0000
  O   O1        1.0  0.32929139957915493  0.8807621305419531  0.7911937847133645  1.0000
  O   O2        1.0  0.0009858524046253891  0.6191198770176811  0.7089368396115816  1.0000
  O   O3        1.0  0.670713612302073  0.11924085893241451  0.2088069513819875  1.0000
  O   O4        1.0  0.9990159084762027  0.3808807030799315  0.291063174475866  1.0000
  O   O5        1.0  0.6795722608087545  0.7538947910414677  0.9433628102716867  1.0000
  O   O6        1.0  0.37602496468790747  0.7459872165181665  0.55656182210317  1.0000
  O   O7        1.0  0.3204262071301328  0.24610257655379544  0.056635199413285896  1.0000
  O   O8        1.0  0.6239790430957299  0.2540093479515093  0.4434346250656489  1.0000
  O   O9        1.0  0.8266124964288296  0.9113692466381238  0.024919606221374124  1.0000
  O   O10       1.0  0.7623246876701945  0.5883810483253455  0.47518767344507756  1.0000
  O   O11       1.0  0.17338890421347486  0.0886321365850762  0.975080325219132  1.0000
  O   O12       1.0  0.237677359536292  0.4116147130187429  0.5248147116294818  1.0000
  O   O13       1.0  0.27797443665136934  0.817670993854293  0.9708945549619302  1.0000
  O   O14       1.0  0.06494981027380937  0.6825724202192021  0.5290713579061902  1.0000
  O   O15       1.0  0.722020991583406  0.1823271768665577  0.029102517098571885  1.0000
  O   O16       1.0  0.9350454370474068  0.3174265536272358  0.47092898662554467  1.0000
  O   O17       1.0  0.8154928443009628  0.322812313809365  0.13746564432265274  1.0000
  O   O18       1.0  0.276434849235457  0.177140591829847  0.36250799161729225  1.0000
  O   O19       1.0  0.1845044574506859  0.6771866600370728  0.8625361802217668  1.0000
  O   O20       1.0  0.7235753957523412  0.8228599882677656  0.6374906072494326  1.0000
  O   O21       1.0  0.5189613070923186  0.3329373180766027  0.2504898574458423  1.0000
  O   O22       1.0  0.10268696975781916  0.167053334465173  0.24939105865768602  1.0000
  O   O23       1.0  0.48103688449111776  0.6670624588954226  0.7495106343813236  1.0000
  O   O24       1.0  0.8973193991944232  0.8329448362556846  0.7506074432362908  1.0000
  O   O25       1.0  0.5935830913498492  0.9865972171868551  0.868399476714778  1.0000
  O   O26       1.0  0.44874936404846044  0.5135417905604172  0.6316820977957676  1.0000
  O   O27       1.0  0.40642166729355717  0.013401756659583  0.1316001926025763  1.0000
  O   O28       1.0  0.5512526616290008  0.4864595926627829  0.3683172086095823  1.0000
  O   O29       1.0  0.9431251243472402  0.0400582979964526  0.8503785871261444  1.0000
  O   O30       1.0  0.8337971167863074  0.459829554470268  0.6496397228334915  1.0000
  O   O31       1.0  0.05687358527065827  0.9599462977290898  0.14962226379692112  1.0000
  O   O32       1.0  0.1662075883567483  0.540171828752932  0.3503604385493944  1.0000
