data_image0
_chemical_formula_structural       Zn2H6C36S2N2Cl16O10
_chemical_formula_sum              "Zn2 H6 C36 S2 N2 Cl16 O10"
_cell_length_a       12.596419112832459
_cell_length_b       16.86905381948598
_cell_length_c       17.66089111847221
_cell_angle_alpha    95.02805005630665
_cell_angle_beta     90.16407505183868
_cell_angle_gamma    92.07030463898998

_space_group_name_H-M_alt    "P 1"
_space_group_IT_number       1

loop_
  _space_group_symop_operation_xyz
  'x, y, z'

loop_
  _atom_site_type_symbol
  _atom_site_label
  _atom_site_symmetry_multiplicity
  _atom_site_fract_x
  _atom_site_fract_y
  _atom_site_fract_z
  _atom_site_occupancy
  Zn  Zn1       1.0  0.49850460267628444  0.41041125105910226  0.4905772410022918  1.0000
  Zn  Zn2       1.0  0.5019657183488845  0.5891510477614617  0.506690465223592  1.0000
  H   H1        1.0  0.5125392012911617  0.0040927219225678985  0.5918681784109339  1.0000
  H   H2        1.0  0.4803778246167241  0.9953887253275723  0.41830243693885893  1.0000
  H   H3        1.0  0.4093994752393968  0.5589067892484465  0.01076544962676  1.0000
  H   H4        1.0  0.5954569544004897  0.4470951873925912  0.9848187018236416  1.0000
  H   H5        1.0  0.06789532510243387  0.3078704154183853  0.5113455955107254  1.0000
  H   H6        1.0  0.9327384312155473  0.6638090465779385  0.48682505576346097  1.0000
  C   C1        1.0  0.4909956093390093  0.5124141704196392  0.3544202851993318  1.0000
  C   C2        1.0  0.2982174842131968  0.48011107610405196  0.5068109117646813  1.0000
  C   C3        1.0  0.5090313779674104  0.5162660104105683  0.6452425172241616  1.0000
  C   C4        1.0  0.7023329927764124  0.49115388118412523  0.48953675384395  1.0000
  C   C5        1.0  0.42433508781775936  0.7587580128232575  0.4783504596393938  1.0000
  C   C6        1.0  0.4198143105801648  0.842402975160354  0.48216844292947053  1.0000
  C   C7        1.0  0.49616860759721254  0.8897947367426228  0.525669194851794  1.0000
  C   C8        1.0  0.572597154723347  0.8493789255135837  0.5644871823152896  1.0000
  C   C9        1.0  0.5728885102861341  0.7656980288311246  0.5568180270013128  1.0000
  C   C10       1.0  0.4996778673412052  0.9772355824684521  0.533995501149981  1.0000
  C   C11       1.0  0.4933627401018796  0.0232760645342935  0.47582558903909683  1.0000
  C   C12       1.0  0.4324016419052512  0.150231213439362  0.4336990942034119  1.0000
  C   C13       1.0  0.49818845707169856  0.11053725843742508  0.4818897572056854  1.0000
  C   C14       1.0  0.5669243487576523  0.1589556194515467  0.5311088960326343  1.0000
  C   C15       1.0  0.5636240728035559  0.2424739060886978  0.5323830505175025  1.0000
  C   C16       1.0  0.4367054030382961  0.23381217146717861  0.43643002456640545  1.0000
  C   C17       1.0  0.4876711562932527  0.5121731955706963  0.26891735839760855  1.0000
  C   C18       1.0  0.5819400656677659  0.5107815160688107  0.22738196115882656  1.0000
  C   C19       1.0  0.5801558045254254  0.5121314549331399  0.14793159041668247  1.0000
  C   C20       1.0  0.48270173654297105  0.5145619545197987  0.10812956839923517  1.0000
  C   C21       1.0  0.3881755131220572  0.5153170552225035  0.1515992009139211  1.0000
  C   C22       1.0  0.39061695146970277  0.5143096282286306  0.23084677295498318  1.0000
  C   C23       1.0  0.4731230869037971  0.5211912446985425  0.026171547294261202  1.0000
  C   C24       1.0  0.5315090258243913  0.48502568097133275  0.9703870863412831  1.0000
  C   C25       1.0  0.614745409622863  0.49994615733248793  0.8453991331277206  1.0000
  C   C26       1.0  0.5207870136800281  0.4945690755097232  0.8888990005408458  1.0000
  C   C27       1.0  0.4225466352384543  0.49631405617662944  0.8500001158143886  1.0000
  C   C28       1.0  0.4194738777965482  0.5048929526196703  0.7715787514636501  1.0000
  C   C29       1.0  0.513311696084422  0.5110805043761887  0.7301311052221917  1.0000
  C   C30       1.0  0.6110711343171644  0.5079550757232241  0.7671078423717147  1.0000
  C   C31       1.0  0.10714824218754868  0.41762333921004574  0.505771904021735  1.0000
  C   C32       1.0  0.8935399809343351  0.5539995643084835  0.4925577550558271  1.0000
  C   C33       1.0  0.1818671342757767  0.4805221571185427  0.505931064029866  1.0000
  C   C34       1.0  0.8187760576978889  0.49107690478567884  0.49162758316852256  1.0000
  C   C35       1.0  0.9987070963138363  0.526989991129966  0.4972842071716029  1.0000
  C   C36       1.0  0.0019465334265901997  0.4445126058462066  0.500352451277017  1.0000
  S   S1        1.0  0.12365985170403351  0.5723497560901833  0.5004371532411936  1.0000
  S   S2        1.0  0.87703603519126  0.3990974469581373  0.4960704302794453  1.0000
  N   N1        1.0  0.4996192306287098  0.7216135368454246  0.5145365033469032  1.0000
  N   N2        1.0  0.5001773408067933  0.2786418459206814  0.48580816835116986  1.0000
  Cl  Cl1       1.0  0.6692360660173263  0.7179505768065724  0.6001760218958336  1.0000
  Cl  Cl2       1.0  0.6678966534998452  0.9027629266337839  0.6190204649946693  1.0000
  Cl  Cl3       1.0  0.3314888027848113  0.701752161884066  0.4264177398291834  1.0000
  Cl  Cl4       1.0  0.31862193895367596  0.8843614539527422  0.43630715412914606  1.0000
  Cl  Cl5       1.0  0.6581011543698592  0.11893748795231569  0.5877019252655271  1.0000
  Cl  Cl6       1.0  0.6419776069749972  0.3004082063053488  0.595176824956077  1.0000
  Cl  Cl7       1.0  0.3455068394191443  0.0963917961121368  0.37238466791847447  1.0000
  Cl  Cl8       1.0  0.3608180579002322  0.2807803550604077  0.3757606149584375  1.0000
  Cl  Cl9       1.0  0.2750983508945168  0.5158217121991626  0.2831151798090161  1.0000
  Cl  Cl10      1.0  0.2670322844216528  0.5160456460110439  0.10601766923512196  1.0000
  Cl  Cl11      1.0  0.7003862762254797  0.5086197880441856  0.27606191327352997  1.0000
  Cl  Cl12      1.0  0.6998400698498558  0.5152506669253543  0.1012408311310367  1.0000
  Cl  Cl13      1.0  0.3038068770552513  0.48366013094157995  0.8963283070601447  1.0000
  Cl  Cl14      1.0  0.3001390180089345  0.5057962900987503  0.7238206049229985  1.0000
  Cl  Cl15      1.0  0.7365659889525416  0.49855429613328534  0.8899581933104201  1.0000
  Cl  Cl16      1.0  0.7260221350774643  0.5137125443652052  0.7147079237609262  1.0000
  O   O1        1.0  0.4820308131402057  0.4451539416367893  0.3803957284094109  1.0000
  O   O2        1.0  0.5019927669295825  0.580582244684777  0.39047740331147196  1.0000
  O   O3        1.0  0.34603192751767137  0.548262184562269  0.5070420396386766  1.0000
  O   O4        1.0  0.34117434858824675  0.41273363319212564  0.5059502255816424  1.0000
  O   O5        1.0  0.5028545531802565  0.5851332813301013  0.6224088897192954  1.0000
  O   O6        1.0  0.512845543262607  0.45021439040186095  0.6060398058297877  1.0000
  O   O7        1.0  0.6559270390424388  0.42213577820058396  0.4779571400536681  1.0000
  O   O8        1.0  0.6580981029776609  0.5575731639415409  0.5005453233426138  1.0000
  O   O9        1.0  0.1331022706553  0.34057897655796404  0.5100167749090616  1.0000
  O   O10       1.0  0.8675845585459001  0.6311433821719279  0.48883420419068097  1.0000
