data_image0
_chemical_formula_structural       Na2Cd2H34C22O26
_chemical_formula_sum              "Na2 Cd2 H34 C22 O26"
_cell_length_a       6.766560109475623
_cell_length_b       10.686908221913107
_cell_length_c       12.654628101294582
_cell_angle_alpha    73.62263626627457
_cell_angle_beta     91.80050206208944
_cell_angle_gamma    77.5990363956739

_space_group_name_H-M_alt    "P 1"
_space_group_IT_number       1

loop_
  _space_group_symop_operation_xyz
  'x, y, z'

loop_
  _atom_site_type_symbol
  _atom_site_label
  _atom_site_symmetry_multiplicity
  _atom_site_fract_x
  _atom_site_fract_y
  _atom_site_fract_z
  _atom_site_occupancy
  Na  Na1       1.0  0.3272646577828411  0.866540691402001  0.887037300527247  1.0000
  Na  Na2       1.0  0.6727276738625604  0.1334563322245756  0.11296157658562582  1.0000
  Cd  Cd1       1.0  0.2986532923375408  0.23830188082374806  0.6421461545998854  1.0000
  Cd  Cd2       1.0  0.7013511809261883  0.7616919487444136  0.357856981969782  1.0000
  H   H1        1.0  0.1521381942689715  0.9883227163039905  0.6395416003119224  1.0000
  H   H2        1.0  0.8478580337556352  0.011685210567307504  0.36045428710556854  1.0000
  H   H3        1.0  0.9382965888160231  0.09455559382207923  0.6073633469988594  1.0000
  H   H4        1.0  0.061693675217611564  0.905445457246934  0.3926377642389056  1.0000
  H   H5        1.0  0.4307631401072528  0.3282794598856568  0.4369380107911739  1.0000
  H   H6        1.0  0.5692449060550188  0.6717093252613253  0.5630686550784745  1.0000
  H   H7        1.0  0.206092044738682  0.4216005538134907  0.43006481486664694  1.0000
  H   H8        1.0  0.7939335108965578  0.5783979057618395  0.5699385703262722  1.0000
  H   H9        1.0  0.64748256459675  0.36737549044116247  0.6509540870023329  1.0000
  H   H10       1.0  0.3525071681560447  0.6326245682508329  0.3490433270476458  1.0000
  H   H11       1.0  0.4567271212577636  0.47363682075882013  0.6645807539299113  1.0000
  H   H12       1.0  0.543277681322827  0.5263709661011191  0.335420354558579  1.0000
  H   H13       1.0  0.401305876362258  0.7508145842417948  0.14650242794400725  1.0000
  H   H14       1.0  0.5987084068021035  0.24917807702485106  0.8534965947702561  1.0000
  H   H15       1.0  0.4490937091911177  0.8893967805213449  0.12124222245147821  1.0000
  H   H16       1.0  0.5509286867342098  0.1105947329452235  0.8787448025635032  1.0000
  H   H17       1.0  0.015245877787108996  0.0598942451006934  0.7881383545351426  1.0000
  H   H18       1.0  0.9847564940535134  0.9401065941306824  0.21185670229640868  1.0000
  H   H19       1.0  0.8943046779968993  0.05925679719712919  0.8920220774260416  1.0000
  H   H20       1.0  0.10568939386019587  0.9407511630068157  0.10797071597783511  1.0000
  H   H21       1.0  0.8562273335103966  0.6452940806976812  0.7087856933678865  1.0000
  H   H22       1.0  0.14377719877261086  0.35469475418310026  0.2912115714130437  1.0000
  H   H23       1.0  0.6656725614258078  0.628402256865492  0.03320496596224838  1.0000
  H   H24       1.0  0.3342874716829413  0.37160129541963727  0.9667896913026581  1.0000
  H   H25       1.0  0.9243996757436647  0.2627107257176675  0.9532425717380805  1.0000
  H   H26       1.0  0.0756124807896512  0.7372909576787875  0.04676455688981921  1.0000
  H   H27       1.0  0.6848056940360434  0.8276058161495498  0.6739253220126502  1.0000
  H   H28       1.0  0.3151738835519708  0.17239740531836387  0.3260701382097579  1.0000
  H   H29       1.0  0.9021477922854261  0.8578448425926479  0.7385885500994718  1.0000
  H   H30       1.0  0.0978410608533835  0.14215922919077428  0.2614166167661196  1.0000
  H   H31       1.0  0.5286152028554555  0.47858725816654146  0.15834245710262002  1.0000
  H   H32       1.0  0.4713739291306851  0.5214118235601362  0.8416647813420612  1.0000
  H   H33       1.0  0.7832696968268353  0.4778497677632528  0.19802908950676817  1.0000
  H   H34       1.0  0.21670463442321622  0.5221694977985506  0.8019616665848233  1.0000
  C   C1        1.0  0.8902093324514692  0.4479886498161393  0.8219247946733291  1.0000
  C   C2        1.0  0.1098082300227077  0.5520109488283396  0.17808422161981238  1.0000
  C   C3        1.0  0.8330616401852992  0.588186118291361  0.7911128635777233  1.0000
  C   C4        1.0  0.16694560631533767  0.4118116438110277  0.20888038373128381  1.0000
  C   C5        1.0  0.7550944707436713  0.6505741418180548  0.8687557103735843  1.0000
  C   C6        1.0  0.24488718029231643  0.34942306183330635  0.131242006638125  1.0000
  C   C7        1.0  0.7260785578894796  0.5754640919106463  0.9750485726697634  1.0000
  C   C8        1.0  0.2739123954665673  0.4245419302334738  0.024948042311805828  1.0000
  C   C9        1.0  0.7791843315770491  0.4358072101336958  0.0024453014128695758  1.0000
  C   C10       1.0  0.22081928884195887  0.5641986007031363  0.9975547792990868  1.0000
  C   C11       1.0  0.8676946509009297  0.3711287273853188  0.9275955174269299  1.0000
  C   C12       1.0  0.13229135674795603  0.6288704066556433  0.07241105168125013  1.0000
  C   C13       1.0  0.9938571406637066  0.3811065028713116  0.742860762847407  1.0000
  C   C14       1.0  0.00617202751762136  0.6188819396879383  0.25716095642268033  1.0000
  C   C15       1.0  0.738161640205952  0.8642174738952518  0.7403340417696143  1.0000
  C   C16       1.0  0.2618354569661036  0.1357814606089391  0.2596617426260153  1.0000
  C   C17       1.0  0.6200609869131525  0.007665382091786896  0.7137347724888771  1.0000
  C   C18       1.0  0.3799589872310562  0.9923371546597719  0.2862614457402088  1.0000
  C   C19       1.0  0.6826428001488765  0.4144538038022317  0.18508249333833507  1.0000
  C   C20       1.0  0.3173454937339457  0.5855502674508487  0.8149131533906485  1.0000
  C   C21       1.0  0.6771331426499644  0.30895767324135187  0.2939224514360816  1.0000
  C   C22       1.0  0.32285958900398276  0.6910443322413968  0.7060775076352571  1.0000
  O   O1        1.0  0.14493676825593846  0.2824157820608875  0.7855947829378352  1.0000
  O   O2        1.0  0.8550735521660614  0.7175859526603929  0.21443150501116293  1.0000
  O   O3        1.0  0.9360238371140708  0.4237364501587918  0.639446869458368  1.0000
  O   O4        1.0  0.06402525221025711  0.5762646049358792  0.36055877107092743  1.0000
  O   O5        1.0  0.6594009411250781  0.09223495055270799  0.6300443487695588  1.0000
  O   O6        1.0  0.3406025685992446  0.9077658676468868  0.36994907176926983  1.0000
  O   O7        1.0  0.47351966829308617  0.0357057316420679  0.7721264190228609  1.0000
  O   O8        1.0  0.5264758187337077  0.9642872368295202  0.22786143268896095  1.0000
  O   O9        1.0  0.6259125714829776  0.3598272695011672  0.3722603855486356  1.0000
  O   O10       1.0  0.37410051477840506  0.6401704074846324  0.6277461452470947  1.0000
  O   O11       1.0  0.717194411184728  0.18693776707573312  0.2986015489065679  1.0000
  O   O12       1.0  0.2828067474501735  0.8130650989732401  0.701404174886008  1.0000
  O   O13       1.0  0.6966345627996586  0.787124045245854  0.8464477129489509  1.0000
  O   O14       1.0  0.30336500199271643  0.21287584367207293  0.15354691928025233  1.0000
  O   O15       1.0  0.7533435791611109  0.35212734535225104  0.10279843328699911  1.0000
  O   O16       1.0  0.24664000977566758  0.6478798009796664  0.8971998113489122  1.0000
  O   O17       1.0  0.08252325554363443  0.08202394415795307  0.6333549959151554  1.0000
  O   O18       1.0  0.9174688415323186  0.917980066580263  0.3666444736878774  1.0000
  O   O19       1.0  0.29165886839803795  0.3282909994926015  0.4635754046880651  1.0000
  O   O20       1.0  0.7083348135615777  0.6716980174631145  0.536419911607311  1.0000
  O   O21       1.0  0.5193231170537514  0.3737580749396585  0.6853627890851329  1.0000
  O   O22       1.0  0.4806737071071793  0.6262438592471683  0.3146354146456005  1.0000
  O   O23       1.0  0.376908222009213  0.836774168859037  0.0876275522805443  1.0000
  O   O24       1.0  0.6230939032340927  0.16321869756446716  0.9123703698564969  1.0000
  O   O25       1.0  0.007569743898059863  0.0068024995834364  0.8645792864936866  1.0000
  O   O26       1.0  0.9924383305948081  0.9932042343846208  0.135421947681067  1.0000
