data_image0
_chemical_formula_structural       CoH26C34N14Cl2
_chemical_formula_sum              "Co1 H26 C34 N14 Cl2"
_cell_length_a       8.291333389220883
_cell_length_b       8.693943741030232
_cell_length_c       11.944414899406713
_cell_angle_alpha    81.7542685898682
_cell_angle_beta     87.96973652677912
_cell_angle_gamma    66.97907951444141

_space_group_name_H-M_alt    "P 1"
_space_group_IT_number       1

loop_
  _space_group_symop_operation_xyz
  'x, y, z'

loop_
  _atom_site_type_symbol
  _atom_site_label
  _atom_site_symmetry_multiplicity
  _atom_site_fract_x
  _atom_site_fract_y
  _atom_site_fract_z
  _atom_site_occupancy
  Co  Co1       1.0  1.1980447211998972e-06  1.0783636312988252e-06  0.49999954633359056  1.0000
  H   H1        1.0  0.16846168376602583  0.6265794476001998  0.5844930937171355  1.0000
  H   H2        1.0  0.8315366657457729  0.3734205728962506  0.4155066770698638  1.0000
  H   H3        1.0  0.26354731460290287  0.3800735908436152  0.30360128291503935  1.0000
  H   H4        1.0  0.7364546563543826  0.6199264214642567  0.6963983087461969  1.0000
  H   H5        1.0  0.05210262292784061  0.9256598766431663  0.2706533384755545  1.0000
  H   H6        1.0  0.947903241696558  0.07434265952473139  0.7293474392088511  1.0000
  H   H7        1.0  0.8839093020961571  0.9002839479879867  0.1333828921422011  1.0000
  H   H8        1.0  0.11609681544614864  0.09972361684584996  0.8666147701184739  1.0000
  H   H9        1.0  0.8240105691606417  0.9106742695729152  0.9301084764800294  1.0000
  H   H10       1.0  0.17599550673519807  0.0893332901993134  0.06988835067755869  1.0000
  H   H11       1.0  0.014715576816463708  0.6851402181871507  0.8245913752418872  1.0000
  H   H12       1.0  0.9852843000250788  0.3148560153269456  0.17540876356810028  1.0000
  H   H13       1.0  0.3396529562798847  0.43931967557238494  0.12345422689500644  1.0000
  H   H14       1.0  0.6603371993844364  0.5606740730373474  0.8765491999501692  1.0000
  H   H15       1.0  0.6105523574533577  0.14028100906564586  0.6636722093294336  1.0000
  H   H16       1.0  0.389448127820664  0.8597227952861956  0.33632784941190846  1.0000
  H   H17       1.0  0.4057416905915119  0.2978793851193089  0.6033728661737142  1.0000
  H   H18       1.0  0.5942586474003164  0.7021219023687592  0.39662833272794973  1.0000
  H   H19       1.0  0.5284301172719025  0.9242004005041906  0.8405662219870962  1.0000
  H   H20       1.0  0.4715661318109952  0.07580216256150858  0.15943586846908886  1.0000
  H   H21       1.0  0.39366295757522357  0.7116964192182278  0.8473287671840948  1.0000
  H   H22       1.0  0.6063353502901022  0.2883035962166147  0.15267016849981732  1.0000
  H   H23       1.0  0.18541878181146387  0.7393699159107286  0.6948510597271991  1.0000
  H   H24       1.0  0.8145854368569233  0.2606300706916682  0.30514507210452985  1.0000
  H   H25       1.0  0.24490342839162346  0.16372546827851414  0.5239326942012212  1.0000
  H   H26       1.0  0.7550997497141692  0.8362745412998365  0.4760668377514321  1.0000
  C   C1        1.0  0.1708823803131025  0.6353828208191956  0.4928902370251933  1.0000
  C   C2        1.0  0.8291174069223359  0.36461972393471587  0.5071100040990615  1.0000
  C   C3        1.0  0.22038434139559382  0.500372264809826  0.33646313507976794  1.0000
  C   C4        1.0  0.7796141970448714  0.49963027761199896  0.6635363306499968  1.0000
  C   C5        1.0  0.14652203235288397  0.6553618328143216  0.2654951062936348  1.0000
  C   C6        1.0  0.8534769735510253  0.34463944221845116  0.7345036470073723  1.0000
  C   C7        1.0  0.09746598799382877  0.7995302981745738  0.3186078682893054  1.0000
  C   C8        1.0  0.9025353682178264  0.20046846465858434  0.6813935759610175  1.0000
  C   C9        1.0  0.1156219899989211  0.6675102076435592  0.14330010685264938  1.0000
  C   C10       1.0  0.8843781174177677  0.33248855285751944  0.8567005620031765  1.0000
  C   C11       1.0  0.9717470319848971  0.8018324051726893  0.08711420747919622  1.0000
  C   C12       1.0  0.028255889928885787  0.1981738953990515  0.9128820863753899  1.0000
  C   C13       1.0  0.9371822025675131  0.8072975345831493  0.9729543552242104  1.0000
  C   C14       1.0  0.06282076099274296  0.19270877105019926  0.027042773733462897  1.0000
  C   C15       1.0  0.04583947931219263  0.6803294449146762  0.913221130772406  1.0000
  C   C16       1.0  0.9541593376630431  0.3196693081927151  0.0867779275858354  1.0000
  C   C17       1.0  0.19321669382144793  0.5487363175536686  0.9669472939264521  1.0000
  C   C18       1.0  0.8067782487903873  0.4512574150763554  0.033055058981290054  1.0000
  C   C19       1.0  0.2259421948238581  0.5424246571536601  0.0820107961913195  1.0000
  C   C20       1.0  0.7740500133097328  0.457572865188247  0.917991248402025  1.0000
  C   C21       1.0  0.31355137684435164  0.41879177325209566  0.9045425234045864  1.0000
  C   C22       1.0  0.6864435241210102  0.5812019543163204  0.09545899440006879  1.0000
  C   C23       1.0  0.4677611212571549  0.19735491939923117  0.6738157354472917  1.0000
  C   C24       1.0  0.5322406607714714  0.8026425709832663  0.3261841612711932  1.0000
  C   C25       1.0  0.39664409865779504  0.060754538696926395  0.6809912939697894  1.0000
  C   C26       1.0  0.6033590794479907  0.9392454708814312  0.3190082379828638  1.0000
  C   C27       1.0  0.44188478235331274  0.9301044494808294  0.7720870131355679  1.0000
  C   C28       1.0  0.5581160231019523  0.06989557061817209  0.22791347333734538  1.0000
  C   C29       1.0  0.36841575849607733  0.8108781032791155  0.7754652192014788  1.0000
  C   C30       1.0  0.6315827382979151  0.18912443408110843  0.22453341142519173  1.0000
  C   C31       1.0  0.25279978849260243  0.8247717835966454  0.6894494334992768  1.0000
  C   C32       1.0  0.7472026499281341  0.17522696132217416  0.31054944573320836  1.0000
  C   C33       1.0  0.2822492336216769  0.0650328575689301  0.5968756377819558  1.0000
  C   C34       1.0  0.7177539028376431  0.9349671469478122  0.40312305906761026  1.0000
  N   N1        1.0  0.10534685902776186  0.7912874831936065  0.43236806841803593  1.0000
  N   N2        1.0  0.8946563190780238  0.208712526384744  0.5676314635346174  1.0000
  N   N3        1.0  0.23384323552221534  0.49135204913233815  0.4489287271049989  1.0000
  N   N4        1.0  0.7661599009371046  0.5086479553844043  0.5510699697445743  1.0000
  N   N5        1.0  0.29548322501328533  0.41021198790154745  0.7942689730570861  1.0000
  N   N6        1.0  0.7045118232342704  0.5897842565306489  0.2057314045872403  1.0000
  N   N7        1.0  0.4365217427444393  0.27350131188898513  0.7781843036547256  1.0000
  N   N8        1.0  0.5634771991702223  0.7264974564032229  0.22181726001277002  1.0000
  N   N9        1.0  0.53753780001027  0.19933296787915103  0.8712561144514551  1.0000
  N   N10       1.0  0.4624611419043916  0.8006658004130571  0.12874544921604067  1.0000
  N   N11       1.0  0.46155389830641974  0.2902834563136524  0.9517485072037245  1.0000
  N   N12       1.0  0.5384395169756714  0.7097140632987262  0.04825347768103678  1.0000
  N   N13       1.0  0.20823460184010395  0.9499760701609856  0.6009378324806248  1.0000
  N   N14       1.0  0.7917675580458549  0.0500264640722676  0.39906145412336963  1.0000
  Cl  Cl1       1.0  0.1409325934036758  0.14108087253691787  0.3453644828601695  1.0000
  Cl  Cl2       1.0  0.8590699283100064  0.8589178825051106  0.654636066578476  1.0000
