data_image0
_chemical_formula_structural       Mn2H18C28N2O14
_chemical_formula_sum              "Mn2 H18 C28 N2 O14"
_cell_length_a       7.405389235510405
_cell_length_b       10.060065807336214
_cell_length_c       10.75874785901783
_cell_angle_alpha    64.06766921931147
_cell_angle_beta     68.95685278820537
_cell_angle_gamma    70.03874535867638

_space_group_name_H-M_alt    "P 1"
_space_group_IT_number       1

loop_
  _space_group_symop_operation_xyz
  'x, y, z'

loop_
  _atom_site_type_symbol
  _atom_site_label
  _atom_site_symmetry_multiplicity
  _atom_site_fract_x
  _atom_site_fract_y
  _atom_site_fract_z
  _atom_site_occupancy
  Mn  Mn1       1.0  0.6253432494439152  0.08993425147033209  0.06680131365600063  1.0000
  Mn  Mn2       1.0  0.37465624881201615  0.9100655169573598  0.9331968560708078  1.0000
  H   H1        1.0  0.7558249850001174  0.13652161173891383  0.7758034005507568  1.0000
  H   H2        1.0  0.244174194279978  0.8634736738420016  0.22419766035434222  1.0000
  H   H3        1.0  0.9259898454979448  0.037740171376690085  0.8568095430329308  1.0000
  H   H4        1.0  0.0740092307769446  0.9622607988299585  0.1431910081121688  1.0000
  H   H5        1.0  0.6542270072815554  0.5615085300375995  0.04565858728610562  1.0000
  H   H6        1.0  0.3457724483657642  0.43849126148278816  0.9543405125245101  1.0000
  H   H7        1.0  0.9992575436977159  0.6252065564850469  0.25535111540623495  1.0000
  H   H8        1.0  0.000745363627352407  0.37479094499834525  0.7446490806305519  1.0000
  H   H9        1.0  0.06503740194474258  0.17916654637948431  0.2576105885600484  1.0000
  H   H10       1.0  0.9349704348667132  0.8208342563505722  0.7423870779295286  1.0000
  H   H11       1.0  0.001315361173112697  0.16759844898287918  0.49977226683204623  1.0000
  H   H12       1.0  0.9986823047224005  0.8324025221950534  0.500227679991191  1.0000
  H   H13       1.0  0.2349463153706708  0.026169037692483195  0.6598167475582101  1.0000
  H   H14       1.0  0.7650495181644176  0.973833136235697  0.34018497636145645  1.0000
  H   H15       1.0  0.5784040180063315  0.36832711438861315  0.40163584921541673  1.0000
  H   H16       1.0  0.42159476411336516  0.6316749883188991  0.5983642930965373  1.0000
  H   H17       1.0  0.3509122846823942  0.4845707056345958  0.2351299876432052  1.0000
  H   H18       1.0  0.6490817591008948  0.5154326479511225  0.7648725832890904  1.0000
  C   C1        1.0  0.7845593419771574  0.2585285325314785  0.11286544342037533  1.0000
  C   C2        1.0  0.21544417847893982  0.741472319297827  0.8871322702712517  1.0000
  C   C3        1.0  0.8489841896856446  0.3593387423155717  0.1501169313478528  1.0000
  C   C4        1.0  0.1510191218325047  0.6406631958291981  0.8498785133430289  1.0000
  C   C5        1.0  0.7636861987228301  0.5142479643882183  0.10837072393100308  1.0000
  C   C6        1.0  0.2363159113538984  0.48575288841236386  0.8916263854387693  1.0000
  C   C7        1.0  0.8196869435754904  0.6092684172419283  0.14479964338702436  1.0000
  C   C8        1.0  0.18031661948922553  0.3907324114946746  0.8551971402207955  1.0000
  C   C9        1.0  0.7313382452296722  0.7756943700618919  0.09321455914176373  1.0000
  C   C10       1.0  0.2686626207970235  0.22430542048721236  0.9067851449907066  1.0000
  C   C11       1.0  0.9583977921061972  0.5495673536600592  0.22684090627741682  1.0000
  C   C12       1.0  0.041596882596095994  0.45043371183123065  0.7731615522373328  1.0000
  C   C13       1.0  0.040438820812475684  0.3942478458448093  0.268919867848318  1.0000
  C   C14       1.0  0.9595588024744188  0.605753148425819  0.7310810090587269  1.0000
  C   C15       1.0  0.991011135286513  0.29864081846568513  0.2294538795603813  1.0000
  C   C16       1.0  0.00899093218159662  0.7013600574276065  0.7705441598931984  1.0000
  C   C17       1.0  0.13836468972840524  0.20034276645348825  0.4785703146486854  1.0000
  C   C18       1.0  0.861640386720893  0.7996523766860973  0.5214275830409959  1.0000
  C   C19       1.0  0.265529300887934  0.12673163755549408  0.5668303218523078  1.0000
  C   C20       1.0  0.7344725328215703  0.8732647093056157  0.4331687486119478  1.0000
  C   C21       1.0  0.4281004729087884  0.18475000251959978  0.5407168838322747  1.0000
  C   C22       1.0  0.5719011903662403  0.8152464367123072  0.45928590696721006  1.0000
  C   C23       1.0  0.45576880729656477  0.31884156903769406  0.42333679024136467  1.0000
  C   C24       1.0  0.544225696971253  0.6811595888243928  0.5766693886086144  1.0000
  C   C25       1.0  0.3308395219267127  0.3859059041497446  0.3325867697000006  1.0000
  C   C26       1.0  0.6691579735343254  0.6140951593989783  0.667416897458466  1.0000
  C   C27       1.0  0.5660535832418888  0.10441401696171937  0.6384362807316463  1.0000
  C   C28       1.0  0.43394700641757583  0.8955812676479055  0.3615653844953073  1.0000
  N   N1        1.0  0.17394741730045374  0.326559636512009  0.36121618702183866  1.0000
  N   N2        1.0  0.8260530693538046  0.6734413327233569  0.6387849684451152  1.0000
  O   O1        1.0  0.8728137425264393  0.1190827388506506  0.14309123821281844  1.0000
  O   O2        1.0  0.12718592205883542  0.8809159663542728  0.8569101305985428  1.0000
  O   O3        1.0  0.6379598019279487  0.31293614673191433  0.056415359451932406  1.0000
  O   O4        1.0  0.3620424744781161  0.6870636428459062  0.9435849490023925  1.0000
  O   O5        1.0  0.625189852971907  0.8248492373847254  0.005730529436732624  1.0000
  O   O6        1.0  0.37480578941320175  0.17514838441857705  0.99427129540981  1.0000
  O   O7        1.0  0.8099894247754449  0.12386864120219342  0.8547355250957551  1.0000
  O   O8        1.0  0.19001148385986255  0.876131126254208  0.14526324895290813  1.0000
  O   O9        1.0  0.7697779953597389  0.8587544257232195  0.13758678978358346  1.0000
  O   O10       1.0  0.2302223675738091  0.14124758364221177  0.8624102365150035  1.0000
  O   O11       1.0  0.5528148501806457  0.9684684240549187  0.7228348543228618  1.0000
  O   O12       1.0  0.4471810011424111  0.0315281114329125  0.2771692395244258  1.0000
  O   O13       1.0  0.6842655172732889  0.17586138348186606  0.6300645737853329  1.0000
  O   O14       1.0  0.3157420224554316  0.8241302688130503  0.36993143439037357  1.0000
