data_image0
_chemical_formula_structural       Tl4H12C28N8O24
_chemical_formula_sum              "Tl4 H12 C28 N8 O24"
_cell_length_a       4.9425759548888495
_cell_length_b       10.517052832056253
_cell_length_c       17.865175571178334
_cell_angle_alpha    90.00036873122818
_cell_angle_beta     94.17000224972244
_cell_angle_gamma    89.99990533794221

_space_group_name_H-M_alt    "P 1"
_space_group_IT_number       1

loop_
  _space_group_symop_operation_xyz
  'x, y, z'

loop_
  _atom_site_type_symbol
  _atom_site_label
  _atom_site_symmetry_multiplicity
  _atom_site_fract_x
  _atom_site_fract_y
  _atom_site_fract_z
  _atom_site_occupancy
  Tl  Tl1       1.0  0.9605964080304615  0.17801373859706615  0.9354004719987823  1.0000
  Tl  Tl2       1.0  0.5394069393578248  0.6780169686029539  0.56459866830685  1.0000
  Tl  Tl3       1.0  0.0394079746840106  0.8219815658776496  0.06459831719484299  1.0000
  Tl  Tl4       1.0  0.46059136037320064  0.32198594257026514  0.43540056062534654  1.0000
  H   H1        1.0  0.0739414260279645  0.9167345719905949  0.8036780523054927  1.0000
  H   H2        1.0  0.42606129201847404  0.41673540943619974  0.6963230391057705  1.0000
  H   H3        1.0  0.9260629595200455  0.0832664375074899  0.19632129670359427  1.0000
  H   H4        1.0  0.5739390448410049  0.5832665509089169  0.3036779092658932  1.0000
  H   H5        1.0  0.05121678503650881  0.5050118433997426  0.8074812998369649  1.0000
  H   H6        1.0  0.4487788575459533  0.0050126216353163005  0.6925164142030126  1.0000
  H   H7        1.0  0.948779483251279  0.4949891660975466  0.19251732926005619  1.0000
  H   H8        1.0  0.5512133592137118  0.9949883878692278  0.3074832544499912  1.0000
  H   H9        1.0  0.6694937684867669  0.708731960304675  0.9422072382386442  1.0000
  H   H10       1.0  0.8305054492245816  0.20873325810339333  0.5577930563567789  1.0000
  H   H11       1.0  0.33050453409230585  0.2912652458512923  0.05779255048770438  1.0000
  H   H12       1.0  0.16949488195330534  0.7912687022355981  0.4422067724052637  1.0000
  C   C1        1.0  0.5263908155356987  0.9498582718695373  0.9000539145546538  1.0000
  C   C2        1.0  0.9736219804279783  0.44986087080179965  0.5999458814613803  1.0000
  C   C3        1.0  0.4736237102006413  0.05013893427577899  0.09994507477659909  1.0000
  C   C4        1.0  0.026382410797999998  0.5501429912125672  0.4000545871626499  1.0000
  C   C5        1.0  0.38552723713640086  0.8264357865588606  0.8761991726373493  1.0000
  C   C6        1.0  0.11447367919850393  0.32643512111722117  0.6238009816592436  1.0000
  C   C7        1.0  0.6144771540968321  0.1735623704351923  0.12380129597602257  1.0000
  C   C8        1.0  0.8855226032944757  0.673564937558659  0.37620044646004647  1.0000
  C   C9        1.0  0.1580191374089424  0.8270688514808953  0.8249308422214836  1.0000
  C   C10       1.0  0.34198177447285627  0.3270695215375099  0.6750687546373937  1.0000
  C   C11       1.0  0.8419872824291444  0.17292930551258934  0.17506966641871455  1.0000
  C   C12       1.0  0.6580185595482391  0.6729305371311085  0.3249316339259066  1.0000
  C   C13       1.0  0.043171321368838306  0.7113062983398776  0.8013756130724159  1.0000
  C   C14       1.0  0.4568278592653385  0.21130618630616027  0.698624071171558  1.0000
  C   C15       1.0  0.9568269783646032  0.2886947111599127  0.19862361585622773  1.0000
  C   C16       1.0  0.5431704461509099  0.7886938723630269  0.3013762773649303  1.0000
  C   C17       1.0  0.1428825963441014  0.594044462438994  0.8271506084155857  1.0000
  C   C18       1.0  0.3571148540140854  0.0940450964957904  0.6728485978114661  1.0000
  C   C19       1.0  0.8571157062325554  0.40595464539041604  0.17284918031431568  1.0000
  C   C20       1.0  0.6428814284788943  0.9059549621800828  0.3271528303078242  1.0000
  C   C21       1.0  0.3690164055210445  0.5970626099066934  0.8782104707388141  1.0000
  C   C22       1.0  0.1309810400010605  0.09706190968168468  0.6217893065638121  1.0000
  C   C23       1.0  0.6309778426879049  0.4029355470901948  0.12178979774049026  1.0000
  C   C24       1.0  0.8690132110462655  0.9029381489916944  0.3782115217238554  1.0000
  C   C25       1.0  0.4909310648932461  0.7104746983832229  0.9029429069554521  1.0000
  C   C26       1.0  0.0090660864095327  0.21047572367687206  0.5970561743528575  1.0000
  C   C27       1.0  0.5090672376870417  0.2895215569360303  0.09705688176912017  1.0000
  C   C28       1.0  0.9909301932414394  0.78952528583266  0.40294469396339844  1.0000
  N   N1        1.0  0.8053164647213221  0.7126986835175514  0.7473277857157044  1.0000
  N   N2        1.0  0.6946827400593493  0.21269841479084303  0.7526719638883248  1.0000
  N   N3        1.0  0.19468183501453504  0.2873004243087962  0.2526714432093868  1.0000
  N   N4        1.0  0.3053135367532462  0.7873006930421979  0.24732834461956796  1.0000
  N   N5        1.0  0.4903709968332636  0.47678376756613255  0.905237018963703  1.0000
  N   N6        1.0  0.0096234426562916  0.9767854488921229  0.5947618974158856  1.0000
  N   N7        1.0  0.5096232485348934  0.5232143894276932  0.09476268971079087  1.0000
  N   N8        1.0  0.9903708027082276  0.023215560611852495  0.40523781126393726  1.0000
  O   O1        1.0  0.7583320191677316  0.9377846515046147  0.9355368983119942  1.0000
  O   O2        1.0  0.7416848533560129  0.43778989436762583  0.5644606934464915  1.0000
  O   O3        1.0  0.2416845266559093  0.062208751284082084  0.06446045162454789  1.0000
  O   O4        1.0  0.25832358371648917  0.5622139676333545  0.4355376160119348  1.0000
  O   O5        1.0  0.4113160469331731  0.0533931908353793  0.8811431224060725  1.0000
  O   O6        1.0  0.0886957212848856  0.5533941236827714  0.6188590111943595  1.0000
  O   O7        1.0  0.5887005159279894  0.9466059169919917  0.11885758636997676  1.0000
  O   O8        1.0  0.9113107155943467  0.4466068858392307  0.3811448562800165  1.0000
  O   O9        1.0  0.7355823475251739  0.8159023687900984  0.7182349638452619  1.0000
  O   O10       1.0  0.7644165975343783  0.31590046263874433  0.7817657310425971  1.0000
  O   O11       1.0  0.2644159578862286  0.18410149322596683  0.28176538469832474  1.0000
  O   O12       1.0  0.23558373648913997  0.6840976943564457  0.21823465751715074  1.0000
  O   O13       1.0  0.6849409599861646  0.6107946320395925  0.7337110050208223  1.0000
  O   O14       1.0  0.8150564811287282  0.11079441907227759  0.7662894435383689  1.0000
  O   O15       1.0  0.31505937403130696  0.38920827913919004  0.2662893835478072  1.0000
  O   O16       1.0  0.1849397956826593  0.8892056395974777  0.23371086497130014  1.0000
  O   O17       1.0  0.3680475141863937  0.3767946837386802  0.888282646776069  1.0000
  O   O18       1.0  0.1319512340587963  0.8767955049764353  0.6117154163756948  1.0000
  O   O19       1.0  0.6319487569434017  0.6232053749249574  0.11171654212398607  1.0000
  O   O20       1.0  0.8680430056229226  0.12320645535814378  0.38828317269629037  1.0000
  O   O21       1.0  0.7110191837883946  0.48160748524355074  0.9433440920687134  1.0000
  O   O22       1.0  0.7889773025641489  0.9816085334749332  0.5566555023182359  1.0000
  O   O23       1.0  0.2889770930254159  0.518390671752769  0.05665621643740338  1.0000
  O   O24       1.0  0.21101897140523107  0.018392476028480997  0.4433442463884062  1.0000
