data_image0
_chemical_formula_structural       Na4B4H32C32N16O4
_chemical_formula_sum              "Na4 B4 H32 C32 N16 O4"
_cell_length_a       8.76646890827904
_cell_length_b       9.241841873696126
_cell_length_c       13.277497309063778
_cell_angle_alpha    90.00003482219078
_cell_angle_beta     89.9985928346136
_cell_angle_gamma    90.00140493338256

_space_group_name_H-M_alt    "P 1"
_space_group_IT_number       1

loop_
  _space_group_symop_operation_xyz
  'x, y, z'

loop_
  _atom_site_type_symbol
  _atom_site_label
  _atom_site_symmetry_multiplicity
  _atom_site_fract_x
  _atom_site_fract_y
  _atom_site_fract_z
  _atom_site_occupancy
  Na  Na1       1.0  0.4061872976949701  0.7500212178395101  0.9328346573158657  1.0000
  Na  Na2       1.0  0.9062158479861465  0.24999125812273346  0.5671555360980562  1.0000
  Na  Na3       1.0  0.5937963300476452  0.24998415686882683  0.0671563841226046  1.0000
  Na  Na4       1.0  0.09383850386498692  0.7499957227983103  0.4328189353930655  1.0000
  B   B1        1.0  0.902866689797321  0.7499933541475698  0.7277973846379525  1.0000
  B   B2        1.0  0.4028929595150004  0.25002770091261783  0.77222449346489  1.0000
  B   B3        1.0  0.09711579674830521  0.2500022822374248  0.2722124856571  1.0000
  B   B4        1.0  0.5971591114289438  0.7499755105057061  0.22773416181382095  1.0000
  H   H1        1.0  0.2230292166795635  0.965392433775385  0.06417093022277952  1.0000
  H   H2        1.0  0.7230118262698825  0.03458720255216718  0.4358226933022778  1.0000
  H   H3        1.0  0.776947435892133  0.46541343005322483  0.9358224591151298  1.0000
  H   H4        1.0  0.27696622871748383  0.5346155188213257  0.5641705192588375  1.0000
  H   H5        1.0  0.7769509889898956  0.034649730106352195  0.9358419527156772  1.0000
  H   H6        1.0  0.27697408245737165  0.965388957228427  0.5641713607282031  1.0000
  H   H7        1.0  0.2230510211873096  0.5346179136822684  0.06418063267584981  1.0000
  H   H8        1.0  0.7230173985597332  0.46536280500489374  0.4358265474059522  1.0000
  H   H9        1.0  0.21161201614668101  0.9020922057253672  0.19126875445728334  1.0000
  H   H10       1.0  0.7115908691045191  0.09790231371415807  0.3087310738172775  1.0000
  H   H11       1.0  0.7883960791183996  0.40210902531883613  0.8087343996611696  1.0000
  H   H12       1.0  0.2883819795450435  0.5979212712839013  0.6912621647621933  1.0000
  H   H13       1.0  0.7883898628055448  0.09793372787732577  0.8087441283074881  1.0000
  H   H14       1.0  0.2883756476898256  0.9020857482307534  0.6912637335220566  1.0000
  H   H15       1.0  0.2116206293775633  0.5979309749132395  0.19127170460406262  1.0000
  H   H16       1.0  0.7115799741108475  0.40205380618631636  0.3087394209962042  1.0000
  H   H17       1.0  0.9480319683570781  0.8791399581615021  0.16022322611499362  1.0000
  H   H18       1.0  0.4480089592437579  0.1208265127034025  0.3397796638948024  1.0000
  H   H19       1.0  0.05196982947218489  0.37918513624180133  0.8398032664145706  1.0000
  H   H20       1.0  0.5519701861312498  0.620845076023464  0.660208311963416  1.0000
  H   H21       1.0  0.05196420679990871  0.12088381130920564  0.839800954003934  1.0000
  H   H22       1.0  0.551960979222592  0.8791528930062495  0.6602332191114826  1.0000
  H   H23       1.0  0.9480400340927916  0.6208343052477546  0.16022392621180614  1.0000
  H   H24       1.0  0.4479986113939916  0.37913432967834376  0.3398166215155882  1.0000
  H   H25       1.0  0.9718855644543611  0.8752729813408708  0.027817814218956002  1.0000
  H   H26       1.0  0.4718610017693122  0.1246713211342438  0.4721839476520772  1.0000
  H   H27       1.0  0.0280887564675893  0.3753231339306282  0.9722026517090328  1.0000
  H   H28       1.0  0.5281056957861594  0.6247335744003735  0.5278062893525048  1.0000
  H   H29       1.0  0.028090077933605104  0.12475295196236397  0.9722071192157885  1.0000
  H   H30       1.0  0.5281283286133132  0.875301592590084  0.5278327009703716  1.0000
  H   H31       1.0  0.9719028558908107  0.6247038815932411  0.027821528446423806  1.0000
  H   H32       1.0  0.4718859159441422  0.37524042138789326  0.4722148781761463  1.0000
  C   C1        1.0  0.7602890613607444  0.7499993046302436  0.8012829864420256  1.0000
  C   C2        1.0  0.2602725187855768  0.2500162722848032  0.6987690000970873  1.0000
  C   C3        1.0  0.23969912874652272  0.25000498810653937  0.19873215588785345  1.0000
  C   C4        1.0  0.7397806926747421  0.7499663804726208  0.30118588939851787  1.0000
  C   C5        1.0  0.9002610125025116  0.8896256321816762  0.6588974009679092  1.0000
  C   C6        1.0  0.40028787292121853  0.11038887011247311  0.8411177397058439  1.0000
  C   C7        1.0  0.0997193829198508  0.3896325186723145  0.3411132797908111  1.0000
  C   C8        1.0  0.5997526006837575  0.6103474985335139  0.15883407998401824  1.0000
  C   C9        1.0  0.0997157705392127  0.11036134785017988  0.34110418467636094  1.0000
  C   C10       1.0  0.5997527909051001  0.8896186693165546  0.15884468143333666  1.0000
  C   C11       1.0  0.9002653848059197  0.6103501333161743  0.658900356253561  1.0000
  C   C12       1.0  0.40028692253390113  0.38965895884416557  0.8411223159320331  1.0000
  C   C13       1.0  0.05218652560758841  0.7500127139338205  0.7945229700955567  1.0000
  C   C14       1.0  0.5522017891350827  0.2500294059325014  0.7054938768390073  1.0000
  C   C15       1.0  0.9478028054954564  0.24999915305957643  0.20548238122511728  1.0000
  C   C16       1.0  0.44785256280047037  0.7499629851651688  0.29447984149923917  1.0000
  C   C17       1.0  0.1856825650392011  0.8755170796300221  0.11219155022912734  1.0000
  C   C18       1.0  0.6856636369447244  0.12446385279428536  0.38780793249731  1.0000
  C   C19       1.0  0.8143111542236098  0.3755334907226667  0.8878085804820446  1.0000
  C   C20       1.0  0.3143098990051811  0.6244919981331944  0.6121853169773246  1.0000
  C   C21       1.0  0.8142976405895795  0.12451859203834202  0.8878190732460427  1.0000
  C   C22       1.0  0.3143051610022098  0.875507978647597  0.6121898874366993  1.0000
  C   C23       1.0  0.18570441347647912  0.6245043454267218  0.11220053640764864  1.0000
  C   C24       1.0  0.6856680245218527  0.37547983341709557  0.38781777496284064  1.0000
  C   C25       1.0  0.0174309523458334  0.8338297051180702  0.09912112363056742  1.0000
  C   C26       1.0  0.5174091792163722  0.1661332505472899  0.4008862762059025  1.0000
  C   C27       1.0  0.9825616883098504  0.3338673507923246  0.9008985719919451  1.0000
  C   C28       1.0  0.482569997592023  0.6661696226749922  0.5991137687096642  1.0000
  C   C29       1.0  0.9825583786093546  0.16619081816455863  0.9008977844636021  1.0000
  C   C30       1.0  0.4825687442354223  0.8338461552548111  0.5991258535836368  1.0000
  C   C31       1.0  0.017442471919629603  0.6661553367330768  0.09911958283211673  1.0000
  C   C32       1.0  0.517410207151009  0.3338076190852064  0.4009036331393929  1.0000
  N   N1        1.0  0.6575294057277431  0.7500035456582808  0.8567904896579324  1.0000
  N   N2        1.0  0.1575355234389804  0.25001072536196733  0.6432683842223881  1.0000
  N   N3        1.0  0.34246676917774005  0.2499996651396258  0.14323293730279124  1.0000
  N   N4        1.0  0.8425256729792209  0.7499686813813822  0.3566849989018125  1.0000
  N   N5        1.0  0.8991123352947241  0.9925001110769427  0.6083623050591385  1.0000
  N   N6        1.0  0.3991688185041511  0.007489478040625396  0.8916287525070389  1.0000
  N   N7        1.0  0.1008730032017695  0.4925124799247058  0.3916438989492265  1.0000
  N   N8        1.0  0.6008746967383303  0.5074556613420641  0.10831624655310183  1.0000
  N   N9        1.0  0.10087243279455291  0.007476048688701601  0.3916279832103839  1.0000
  N   N10       1.0  0.6008684231606765  0.9925234715279742  0.10833894073804373  1.0000
  N   N11       1.0  0.899130015842985  0.5074701722768891  0.608371996413638  1.0000
  N   N12       1.0  0.39913288638010164  0.4925475495623387  0.8916491874611553  1.0000
  N   N13       1.0  0.16153747034201874  0.7500118428723893  0.8441767996006888  1.0000
  N   N14       1.0  0.6615580596301457  0.25001117771885356  0.6558149804539612  1.0000
  N   N15       1.0  0.8384575644001089  0.2499956960423261  0.15582102013441815  1.0000
  N   N16       1.0  0.3385134025433203  0.74997039323015  0.3441730476732803  1.0000
  O   O1        1.0  0.27336447054357643  0.7500128001354582  0.0828472028903491  1.0000
  O   O2        1.0  0.773343101723846  0.2499712520771737  0.41715391406117425  1.0000
  O   O3        1.0  0.7266282832257218  0.2500304459210483  0.9171513700240015  1.0000
  O   O4        1.0  0.2266325404848288  0.7499984153727721  0.5828423995106249  1.0000
