data_image0
_chemical_formula_structural       Zn4H36C60N16F4
_chemical_formula_sum              "Zn4 H36 C60 N16 F4"
_cell_length_a       11.435714709568323
_cell_length_b       15.440431427671955
_cell_length_c       17.661828461217564
_cell_angle_alpha    108.47862167724938
_cell_angle_beta     110.19587712552885
_cell_angle_gamma    107.74528143401064

_space_group_name_H-M_alt    "P 1"
_space_group_IT_number       1

loop_
  _space_group_symop_operation_xyz
  'x, y, z'

loop_
  _atom_site_type_symbol
  _atom_site_label
  _atom_site_symmetry_multiplicity
  _atom_site_fract_x
  _atom_site_fract_y
  _atom_site_fract_z
  _atom_site_occupancy
  Zn  Zn1       1.0  0.3263722640663855  0.05184968913228953  0.8932302576996703  1.0000
  Zn  Zn2       1.0  0.6469759061410656  0.9483012814707763  0.11691286284039394  1.0000
  Zn  Zn3       1.0  0.30664626539284945  0.897778778356766  0.995011605537968  1.0000
  Zn  Zn4       1.0  0.6663185716420937  0.044322522087263234  0.9992619435369079  1.0000
  H   H1        1.0  0.32636147494961415  0.2363501921487412  0.038720321131712955  1.0000
  H   H2        1.0  0.7477218416237434  0.7353950244804538  0.06381689160761547  1.0000
  H   H3        1.0  0.7990124553375038  0.5494983389781254  0.9906064423055555  1.0000
  H   H4        1.0  0.7319272950447696  0.5732630876699149  0.06853484451643516  1.0000
  H   H5        1.0  0.879452361672321  0.5470676037589257  0.6958258727405778  1.0000
  H   H6        1.0  0.8968896765690672  0.6082917826604443  0.383263840462476  1.0000
  H   H7        1.0  0.7601016492275932  0.3808999710693967  0.5574849610562965  1.0000
  H   H8        1.0  0.7965374537364339  0.44105533010629466  0.24848857294819746  1.0000
  H   H9        1.0  0.21480924832994924  0.8498017468135899  0.13885858402893086  1.0000
  H   H10       1.0  0.19240046939189165  0.7812082504651843  0.2547274443676457  1.0000
  H   H11       1.0  0.7663372717311103  0.06645892490875828  0.5748435694191228  1.0000
  H   H12       1.0  0.6996200867979991  0.8340340280960418  0.9620931249924567  1.0000
  H   H13       1.0  0.18857439180235502  0.8121692642502865  0.40001267146923414  1.0000
  H   H14       1.0  0.761164934555097  0.09794752553607097  0.7194279802360839  1.0000
  H   H15       1.0  0.314594498551294  0.8935880934706332  0.5686937378943923  1.0000
  H   H16       1.0  0.2799013167329533  0.15984267664347127  0.2790422288514165  1.0000
  H   H17       1.0  0.13317834762335673  0.24595483085891345  0.3444634130401099  1.0000
  H   H18       1.0  0.3269339343363668  0.5405515309799113  0.2609745595207826  1.0000
  H   H19       1.0  0.6595860595176646  0.3954160457028594  0.0026326620857590436  1.0000
  H   H20       1.0  0.46467113144383615  0.41702328531384575  0.1900842342553517  1.0000
  H   H21       1.0  0.22067349354728782  0.20416895078039218  0.7936280711481984  1.0000
  H   H22       1.0  0.6776384937572998  0.27329405765880205  0.11284775253341196  1.0000
  H   H23       1.0  0.01667798226461039  0.6908976231810937  0.8280728330817622  1.0000
  H   H24       1.0  0.3051637924662741  0.04455502568444558  0.17317892596111764  1.0000
  H   H25       1.0  0.3172402291399691  0.9937941963392304  0.7098547034290945  1.0000
  H   H26       1.0  0.24761215305699105  0.5169941600479077  0.7628699368553669  1.0000
  H   H27       1.0  0.6959041661157526  0.2817922529321135  0.3964821537831895  1.0000
  H   H28       1.0  0.6399824611795424  0.9828218937396328  0.40525944402830305  1.0000
  H   H29       1.0  0.3038236570971762  0.41345615261899843  0.12088749090172975  1.0000
  H   H30       1.0  0.6315087653363561  0.8759522254646653  0.2597679211251105  1.0000
  H   H31       1.0  0.005635817860394396  0.15095763145925636  0.06918630280162569  1.0000
  H   H32       1.0  0.10141685106791677  0.868439857972454  0.6896600545753342  1.0000
  H   H33       1.0  0.7476612473789073  0.048075179805245075  0.8424292767516093  1.0000
  H   H34       1.0  0.24857294362175958  0.689722736412584  0.8533506776232258  1.0000
  H   H35       1.0  0.8133881545752857  0.7127594052700558  0.9850706191850096  1.0000
  H   H36       1.0  0.6818790476995243  0.13811681137631365  0.2948629491856565  1.0000
  C   C1        1.0  0.32454320309575013  0.1790129542887371  0.061958427406501926  1.0000
  C   C2        1.0  0.09566998882637266  0.8398688764325755  0.7376030635572589  1.0000
  C   C3        1.0  0.6415027495433491  0.03790813261102937  0.8233040031197163  1.0000
  C   C4        1.0  0.6772744393049592  0.15690116968062273  0.23995727532484787  1.0000
  C   C5        1.0  0.3600399325645111  0.7418457658529787  0.8860776400615364  1.0000
  C   C6        1.0  0.5343342390280552  0.014180084184616129  0.7393178151466772  1.0000
  C   C7        1.0  0.47100312435706093  0.7178376566478589  0.8902862254789949  1.0000
  C   C8        1.0  0.01997554863029161  0.7380056531704469  0.7196306534844225  1.0000
  C   C9        1.0  0.06654294482803637  0.11869174489206095  0.1884170990307439  1.0000
  C   C10       1.0  0.5754741968492991  0.5198189366015525  0.9252783743829339  1.0000
  C   C11       1.0  0.4518610972947242  0.42506180598410015  0.8731650654791565  1.0000
  C   C12       1.0  0.6972810063993791  0.25012776050806446  0.2369488557611491  1.0000
  C   C13       1.0  0.3400744575868514  0.43201120202054705  0.8125677207999544  1.0000
  C   C14       1.0  0.34414941937021115  0.5220787639361644  0.8100781394520595  1.0000
  C   C15       1.0  0.4677672157588473  0.6175996298763166  0.8693908282811194  1.0000
  C   C16       1.0  0.31887968097218067  0.8561932529864508  0.15545411640574255  1.0000
  C   C17       1.0  0.5837764743100848  0.6106272559048235  0.9230064580886791  1.0000
  C   C18       1.0  0.7338170095228164  0.6764048310955175  0.0018382380799267938  1.0000
  C   C19       1.0  0.7245558235684085  0.5736576667755457  0.004872980843636385  1.0000
  C   C20       1.0  0.9387559454449669  0.6416114497080442  0.6337430292721747  1.0000
  C   C21       1.0  0.7408056921100722  0.34832392696246456  0.31298596949947927  1.0000
  C   C22       1.0  0.8531551753159617  0.5367761505656218  0.38604956391025524  1.0000
  C   C23       1.0  0.4200539293303008  0.8660282109290234  0.23517355128456777  1.0000
  C   C24       1.0  0.7960411998083216  0.4429941267978703  0.3106547771700506  1.0000
  C   C25       1.0  0.7397565713061596  0.35274133624192666  0.3926257948015248  1.0000
  C   C26       1.0  0.799221337488639  0.4472856627411658  0.4717470484950894  1.0000
  C   C27       1.0  0.8594924084565748  0.5417063779667188  0.4691021343381366  1.0000
  C   C28       1.0  0.551829787037633  0.33503978500949205  0.9555376662746866  1.0000
  C   C29       1.0  0.9266237870655017  0.6350847073114493  0.5509405370343644  1.0000
  C   C30       1.0  0.8738479964611511  0.545723763641824  0.6325534701301976  1.0000
  C   C31       1.0  0.806644121681202  0.4524512993126704  0.555167836286884  1.0000
  C   C32       1.0  0.41763537054925587  0.8798361534430014  0.3203273512369478  1.0000
  C   C33       1.0  0.5364695666026549  0.9973123516317414  0.653835861990821  1.0000
  C   C34       1.0  0.4415079671941057  0.33641760593993536  0.887719800832393  1.0000
  C   C35       1.0  0.6674312266320611  0.02864271149233828  0.5735683846289988  1.0000
  C   C36       1.0  0.6645594124214609  0.0456196828316847  0.6540496636004747  1.0000
  C   C37       1.0  0.41332475156607984  0.9330192220309356  0.5704077446065341  1.0000
  C   C38       1.0  0.4124754731339733  0.9146003826346812  0.4866066891384406  1.0000
  C   C39       1.0  0.5424071407832969  0.9626406580576371  0.4876570861347957  1.0000
  C   C40       1.0  0.5315902692238764  0.8705295779044916  0.21760762289132174  1.0000
  C   C41       1.0  0.5411645358275408  0.9437671356325765  0.4036673742254636  1.0000
  C   C42       1.0  0.2894110266039718  0.8324129333461058  0.3200722021696976  1.0000
  C   C43       1.0  0.28722038247208553  0.8492934628723603  0.4007911170014467  1.0000
  C   C44       1.0  0.28468002372620294  0.33019177393062893  0.2028842574215162  1.0000
  C   C45       1.0  0.42047438881690613  0.006839894837021422  0.7555013696693607  1.0000
  C   C46       1.0  0.27307166525797305  0.23639981152844314  0.19511113785545586  1.0000
  C   C47       1.0  0.21987017075954177  0.19702279551410126  0.2517899896388656  1.0000
  C   C48       1.0  0.2092822876883531  0.2789587991354381  0.32452426924686517  1.0000
  C   C49       1.0  0.2594251213114447  0.37689292743581854  0.3402125937116338  1.0000
  C   C50       1.0  0.2996048879830581  0.40535027148393965  0.2841916619651812  1.0000
  C   C51       1.0  0.380526804586644  0.4938880693012635  0.2729649154199478  1.0000
  C   C52       1.0  0.3274785720975401  0.23810874251982025  0.8486054260117513  1.0000
  C   C53       1.0  0.36377555004491297  0.41231131020206385  0.18412338244858256  1.0000
  C   C54       1.0  0.6795736888965678  0.2276336249518351  0.14868360352250692  1.0000
  C   C55       1.0  0.31312995932268706  0.08074901292075506  0.1303107335776161  1.0000
  C   C56       1.0  0.5902587089200181  0.8141335027727405  0.9421418543381819  1.0000
  C   C57       1.0  0.3057841790918658  0.17182966069213282  0.13524395816930485  1.0000
  C   C58       1.0  0.05146371119160159  0.7489841971751118  0.80759829859047  1.0000
  C   C59       1.0  0.9779365665334296  0.1098125223766289  0.10512729992330368  1.0000
  C   C60       1.0  0.9723906267385444  0.04776749303856314  0.19950242816194233  1.0000
  N   N1        1.0  0.33993164489766053  0.0985270177068287  0.017694726676445845  1.0000
  N   N2        1.0  0.367647080923561  0.8576586792368489  0.09617088802490782  1.0000
  N   N3        1.0  0.5092460987141861  0.24577829214527455  0.9577768910520988  1.0000
  N   N4        1.0  0.500180656029997  0.865572410498956  0.13465025937176744  1.0000
  N   N5        1.0  0.36991850125237125  0.18595430438439545  0.8913863079826924  1.0000
  N   N6        1.0  0.6526705958741417  0.12909977347339208  0.10409493208022982  1.0000
  N   N7        1.0  0.3339075038030543  0.03851716466694198  0.060020896729199136  1.0000
  N   N8        1.0  0.4563753158750286  0.02430073242244636  0.8417746705408007  1.0000
  N   N9        1.0  0.5535274935563379  0.8900877208236294  0.9709915790874604  1.0000
  N   N10       1.0  0.1395624360704846  0.8481603518508294  0.8720782174903975  1.0000
  N   N11       1.0  0.8443231046725329  0.04020905313467439  0.07066707755362973  1.0000
  N   N12       1.0  0.8403049008145088  0.00017637554194035679  0.13021121147922093  1.0000
  N   N13       1.0  0.166953460619574  0.9047210426282459  0.8280854916931303  1.0000
  N   N14       1.0  0.5933052085133851  0.0437837226134973  0.8836693747505749  1.0000
  N   N15       1.0  0.4096847037986887  0.843741487650817  0.9345335437915806  1.0000
  N   N16       1.0  0.651341162222046  0.08592656020698536  0.1605590074886153  1.0000
  F   F1        1.0  0.9999759769575431  0.02380559808507601  0.2685472296292631  1.0000
  F   F2        1.0  0.2135832999891818  0.34372240518354863  0.7542381308233317  1.0000
  F   F3        1.0  0.9872874870833426  0.7241781831128334  0.5471656976233845  1.0000
  F   F4        1.0  0.5203882450972299  0.5631622429997875  0.3421932162289352  1.0000
