data_image0
_chemical_formula_structural       Zn2H24C32N8O8
_chemical_formula_sum              "Zn2 H24 C32 N8 O8"
_cell_length_a       7.28515376100411
_cell_length_b       10.88616871734858
_cell_length_c       11.579552182640711
_cell_angle_alpha    118.10321539876733
_cell_angle_beta     108.4817840736785
_cell_angle_gamma    89.72690829134

_space_group_name_H-M_alt    "P 1"
_space_group_IT_number       1

loop_
  _space_group_symop_operation_xyz
  'x, y, z'

loop_
  _atom_site_type_symbol
  _atom_site_label
  _atom_site_symmetry_multiplicity
  _atom_site_fract_x
  _atom_site_fract_y
  _atom_site_fract_z
  _atom_site_occupancy
  Zn  Zn1       1.0  0.055886541447740946  0.806389872479109  0.6124419961650106  1.0000
  Zn  Zn2       1.0  0.944111433273726  0.19361100429731692  0.3875606074269627  1.0000
  H   H1        1.0  0.4841437242486112  0.9418536026063937  0.8320364069542027  1.0000
  H   H2        1.0  0.8473090165645732  0.8903851247027037  0.8320066815342957  1.0000
  H   H3        1.0  0.5158583037678428  0.05814616970733511  0.16796392436211963  1.0000
  H   H4        1.0  0.15268895815688677  0.10961575207372225  0.16799592205767772  1.0000
  H   H5        1.0  0.6779921815708365  0.8360191932391742  0.007835468222808029  1.0000
  H   H6        1.0  0.8291122643946244  0.17183360868920527  0.007617656040736291  1.0000
  H   H7        1.0  0.3220072236549428  0.16398165754852564  0.9921656789717802  1.0000
  H   H8        1.0  0.17089000956143252  0.8281672003603191  0.9923814479786304  1.0000
  H   H9        1.0  0.13711441088997137  0.5644864400795273  0.7140108845260758  1.0000
  H   H10       1.0  0.07712357511071131  0.14979407382051593  0.714289247893511  1.0000
  H   H11       1.0  0.8628866862230284  0.4355154419337809  0.2859893182132752  1.0000
  H   H12       1.0  0.9228743918890959  0.8502067927166411  0.28571248607891436  1.0000
  H   H13       1.0  0.5601912419449351  0.7619503628723552  0.1514663120548648  1.0000
  H   H14       1.0  0.09122130322862891  0.3893910728491364  0.15149997337595525  1.0000
  H   H15       1.0  0.4398093324022413  0.23804940471229238  0.8485328668001914  1.0000
  H   H16       1.0  0.9087832394320474  0.6106129535295325  0.8485052974093179  1.0000
  H   H17       1.0  0.6379099913983384  0.6098515614615609  0.26074391982145073  1.0000
  H   H18       1.0  0.12294351712430542  0.6507100902612565  0.2607419340009827  1.0000
  H   H19       1.0  0.36208742967068747  0.3901471599291357  0.7392541814080359  1.0000
  H   H20       1.0  0.8770549803629781  0.3492929009438301  0.7392616934752853  1.0000
  H   H21       1.0  0.39992046592711017  0.8567512691286153  0.36742498552570174  1.0000
  H   H22       1.0  0.46720580326245914  0.5101336426455633  0.36704419390147797  1.0000
  H   H23       1.0  0.60006734979266  0.14323793416624403  0.6325644851572463  1.0000
  H   H24       1.0  0.5327947556414189  0.48986610446054624  0.6329532457144823  1.0000
  C   C1        1.0  0.44273109007921374  0.8484841156046274  0.8353154323635439  1.0000
  C   C2        1.0  0.8921540593579356  0.9870204670245502  0.8353273441369354  1.0000
  C   C3        1.0  0.5572711915985026  0.151516703684166  0.16468454127537063  1.0000
  C   C4        1.0  0.10784850686764004  0.012981440196377  0.1646757503027771  1.0000
  C   C5        1.0  0.5388288768382454  0.7972914011652393  0.9214579981408734  1.0000
  C   C6        1.0  0.8821130712865755  0.12426740237393832  0.9213714695769113  1.0000
  C   C7        1.0  0.4611734202827692  0.202709438602092  0.0785437147371439  1.0000
  C   C8        1.0  0.11788950266065967  0.8757345150862506  0.07863249448234919  1.0000
  C   C9        1.0  0.2567703256439061  0.6525859197927063  0.767806927467966  1.0000
  C   C10       1.0  0.0110863923174307  0.11547392310149722  0.7680127123241435  1.0000
  C   C11       1.0  0.7432305178078382  0.3474149152455439  0.23219363294878545  1.0000
  C   C12       1.0  0.988911828343632  0.8845279904107247  0.23198866397088133  1.0000
  C   C13       1.0  0.45990750023562305  0.5843751710403354  0.9390823385996114  1.0000
  C   C14       1.0  0.9791897271813925  0.3547810422960965  0.9390914605598795  1.0000
  C   C15       1.0  0.5400916358855881  0.4156246122937618  0.06091742703328861  1.0000
  C   C16       1.0  0.02081573093943228  0.6452208539044477  0.06091219956326201  1.0000
  C   C17       1.0  0.5371952044561185  0.6473406042403412  0.08508853880969276  1.0000
  C   C18       1.0  0.04797946906460744  0.4376637484602457  0.08509743667566745  1.0000
  C   C19       1.0  0.4628048471252414  0.3526570489156456  0.9149096161610758  1.0000
  C   C20       1.0  0.9520320342296034  0.5623391829138882  0.9149078667564795  1.0000
  C   C21       1.0  0.5784636209085366  0.5623950326501161  0.1467298241899116  1.0000
  C   C22       1.0  0.06828349485878256  0.5841779764657746  0.14674939881113871  1.0000
  C   C23       1.0  0.42153406154340456  0.437604745954907  0.8532687889817154  1.0000
  C   C24       1.0  0.9317236860358736  0.4158249919174537  0.8532567953349641  1.0000
  C   C25       1.0  0.3166744785751661  0.9326933286784396  0.55564943512249  1.0000
  C   C26       1.0  0.7385336300678633  0.6230786092531346  0.5553829093975722  1.0000
  C   C27       1.0  0.6833204355712895  0.06730114888658531  0.4443445962575936  1.0000
  C   C28       1.0  0.2614674747667893  0.3769232829994424  0.4446181629613265  1.0000
  C   C29       1.0  0.4310153366224016  0.9438419432932367  0.4736891634752569  1.0000
  C   C30       1.0  0.5424774246559566  0.5297151142558792  0.47349157685809473  1.0000
  C   C31       1.0  0.5689739482099513  0.056147285209235114  0.5263031989080602  1.0000
  C   C32       1.0  0.4575202500743318  0.47028465410987513  0.5265061666939844  1.0000
  N   N1        1.0  0.26663336743201443  0.7581552326746106  0.7410213771525065  1.0000
  N   N2        1.0  0.9742554673967733  0.9831333583046132  0.7411955113888381  1.0000
  N   N3        1.0  0.733366299176673  0.24184667532742316  0.2589802819842292  1.0000
  N   N4        1.0  0.025743691889403005  0.016866455747297903  0.2588068631027056  1.0000
  N   N5        1.0  0.4201190871346014  0.6725604295587075  0.8772575969672474  1.0000
  N   N6        1.0  0.956975552207503  0.2048364711220216  0.8773022122175008  1.0000
  N   N7        1.0  0.5798812258296665  0.3274382808116131  0.12274106994566844  1.0000
  N   N8        1.0  0.04302820630444161  0.7951643836136599  0.12270152274133056  1.0000
  O   O1        1.0  0.356603068648596  0.023596142814405103  0.681845101346056  1.0000
  O   O2        1.0  0.8250024754777316  0.6583958078661498  0.6816118441039266  1.0000
  O   O3        1.0  0.6434004902969762  0.9763982607324165  0.3181471486061085  1.0000
  O   O4        1.0  0.17499979847832495  0.3416050011833749  0.3183872599154399  1.0000
  O   O5        1.0  0.17608659135699878  0.8230835760751136  0.4866299198004073  1.0000
  O   O6        1.0  0.8097110595131344  0.6639557664866801  0.4863785046107907  1.0000
  O   O7        1.0  0.8239108297120271  0.17691514531557573  0.5133681814290725  1.0000
  O   O8        1.0  0.19028543837409026  0.33604507484285767  0.5136203376612728  1.0000
