data_image0
_chemical_formula_structural       Zn10H136C120N16Cl4O28
_chemical_formula_sum              "Zn10 H136 C120 N16 Cl4 O28"
_cell_length_a       11.30285939415365
_cell_length_b       12.742426030025571
_cell_length_c       23.89111958753514
_cell_angle_alpha    90.0001044238756
_cell_angle_beta     104.17913198734553
_cell_angle_gamma    89.9997779625112

_space_group_name_H-M_alt    "P 1"
_space_group_IT_number       1

loop_
  _space_group_symop_operation_xyz
  'x, y, z'

loop_
  _atom_site_type_symbol
  _atom_site_label
  _atom_site_symmetry_multiplicity
  _atom_site_fract_x
  _atom_site_fract_y
  _atom_site_fract_z
  _atom_site_occupancy
  Zn  Zn1       1.0  0.40340062497993057  0.481901797977393  0.31428474996778993  1.0000
  Zn  Zn2       1.0  0.5965991916711815  0.9819033680570896  0.18571628171899596  1.0000
  Zn  Zn3       1.0  0.5965984071455495  0.5180992865141931  0.685716767408316  1.0000
  Zn  Zn4       1.0  0.40340254570137546  0.0180969316490405  0.8142846901874281  1.0000
  Zn  Zn5       1.0  0.8068556940085756  0.9351422395235287  0.38719057137153373  1.0000
  Zn  Zn6       1.0  0.1931470534224218  0.4351461976515977  0.11281073216966321  1.0000
  Zn  Zn7       1.0  0.19314964503086426  0.06486041451472598  0.6128095331255565  1.0000
  Zn  Zn8       1.0  0.806849241518087  0.5648580259638152  0.8871904899730939  1.0000
  Zn  Zn9       1.0  8.056280478e-07  0.5000036872883058  7.421783863000001e-07  1.0000
  Zn  Zn10      1.0  7.11781851949658e-06  0.9999940959735765  0.5000016122320758  1.0000
  H   H1        1.0  0.8446666737434896  0.23285093221883094  0.192138993516231  1.0000
  H   H2        1.0  0.1553277234809514  0.7328512834831995  0.3078595433550362  1.0000
  H   H3        1.0  0.1553331270745844  0.7671509370451091  0.807858839105144  1.0000
  H   H4        1.0  0.8446703483570417  0.26714744666798396  0.6921406145536723  1.0000
  H   H5        1.0  0.0233879893480236  0.3541777788448854  0.2156337731599081  1.0000
  H   H6        1.0  0.9766021441925901  0.8541768166113997  0.2843614882676704  1.0000
  H   H7        1.0  0.9766090742899536  0.6458248752031466  0.7843637642275285  1.0000
  H   H8        1.0  0.0233930946759884  0.14581798964027118  0.7156358522950513  1.0000
  H   H9        1.0  0.0444820988015167  0.3132925862574679  0.39697781373129  1.0000
  H   H10       1.0  0.9555200012662439  0.8132902965111197  0.10301702519355165  1.0000
  H   H11       1.0  0.9555176700819102  0.6867100677850216  0.6030191781866565  1.0000
  H   H12       1.0  0.044480680026254  0.1867045097308377  0.8969800651338178  1.0000
  H   H13       1.0  0.8681102248894986  0.19087332135823937  0.37311519972127644  1.0000
  H   H14       1.0  0.13189343814462262  0.6908700000421816  0.12688345956994604  1.0000
  H   H15       1.0  0.1318887114336604  0.8091293326890605  0.6268837955443588  1.0000
  H   H16       1.0  0.8681091637309705  0.30912559098102577  0.8731163496912444  1.0000
  H   H17       1.0  0.1323252722445218  0.48421261267994703  0.29067357879771555  1.0000
  H   H18       1.0  0.8676733669818477  0.984214122256688  0.20932063000412887  1.0000
  H   H19       1.0  0.8676781142787957  0.5157892565756937  0.7093229660619259  1.0000
  H   H20       1.0  0.132325553386174  0.015783038330532396  0.7906779449083176  1.0000
  H   H21       1.0  0.16585857735295656  0.4485091184891843  0.3645516156482955  1.0000
  H   H22       1.0  0.8341366399689394  0.9485081377699415  0.1354442834143087  1.0000
  H   H23       1.0  0.8341411755623367  0.5514943203325301  0.6354449559180467  1.0000
  H   H24       1.0  0.16586047157831982  0.051489807600660194  0.8645545150273862  1.0000
  H   H25       1.0  0.2591230968884375  0.2158420946776332  0.3500948786875569  1.0000
  H   H26       1.0  0.7408750522668299  0.7158414813215258  0.14990488402798977  1.0000
  H   H27       1.0  0.7408749430116613  0.7841589898119208  0.6499044385181209  1.0000
  H   H28       1.0  0.2591202185250268  0.28415803361099995  0.850093297239532  1.0000
  H   H29       1.0  0.3058179925005007  0.31838222840014646  0.40031417215600135  1.0000
  H   H30       1.0  0.6941751541651016  0.8183792498711356  0.09968472942151153  1.0000
  H   H31       1.0  0.694178206647436  0.6816188560914964  0.5996845278751055  1.0000
  H   H32       1.0  0.30582107692073623  0.1816194802821371  0.900314811312626  1.0000
  H   H33       1.0  0.482332562144279  0.20387389298416986  0.39313643068234694  1.0000
  H   H34       1.0  0.5176657164010763  0.7038715413110878  0.106865427807584  1.0000
  H   H35       1.0  0.5176655256586074  0.7961256219476095  0.6068641475783708  1.0000
  H   H36       1.0  0.4823313791829236  0.29612483449899674  0.8931329502819099  1.0000
  H   H37       1.0  0.45058245855119583  0.22769581471518302  0.31835977679741495  1.0000
  H   H38       1.0  0.5494175142061265  0.72769674725577  0.1816414497237062  1.0000
  H   H39       1.0  0.5494174540389594  0.7723029154339042  0.6816409982858576  1.0000
  H   H40       1.0  0.45057868494831144  0.2723011981162173  0.8183572503066118  1.0000
  H   H41       1.0  0.6734777613478187  0.2718291587207133  0.3516502380782854  1.0000
  H   H42       1.0  0.3265156738506931  0.7718346631734149  0.1483511623351319  1.0000
  H   H43       1.0  0.32652211930930963  0.7281695714270028  0.6483496963013665  1.0000
  H   H44       1.0  0.6734769395919997  0.22816642132653436  0.8516488254577015  1.0000
  H   H45       1.0  0.6947872012709196  0.4095580116760188  0.3601892677436781  1.0000
  H   H46       1.0  0.3052119865479739  0.9095643446911478  0.13981120900837854  1.0000
  H   H47       1.0  0.3052126953543493  0.5904399336924654  0.6398110869875923  1.0000
  H   H48       1.0  0.6947841806685631  0.09043595501920977  0.8601866503189087  1.0000
  H   H49       1.0  0.5286102393654489  0.29740522147279336  0.25613595909344167  1.0000
  H   H50       1.0  0.4713911418117718  0.797408200836621  0.24386213629197337  1.0000
  H   H51       1.0  0.4713887129290981  0.7025950782354542  0.743863456523414  1.0000
  H   H52       1.0  0.5286050413680315  0.20259366843425397  0.7561361433875149  1.0000
  H   H53       1.0  0.6692057764026913  0.3601504937414147  0.258371771324633  1.0000
  H   H54       1.0  0.3307946082160669  0.8601547302355422  0.2416308808929983  1.0000
  H   H55       1.0  0.3307922954288003  0.6398513755294244  0.741628386584857  1.0000
  H   H56       1.0  0.6692034476456712  0.1398487085944353  0.7583688566650723  1.0000
  H   H57       1.0  0.6417464926591023  0.576110277534589  0.30343612534186093  1.0000
  H   H58       1.0  0.3582522829432619  0.07611317120119308  0.19656482856247248  1.0000
  H   H59       1.0  0.35825257140102446  0.4238900221784546  0.6965662327376736  1.0000
  H   H60       1.0  0.6417484622006597  0.9238886980627256  0.8034339431739072  1.0000
  H   H61       1.0  0.5266781259768082  0.6181588796949028  0.2432511872269175  1.0000
  H   H62       1.0  0.47331772238179326  0.11816079981559818  0.2567490721160155  1.0000
  H   H63       1.0  0.47331917716535077  0.38184063524374773  0.7567526554369126  1.0000
  H   H64       1.0  0.5266829429279483  0.8818418542248165  0.7432475978615047  1.0000
  H   H65       1.0  0.5506395054100253  0.49122287687171007  0.1457651318620421  1.0000
  H   H66       1.0  0.44935756740142807  0.9912247360180472  0.35423644995495357  1.0000
  H   H67       1.0  0.4493485939534665  0.5087852706564675  0.8542356249311069  1.0000
  H   H68       1.0  0.550649500609964  0.0087849810325409  0.645761329255791  1.0000
  H   H69       1.0  0.7045436829692379  0.4708347183671008  0.0876772081779151  1.0000
  H   H70       1.0  0.2954534902269542  0.9708357302079519  0.4123247837963647  1.0000
  H   H71       1.0  0.2954435199776881  0.5291687204836747  0.9123238705544879  1.0000
  H   H72       1.0  0.7045572752715116  0.02916613903999379  0.5876746501133641  1.0000
  H   H73       1.0  0.9880235387314042  0.5717673775318347  0.2316109812921354  1.0000
  H   H74       1.0  0.011973334277918496  0.0717654184384102  0.2683872515058567  1.0000
  H   H75       1.0  0.011969026823123802  0.4282282135066635  0.7683877454438888  1.0000
  H   H76       1.0  0.9880247854677362  0.9282293878152568  0.7316141674573019  1.0000
  H   H77       1.0  0.8350280371165725  0.5981952009866375  0.28986724808912373  1.0000
  H   H78       1.0  0.1649724878011156  0.09819566128959417  0.21013433403188495  1.0000
  H   H79       1.0  0.16497013052536152  0.40180117482891115  0.7101354319298636  1.0000
  H   H80       1.0  0.8350237752096207  0.9018069927646264  0.7898660474068535  1.0000
  H   H81       1.0  0.6377411572598036  0.356342341304824  0.4535365273776863  1.0000
  H   H82       1.0  0.3622546811639538  0.8563458088367993  0.046465630878742614  1.0000
  H   H83       1.0  0.36226147655368385  0.6436508953800129  0.546464122586535  1.0000
  H   H84       1.0  0.637738828713175  0.14365135176150548  0.953534034972677  1.0000
  H   H85       1.0  0.4809055496353025  0.3763073997721591  0.44750994299722896  1.0000
  H   H86       1.0  0.5190919830191091  0.8763064284736612  0.052491161008177314  1.0000
  H   H87       1.0  0.5190980125261433  0.6236913303713647  0.5524912257315577  1.0000
  H   H88       1.0  0.480903303740881  0.1236923016796325  0.9475074406109628  1.0000
  H   H89       1.0  0.5955627737411718  0.5416697967688292  0.47554341339213846  1.0000
  H   H90       1.0  0.40443438354439104  0.041671164608061376  0.024459007875663002  1.0000
  H   H91       1.0  0.4044408203598024  0.45832579425641023  0.5244585960394874  1.0000
  H   H92       1.0  0.5955609830481591  0.9583275655486572  0.9755416955025356  1.0000
  H   H93       1.0  0.6543203773947964  0.5368832185097218  0.4134263113636508  1.0000
  H   H94       1.0  0.3456823698629705  0.03688578225564498  0.08657922009023622  1.0000
  H   H95       1.0  0.3456859698511607  0.4631123725120289  0.5865764136539228  1.0000
  H   H96       1.0  0.654312996732827  0.9631113783412528  0.9134214832875642  1.0000
  H   H97       1.0  0.4320684406505819  0.7054479278362392  0.3442651518735716  1.0000
  H   H98       1.0  0.5679370985828811  0.20544761302008396  0.1557366539913048  1.0000
  H   H99       1.0  0.5679461021496479  0.29455472619154216  0.6557380384963524  1.0000
  H   H100      1.0  0.4320572917475474  0.7945526866951124  0.8442622695686596  1.0000
  H   H101      1.0  0.5782024236898877  0.7026288313024337  0.3928398828913232  1.0000
  H   H102      1.0  0.4218022467522146  0.20263042021651498  0.10716266385669831  1.0000
  H   H103      1.0  0.4218148722715753  0.29736597492271943  0.6071640230625948  1.0000
  H   H104      1.0  0.5781885578810916  0.797365955607418  0.8928375474640191  1.0000
  H   H105      1.0  0.2511665385676451  0.6715740916893295  0.40049014084822704  1.0000
  H   H106      1.0  0.7488382923909357  0.17157453834182224  0.09951323107539883  1.0000
  H   H107      1.0  0.7488471397474256  0.3284246384423282  0.5995142121647775  1.0000
  H   H108      1.0  0.2511534246335714  0.828422622260632  0.9004870786568874  1.0000
  H   H109      1.0  0.1582988664214895  0.7677483618913356  0.47014574854904384  1.0000
  H   H110      1.0  0.8417046379693642  0.2677498249862253  0.02985715269989699  1.0000
  H   H111      1.0  0.8417138516028472  0.23224958345974034  0.5298572449969542  1.0000
  H   H112      1.0  0.15828893577056394  0.732248905174643  0.9701441945591682  1.0000
  H   H113      1.0  0.49492810265939363  0.9306964619546676  0.5364882374834893  1.0000
  H   H114      1.0  0.5050756239742212  0.43069426588462534  0.9635118167134992  1.0000
  H   H115      1.0  0.5050864401457104  0.06930383773336499  0.46351495288585204  1.0000
  H   H116      1.0  0.4949196787555294  0.5693028947095228  0.036487205257060416  1.0000
  H   H117      1.0  0.5912735289968366  0.8339618555683611  0.4683723703981003  1.0000
  H   H118      1.0  0.40873054976300677  0.3339648026207981  0.031628980962857184  1.0000
  H   H119      1.0  0.4087410776824426  0.1660345202228442  0.5316325013775015  1.0000
  H   H120      1.0  0.5912610714575521  0.666034712317284  0.9683688066591503  1.0000
  H   H121      1.0  0.25303278147824665  0.3377496875127548  0.2737761630765974  1.0000
  H   H122      1.0  0.746968464585926  0.8377532359639301  0.22622279318527927  1.0000
  H   H123      1.0  0.7469707008473918  0.6622506121871721  0.726222903893529  1.0000
  H   H124      1.0  0.25302957532066733  0.16224470940596802  0.7737765240196096  1.0000
  H   H125      1.0  0.45742331458946234  0.45105969644760074  0.22063897881951536  1.0000
  H   H126      1.0  0.5425757014035638  0.9510609835915529  0.27936151868259884  1.0000
  H   H127      1.0  0.5425738927471216  0.5489429576065987  0.7793623417342276  1.0000
  H   H128      1.0  0.45742144207184054  0.04893931612016189  0.7206381204633061  1.0000
  H   H129      1.0  0.3961122883396086  0.5568374716196798  0.4124413594133217  1.0000
  H   H130      1.0  0.6038884078239375  0.056835233413757194  0.0875602020276673  1.0000
  H   H131      1.0  0.603896780105309  0.44316439763652216  0.5875612404881423  1.0000
  H   H132      1.0  0.3961042375582764  0.943162711967908  0.912440626468012  1.0000
  H   H133      1.0  0.046756561424850004  0.3224252484285017  0.041448640961938614  1.0000
  H   H134      1.0  0.9532402180795005  0.8224186781683255  0.4585506562817444  1.0000
  H   H135      1.0  0.9532387412902779  0.6775789751848719  0.9585503810103833  1.0000
  H   H136      1.0  0.04675318004341729  0.17757298896578524  0.5414460671056247  1.0000
  C   C1        1.0  0.7383160174489377  0.1318225981626853  0.266845727821064  1.0000
  C   C2        1.0  0.26168516886440335  0.6318223331508649  0.23315302706254937  1.0000
  C   C3        1.0  0.2616847436631247  0.8681784863220087  0.7331534642669272  1.0000
  C   C4        1.0  0.7383174329965597  0.36818032089156105  0.7668467822004105  1.0000
  C   C5        1.0  0.8442929499579178  0.20594254991007688  0.28107337948915057  1.0000
  C   C6        1.0  0.1557070011075581  0.7059410288611331  0.21892489369179205  1.0000
  C   C7        1.0  0.1557013924599815  0.7940640280423776  0.7189242830169463  1.0000
  C   C8        1.0  0.8442974095741675  0.2940608403979111  0.7810746920419123  1.0000
  C   C9        1.0  0.8893290423761256  0.250990334705598  0.2368550736849926  1.0000
  C   C10       1.0  0.1106679849865557  0.7509914716209211  0.263142926786891  1.0000
  C   C11       1.0  0.11066526811199401  0.7490146736856571  0.7631417481170857  1.0000
  C   C12       1.0  0.8893346328490495  0.2490072585226172  0.7368573028268913  1.0000
  C   C13       1.0  0.988792067612813  0.31846007076742905  0.25001215178969016  1.0000
  C   C14       1.0  0.0112045526626474  0.8184607178132379  0.24998251960323614  1.0000
  C   C15       1.0  0.011204083630715903  0.6815433680619024  0.7499852871865686  1.0000
  C   C16       1.0  0.9887906702329161  0.18153722755740634  0.7500144006084639  1.0000
  C   C17       1.0  0.0443608151469377  0.3425772824316481  0.3077141600669364  1.0000
  C   C18       1.0  0.95563760988594  0.8425800035446894  0.1922828219672041  1.0000
  C   C19       1.0  0.9556362804175648  0.6574285107374037  0.6922842180249091  1.0000
  C   C20       1.0  0.0443586212015177  0.15741794182866903  0.8077167187667414  1.0000
  C   C21       1.0  8.846339298430177e-05  0.29677689221359316  0.3518252039270139  1.0000
  C   C22       1.0  0.9999156416021789  0.796777743109402  0.1481727660260148  1.0000
  C   C23       1.0  0.9999086162033849  0.7032296857346835  0.6481727538132206  1.0000
  C   C24       1.0  8.599998105300599e-05  0.20321784791313746  0.8518256837683611  1.0000
  C   C25       1.0  0.9005104321130943  0.22881731668000058  0.338772924695384  1.0000
  C   C26       1.0  0.0994957471239175  0.7288157919272747  0.16122436739561155  1.0000
  C   C27       1.0  0.09948475882670488  0.7711916156080606  0.6612231548154314  1.0000
  C   C28       1.0  0.9005068387737865  0.271185292554641  0.8387750215151403  1.0000
  C   C29       1.0  0.1504290099585432  0.41725599466357716  0.3203734218347094  1.0000
  C   C30       1.0  0.8495708029274383  0.9172566805786388  0.1796204315474129  1.0000
  C   C31       1.0  0.849571639387932  0.5827450898163206  0.6796228277906026  1.0000
  C   C32       1.0  0.1504308386541666  0.08273969522381458  0.820378018247162  1.0000
  C   C33       1.0  0.3140050321237808  0.2880268560863469  0.35825879334944943  1.0000
  C   C34       1.0  0.6859900650043826  0.7880279719585771  0.14174028987380183  1.0000
  C   C35       1.0  0.6859939201723931  0.7119726588419866  0.6417406222672073  1.0000
  C   C36       1.0  0.3140042774330141  0.21196918863491016  0.8582573726299433  1.0000
  C   C37       1.0  0.4464353576314224  0.2628830688086339  0.3596753966660913  1.0000
  C   C38       1.0  0.5535617322561208  0.7628838471468382  0.14032555221488965  1.0000
  C   C39       1.0  0.5535627301730841  0.7371156613432318  0.6403251815944275  1.0000
  C   C40       1.0  0.4464344828615765  0.23711566778566603  0.8596735681676364  1.0000
  C   C41       1.0  0.6280673761078361  0.3484386496616523  0.3416454128127456  1.0000
  C   C42       1.0  0.37193025595814794  0.8484432482327904  0.15835525690754085  1.0000
  C   C43       1.0  0.37193253648556623  0.6515585109276073  0.6583553622701361  1.0000
  C   C44       1.0  0.6280650467618542  0.15155862104084147  0.8416437650641913  1.0000
  C   C45       1.0  0.5882872721404125  0.36211104223560386  0.276168216049733  1.0000
  C   C46       1.0  0.41171118377674526  0.8621149421888248  0.2238317182144912  1.0000
  C   C47       1.0  0.4117126723827695  0.637887687914855  0.7238333997371671  1.0000
  C   C48       1.0  0.5882813657966537  0.1378877118682098  0.7761665881714921  1.0000
  C   C49       1.0  0.5930533506193498  0.5553222504490448  0.25915100777809397  1.0000
  C   C50       1.0  0.4069446146256083  0.05532669758111548  0.240850257672804  1.0000
  C   C51       1.0  0.4069430401234796  0.4446804036106541  0.7408527364751339  1.0000
  C   C52       1.0  0.5930560826122786  0.9446783108004054  0.7591472530089263  1.0000
  C   C53       1.0  0.6834450897545424  0.5443994671225311  0.22244497274054714  1.0000
  C   C54       1.0  0.3165538331126214  0.04440199288898582  0.27755638565972873  1.0000
  C   C55       1.0  0.31654665918836133  0.4556047565005201  0.7775561776971287  1.0000
  C   C56       1.0  0.6834478403776316  0.9556061546135411  0.7224429048414082  1.0000
  C   C57       1.0  0.6466549030046522  0.5089728978336366  0.16508638746249463  1.0000
  C   C58       1.0  0.3533441665465062  0.0089747076702693  0.3349149532239082  1.0000
  C   C59       1.0  0.35333503712237047  0.49102975623304695  0.8349149865038401  1.0000
  C   C60       1.0  0.6466602281605915  0.9910310854876554  0.6650842121589664  1.0000
  C   C61       1.0  0.73219112964172  0.49712016530154546  0.13233638864297606  1.0000
  C   C62       1.0  0.2678076956369467  0.997122689686158  0.3676641318902228  1.0000
  C   C63       1.0  0.2678005873779057  0.5028793496406507  0.8676639210899071  1.0000
  C   C64       1.0  0.7321985398271806  0.0028807491299360994  0.6323356506666331  1.0000
  C   C65       1.0  0.9479126182484165  0.500049361869152  0.12132101585686436  1.0000
  C   C66       1.0  0.0520836872180084  4.528537962759999e-05  0.3786783437248147  1.0000
  C   C67       1.0  0.052076345621358704  0.4999525074162746  0.8786785782906537  1.0000
  C   C68       1.0  0.9479228575698713  0.9999531332009182  0.6213226734094804  1.0000
  C   C69       1.0  0.8561488849843072  0.51785466482994  0.15652229113017313  1.0000
  C   C70       1.0  0.1438492194329442  0.0178564340210698  0.3434785352340128  1.0000
  C   C71       1.0  0.1438437604076555  0.4821385718722411  0.8434785373643197  1.0000
  C   C72       1.0  0.8561552231866826  0.982143080899604  0.6565218912027221  1.0000
  C   C73       1.0  0.8922866593527272  0.5541248727071562  0.2133307575354522  1.0000
  C   C74       1.0  0.10771220728517508  0.05412500312477421  0.286670185375229  1.0000
  C   C75       1.0  0.1077032328845036  0.4458730726779975  0.7866693553742792  1.0000
  C   C76       1.0  0.8922914027709296  0.9458760813605521  0.7133322444095784  1.0000
  C   C77       1.0  0.8065068968160958  0.5683138948897976  0.24574554081220876  1.0000
  C   C78       1.0  0.19349282346305333  0.06831519217963938  0.25425550760481747  1.0000
  C   C79       1.0  0.19348757335013994  0.43168483526899587  0.7542554845064161  1.0000
  C   C80       1.0  0.8065079695771545  0.9316882466461677  0.7457445251873909  1.0000
  C   C81       1.0  0.5560875885705912  0.3962696843452846  0.4275822602403636  1.0000
  C   C82       1.0  0.4439089650004391  0.8962706067915676  0.0724191756873225  1.0000
  C   C83       1.0  0.4439122920914187  0.6037266914626896  0.5724176741386984  1.0000
  C   C84       1.0  0.5560872980184256  0.1037281233630765  0.9275812057504427  1.0000
  C   C85       1.0  0.5754239867898149  0.5150107805836015  0.4301782644845675  1.0000
  C   C86       1.0  0.42457595419198657  0.015010663890372198  0.06982275727993678  1.0000
  C   C87       1.0  0.4245832089829094  0.484984810434021  0.5698228775371421  1.0000
  C   C88       1.0  0.5754175556851352  0.9849864967079325  0.9301769085714897  1.0000
  C   C89       1.0  0.48158051555486026  0.6840100851298344  0.3883388413378982  1.0000
  C   C90       1.0  0.5184242479430594  0.1840121442650755  0.1116641164524594  1.0000
  C   C91       1.0  0.5184322982750444  0.3159847211056998  0.6116666743181797  1.0000
  C   C92       1.0  0.4815683335779823  0.8159834467741122  0.888335030635382  1.0000
  C   C93       1.0  0.4289853971677928  0.7438191090991066  0.43093810559717133  1.0000
  C   C94       1.0  0.571018158399589  0.24382162907968308  0.0690635226316942  1.0000
  C   C95       1.0  0.5710273687576972  0.25617805147410877  0.5690661490040584  1.0000
  C   C96       1.0  0.42897256639790976  0.756176316300646  0.9309345869303558  1.0000
  C   C97       1.0  0.3064105962650245  0.7262214144489502  0.43148749052742374  1.0000
  C   C98       1.0  0.6935930641005328  0.22622272938207993  0.06851496960570815  1.0000
  C   C99       1.0  0.6936049387687221  0.27377731568129343  0.5685179000119619  1.0000
  C   C100      1.0  0.3063967642722716  0.7737744312204172  0.9314834618965764  1.0000
  C   C101      1.0  0.2534434432171224  0.7799554503438555  0.46972217967379504  1.0000
  C   C102      1.0  0.7465636602045649  0.2799556700832467  0.030281121324030415  1.0000
  C   C103      1.0  0.7465747810906789  0.2200456341199057  0.5302822450448802  1.0000
  C   C104      1.0  0.25342986563745035  0.720042275295654  0.9697189648793981  1.0000
  C   C105      1.0  0.3211363831985281  0.8537686594122743  0.5080968306826606  1.0000
  C   C106      1.0  0.678869534631744  0.3537691054667961  0.9919046429283899  1.0000
  C   C107      1.0  0.6788753745318274  0.14623007071804744  0.4919048033967215  1.0000
  C   C108      1.0  0.321127608850162  0.646228055125263  0.008094996216740901  1.0000
  C   C109      1.0  0.2585248070208763  0.913418383570274  0.5468113121387432  1.0000
  C   C110      1.0  0.7414826407299415  0.4134129912042396  0.9531891270637163  1.0000
  C   C111      1.0  0.741494185963269  0.08659133346497327  0.45318942782716226  1.0000
  C   C112      1.0  0.2585145187168507  0.5865849541684155  0.04681093243341652  1.0000
  C   C113      1.0  0.44292138571037026  0.8721621218295965  0.5073035972409414  1.0000
  C   C114      1.0  0.5570817028198009  0.3721614167273231  0.9926971699808151  1.0000
  C   C115      1.0  0.5570895234899567  0.12783817786468177  0.4926996198347028  1.0000
  C   C116      1.0  0.442914480369751  0.6278357438640682  0.007301109697493789  1.0000
  C   C117      1.0  0.49684323658518537  0.817491842098114  0.46920453519205557  1.0000
  C   C118      1.0  0.5031609103753568  0.317491324874119  0.030796807932837615  1.0000
  C   C119      1.0  0.5031740913011831  0.18250688802798  0.5308002114664632  1.0000
  C   C120      1.0  0.49683162324452457  0.6825050509429218  0.969201078099765  1.0000
  N   N1        1.0  0.522804994290368  0.3583388719943627  0.3676448054897321  1.0000
  N   N2        1.0  0.4771926446959185  0.8583375296651636  0.13235713023473045  1.0000
  N   N3        1.0  0.4771957987628356  0.6416582885921328  0.6323552273009058  1.0000
  N   N4        1.0  0.5228026740019729  0.1416588461497597  0.8676423120874406  1.0000
  N   N5        1.0  0.26700634422505237  0.36986606611807826  0.314644193005151  1.0000
  N   N6        1.0  0.732992896183859  0.8698663846154702  0.18535332143628844  1.0000
  N   N7        1.0  0.7329934725627824  0.6301342335867235  0.6853540599676436  1.0000
  N   N8        1.0  0.2670041993968937  0.13013156075444235  0.8146450566535961  1.0000
  N   N9        1.0  0.5181356466650229  0.4601191591582321  0.2601738030522328  1.0000
  N   N10       1.0  0.48186422824701935  0.9601189499663151  0.2398263770389165  1.0000
  N   N11       1.0  0.4818634173918568  0.5398827101146394  0.7398285550276924  1.0000
  N   N12       1.0  0.5181319868658106  0.03988291930593139  0.7601727433441995  1.0000
  N   N13       1.0  0.4679705836522672  0.5679639272138814  0.3939276489237714  1.0000
  N   N14       1.0  0.5320355248291122  0.0679635666029839  0.10607408819750225  1.0000
  N   N15       1.0  0.5320384688293912  0.4320363724818107  0.6060745306254846  1.0000
  N   N16       1.0  0.4679598258001718  0.9320335939932248  0.8939261948284882  1.0000
  Cl  Cl1       1.0  0.7036195244986984  0.8165447922162982  0.32029056552067914  1.0000
  Cl  Cl2       1.0  0.29637731127633765  0.3165431312748054  0.17970956948755662  1.0000
  Cl  Cl3       1.0  0.2963803880817082  0.1834586466122659  0.6797102095637728  1.0000
  Cl  Cl4       1.0  0.7036198641288465  0.6834587379981015  0.8202909103623671  1.0000
  O   O1        1.0  0.7090262757274955  0.1012145710052152  0.21318218129891872  1.0000
  O   O2        1.0  0.2909750373155475  0.6012151727006838  0.28681655828054187  1.0000
  O   O3        1.0  0.29097443748502627  0.8987865134774252  0.7868157497336414  1.0000
  O   O4        1.0  0.7090303336520448  0.3987898356786842  0.7131843869207587  1.0000
  O   O5        1.0  0.6844413069089725  0.10444178255282568  0.3043871973756183  1.0000
  O   O6        1.0  0.3155572875321511  0.6044396368290635  0.1956120892862927  1.0000
  O   O7        1.0  0.31556324748761  0.8955522389132468  0.6956161715224313  1.0000
  O   O8        1.0  0.6844424973307851  0.39555673897479693  0.8043853229819008  1.0000
  O   O9        1.0  0.1050391202556042  0.37622102059746954  0.0375184105445854  1.0000
  O   O10       1.0  0.8949611339795709  0.8762146626030896  0.46248256829860424  1.0000
  O   O11       1.0  0.8949589835007927  0.6237847725743035  0.9624825880695059  1.0000
  O   O12       1.0  0.10504238028559597  0.12378249797855292  0.5375173393743538  1.0000
  O   O13       1.0  0.058699620996421197  0.4828736648279132  0.14967375560602392  1.0000
  O   O14       1.0  0.9412983508830804  0.9828730467151343  0.350326659391591  1.0000
  O   O15       1.0  0.9412920960232114  0.517125850114283  0.8503265541268521  1.0000
  O   O16       1.0  0.0587079484470934  0.0171303921037023  0.6496748045725057  1.0000
  O   O17       1.0  0.9076800273411935  0.5020481732583517  0.06720685228178525  1.0000
  O   O18       1.0  0.09231626986048981  0.0020386494113751  0.43279250829796473  1.0000
  O   O19       1.0  0.0923107293633265  0.4979623286019714  0.9327920979870258  1.0000
  O   O20       1.0  0.9076900294891813  0.9979553720484942  0.5672089556637802  1.0000
  O   O21       1.0  0.3180963816222331  0.9858935462540256  0.5789950638643901  1.0000
  O   O22       1.0  0.6819117742360915  0.4858898177016328  0.9210080320991597  1.0000
  O   O23       1.0  0.6819198422487958  0.014116955563942197  0.42100454016395633  1.0000
  O   O24       1.0  0.3180899631429596  0.5141073428848486  0.07899293980648281  1.0000
  O   O25       1.0  0.14855156503656264  0.8896938868699849  0.5451443919681864  1.0000
  O   O26       1.0  0.8514560128866363  0.3896842008647354  0.9548568760743025  1.0000
  O   O27       1.0  0.8514665634526679  0.1103166149486228  0.454857510641972  1.0000
  O   O28       1.0  0.14854217072019077  0.6103129597314094  0.045146224296694015  1.0000
