data_image0
_chemical_formula_structural       Cu2H6C8N4Cl4
_chemical_formula_sum              "Cu2 H6 C8 N4 Cl4"
_cell_length_a       6.742265172866721
_cell_length_b       6.805993191085295
_cell_length_c       7.443797869322232
_cell_angle_alpha    62.62407071707266
_cell_angle_beta     90.28050030321602
_cell_angle_gamma    90.74039818942947

_space_group_name_H-M_alt    "P 1"
_space_group_IT_number       1

loop_
  _space_group_symop_operation_xyz
  'x, y, z'

loop_
  _atom_site_type_symbol
  _atom_site_label
  _atom_site_symmetry_multiplicity
  _atom_site_fract_x
  _atom_site_fract_y
  _atom_site_fract_z
  _atom_site_occupancy
  Cu  Cu1       1.0  0.5003726890425638  0.291666756252262  0.4175114383915002  1.0000
  Cu  Cu2       1.0  0.49962371563755426  0.7083342320657592  0.582488590761251  1.0000
  H   H1        1.0  0.07148746027054641  0.17091121851960617  0.00020224337112035925  1.0000
  H   H2        1.0  0.9285134221462102  0.8290948026197923  0.9997944479451772  1.0000
  H   H3        1.0  0.9035135400558402  0.10275495815994164  0.3288015736067038  1.0000
  H   H4        1.0  0.09695873523946122  0.5688520504845229  0.3286123924517452  1.0000
  H   H5        1.0  0.09648729422431049  0.8972464489301971  0.6712079897644542  1.0000
  H   H6        1.0  0.9030510646333667  0.4311592288284345  0.6713857354706576  1.0000
  C   C1        1.0  0.5927302399989357  0.44627159083097456  1.2062656097075643e-05  1.0000
  C   C2        1.0  0.40726632845931476  0.5537192479580498  0.9999819533201871  1.0000
  C   C3        1.0  0.9319455625834295  0.2495801697633908  0.0001169015092515145  1.0000
  C   C4        1.0  0.06806424596577192  0.7504259126923003  0.9998682639881266  1.0000
  C   C5        1.0  0.8412281910202993  0.21120596882721535  0.18125618311469072  1.0000
  C   C6        1.0  0.1590522849473857  0.6079044796395648  0.18109753289684247  1.0000
  C   C7        1.0  0.15876673890864618  0.7887963551419614  0.8187424941232206  1.0000
  C   C8        1.0  0.8409441305736607  0.3920988169771534  0.818901837804631  1.0000
  N   N1        1.0  0.6708003484494968  0.312109795891132  0.17986724675255056  1.0000
  N   N2        1.0  0.32956343888321266  0.5084454528821849  0.17974716803688293  1.0000
  N   N3        1.0  0.32920196304225874  0.6878846943988323  0.8201327417090167  1.0000
  N   N4        1.0  0.6704358704925469  0.4915386275014058  0.8202499961014736  1.0000
  Cl  Cl1       1.0  0.706442897107479  0.04802698591299759  0.6500793049976961  1.0000
  Cl  Cl2       1.0  0.2938140173620384  0.30188567569371855  0.6499566234659964  1.0000
  Cl  Cl3       1.0  0.293552024145086  0.9519805349134387  0.3499323346652402  1.0000
  Cl  Cl4       1.0  0.7061867906112979  0.698109190792074  0.35005287965839216  1.0000
