data_image0
_chemical_formula_structural       FeH24C36S4N12Cl2
_chemical_formula_sum              "Fe1 H24 C36 S4 N12 Cl2"
_cell_length_a       8.785605989580375
_cell_length_b       9.159287618623669
_cell_length_c       13.519605415121273
_cell_angle_alpha    97.79574611348244
_cell_angle_beta     107.02868097384929
_cell_angle_gamma    97.00379205371141

_space_group_name_H-M_alt    "P 1"
_space_group_IT_number       1

loop_
  _space_group_symop_operation_xyz
  'x, y, z'

loop_
  _atom_site_type_symbol
  _atom_site_label
  _atom_site_symmetry_multiplicity
  _atom_site_fract_x
  _atom_site_fract_y
  _atom_site_fract_z
  _atom_site_occupancy
  Fe  Fe1       1.0  0.505863106785462  0.5000337798008728  0.48851259160206684  1.0000
  H   H1        1.0  0.0406387295179016  0.6346579641609509  0.2146472336350697  1.0000
  H   H2        1.0  0.9511758326528791  0.3650123133320093  0.7833303383874862  1.0000
  H   H3        1.0  0.2312256851067929  0.4763146549589834  0.2986303244377382  1.0000
  H   H4        1.0  0.7707696760316763  0.523561206345839  0.6890272933014784  1.0000
  H   H5        1.0  0.4459401779039568  0.8085743493690175  0.5615216626050454  1.0000
  H   H6        1.0  0.5665628141514887  0.1829802843217934  0.4304439729657758  1.0000
  H   H7        1.0  0.253121391985843  0.9782935082677042  0.49003662760642186  1.0000
  H   H8        1.0  0.753383637216224  0.014612994487777099  0.5107295986324017  1.0000
  H   H9        1.0  0.8544101293797866  0.197450076938992  0.36420093224688793  1.0000
  H   H10       1.0  0.1508794624662215  0.8039761874009415  0.6384968338089578  1.0000
  H   H11       1.0  0.734587029112859  0.16087500531185128  0.16774615460795414  1.0000
  H   H12       1.0  0.27168317586291835  0.8429696803365873  0.835238627869529  1.0000
  H   H13       1.0  0.7684660527705914  0.2628328376170402  0.8772670343312112  1.0000
  H   H14       1.0  0.22375797668308905  0.7363851570935933  0.12423906054123529  1.0000
  H   H15       1.0  0.6335218318315512  0.2383326063287399  0.014817878501425207  1.0000
  H   H16       1.0  0.35989647017608917  0.7628255979538777  0.9869552144915443  1.0000
  H   H17       1.0  0.5165622495350064  0.24804535815501086  0.1351767043717302  1.0000
  H   H18       1.0  0.4975304097822573  0.7487868180867565  0.8759180576735728  1.0000
  H   H19       1.0  0.4593794258230446  0.2638469141622792  0.3031945991696857  1.0000
  H   H20       1.0  0.560056351614243  0.7321274517020202  0.7067181333127975  1.0000
  H   H21       1.0  0.6453910790429233  0.7173578149461051  0.38784493582506485  1.0000
  H   H22       1.0  0.3278050219225648  0.2936663735692591  0.6058459894388691  1.0000
  H   H23       1.0  0.7104894792300198  0.7197227689999506  0.22065596602875803  1.0000
  H   H24       1.0  0.26285502104410335  0.2880785473339458  0.7754190999404286  1.0000
  C   C1        1.0  0.1268629864508739  0.6771340613912428  0.2924380663268166  1.0000
  C   C2        1.0  0.8702671067538573  0.3207885814675108  0.7041063122947477  1.0000
  C   C3        1.0  0.23402437727326486  0.5883325778078045  0.33846688982109896  1.0000
  C   C4        1.0  0.7683540864084718  0.4097875799931145  0.6523614337539809  1.0000
  C   C5        1.0  0.35028419366935276  0.7728229847762478  0.4867071181776694  1.0000
  C   C6        1.0  0.6584883744591964  0.2214305296916947  0.5065119309450594  1.0000
  C   C7        1.0  0.2451221340982315  0.867145424529859  0.4462569145399229  1.0000
  C   C8        1.0  0.759604920528325  0.1270329923588491  0.5519711934294733  1.0000
  C   C9        1.0  0.131593608536086  0.8202658141640526  0.34594477939116786  1.0000
  C   C10       1.0  0.8683926119707692  0.176498476846362  0.6535752893088471  1.0000
  C   C11       1.0  0.02164682542248642  0.9178470644593304  0.29669071810840814  1.0000
  C   C12       1.0  0.9787374325092699  0.08048414803756287  0.7049864091730027  1.0000
  C   C13       1.0  0.8830951763872433  0.10928749760670797  0.31301681222698347  1.0000
  C   C14       1.0  0.12099059005224432  0.891466300080957  0.6895247150269341  1.0000
  C   C15       1.0  0.8163294778814033  0.08958919387985279  0.2042497733445714  1.0000
  C   C16       1.0  0.18772487660177012  0.9122738039123419  0.7983293324894232  1.0000
  C   C17       1.0  0.8621173628133291  0.9743910202079107  0.14568232999017988  1.0000
  C   C18       1.0  0.1397476862313738  0.026488572255708203  0.8564158777112921  1.0000
  C   C19       1.0  0.7962694964846192  0.6133923488723597  0.9728497393921457  1.0000
  C   C20       1.0  0.20161373089526796  0.38625769558854733  0.029545884209731806  1.0000
  C   C21       1.0  0.7556037890858818  0.3616299730393351  0.9274175915739917  1.0000
  C   C22       1.0  0.2386470089642856  0.6381881136319834  0.07450338402347259  1.0000
  C   C23       1.0  0.6823541117954476  0.34833371802811547  0.004874553481378956  1.0000
  C   C24       1.0  0.3126467614331361  0.652596983291872  0.9973456772898784  1.0000
  C   C25       1.0  0.67845120778707  0.48035371378975344  0.06998924667306734  1.0000
  C   C26       1.0  0.317997817215506  0.5210425643324257  0.933065471347561  1.0000
  C   C27       1.0  0.6271944922286038  0.48253209849751505  0.16408499125859063  1.0000
  C   C28       1.0  0.3691962436156828  0.5196148289811191  0.8381751354961935  1.0000
  C   C29       1.0  0.5542054068129757  0.3543218775085961  0.18992483003744806  1.0000
  C   C30       1.0  0.45371211627708874  0.6458587811717038  0.8178382347390282  1.0000
  C   C31       1.0  0.5220464551043378  0.3610569902159781  0.28455753522761995  1.0000
  C   C32       1.0  0.488542049839559  0.6381582063339903  0.7234807382841096  1.0000
  C   C33       1.0  0.6200190071986142  0.6158309378686865  0.329636305763664  1.0000
  C   C34       1.0  0.3634991743737571  0.3911042329887239  0.6688611114402078  1.0000
  C   C35       1.0  0.6563766352334709  0.6159921963898611  0.23687379700589153  1.0000
  C   C36       1.0  0.32669110741934293  0.38903648352363973  0.76187238163822  1.0000
  S   S1        1.0  0.7668141330336552  0.9386119673832097  0.007161946481282695  1.0000
  S   S2        1.0  0.23603422417981076  0.06337856258230802  0.9948447951339432  1.0000
  S   S3        1.0  0.8775937524028592  0.7856120875275892  0.9450912187616465  1.0000
  S   S4        1.0  0.12318812804510058  0.2137245280555646  0.05746981288157829  1.0000
  N   N1        1.0  0.3471358821862153  0.634425990522729  0.4343166987977438  1.0000
  N   N2        1.0  0.6622876682584078  0.3625119715529195  0.5542635396956612  1.0000
  N   N3        1.0  0.9831185280376075  0.022539743244252005  0.3603633478745039  1.0000
  N   N4        1.0  0.019323406135910715  0.9766289640087321  0.6418887232162688  1.0000
  N   N5        1.0  0.9664010775777356  0.8909471856100025  0.1902607946081929  1.0000
  N   N6        1.0  0.0335615652428913  0.1082576590315938  0.811445248241398  1.0000
  N   N7        1.0  0.8164625120901903  0.49484845890926704  0.9110380185879378  1.0000
  N   N8        1.0  0.17952782894282382  0.5045967637686741  0.09056987887623785  1.0000
  N   N9        1.0  0.7325739541742777  0.6149071529496836  0.05037104428785  1.0000
  N   N10       1.0  0.26552343281179697  0.38614522458486533  0.9520032334594004  1.0000
  N   N11       1.0  0.5565606281339867  0.48928715426686153  0.3570368179148672  1.0000
  N   N12       1.0  0.4419138641406659  0.5140307607665804  0.6491728134221757  1.0000
  Cl  Cl1       1.0  0.7081464185323157  0.7076107600740329  0.5715149480420223  1.0000
  Cl  Cl2       1.0  0.2994387170925421  0.292248139236129  0.4224496088259286  1.0000
