data_image0
_chemical_formula_structural       Tb4Ag12H24C56N8O44
_chemical_formula_sum              "Tb4 Ag12 H24 C56 N8 O44"
_cell_length_a       8.08136629500803
_cell_length_b       13.88011701600416
_cell_length_c       14.5971474350132
_cell_angle_alpha    90.00005625738491
_cell_angle_beta     90.00014478906742
_cell_angle_gamma    90.00006873991187

_space_group_name_H-M_alt    "P 1"
_space_group_IT_number       1

loop_
  _space_group_symop_operation_xyz
  'x, y, z'

loop_
  _atom_site_type_symbol
  _atom_site_label
  _atom_site_symmetry_multiplicity
  _atom_site_fract_x
  _atom_site_fract_y
  _atom_site_fract_z
  _atom_site_occupancy
  Tb  Tb1       1.0  0.9717268748664054  0.7499991891110014  0.2499998801134638  1.0000
  Tb  Tb2       1.0  0.5282745257627327  0.7500007344131207  0.7499999972950421  1.0000
  Tb  Tb3       1.0  0.0282731623808985  0.25000045239093543  0.7500007817965442  1.0000
  Tb  Tb4       1.0  0.47172551148295844  0.2500003479981459  0.24999929448492259  1.0000
  Ag  Ag1       1.0  0.5544292346738687  0.824037446164951  0.4853545078211783  1.0000
  Ag  Ag2       1.0  0.9455673689472519  0.8240383183342888  0.514645438432382  1.0000
  Ag  Ag3       1.0  0.9455719924121057  0.6759648827247702  0.985355145631637  1.0000
  Ag  Ag4       1.0  0.5544304929883026  0.6759628020987523  0.014646033061588107  1.0000
  Ag  Ag5       1.0  0.4455720399902462  0.17596291579279466  0.5146468391553969  1.0000
  Ag  Ag6       1.0  0.0544314308870142  0.175962764077255  0.4853552234774272  1.0000
  Ag  Ag7       1.0  0.054429282248172214  0.3240347587772376  0.014644831213885805  1.0000
  Ag  Ag8       1.0  0.4455695442536154  0.32403611894709883  0.9853525736520159  1.0000
  Ag  Ag9       1.0  0.24999819564173725  0.9434102604217428  0.500001045608869  1.0000
  Ag  Ag10      1.0  0.2499989269269136  0.5565874118574996  0.9999958156240754  1.0000
  Ag  Ag11      1.0  0.749998129362062  0.056587940169215804  0.5000003013632013  1.0000
  Ag  Ag12      1.0  0.7499998728966446  0.4434107887321872  1.4209576094000004e-06  1.0000
  H   H1        1.0  0.22651212061004602  0.7684345517418121  0.05557507412442672  1.0000
  H   H2        1.0  0.2734888595679267  0.7684343084359356  0.9444261693198259  1.0000
  H   H3        1.0  0.27349041753030434  0.7315641007000836  0.5555748354892033  1.0000
  H   H4        1.0  0.2265117240404209  0.731564026685234  0.4444250035391165  1.0000
  H   H5        1.0  0.773489154050978  0.23156581021522268  0.9444249027214372  1.0000
  H   H6        1.0  0.7265099402641156  0.23156461261054767  0.05557449258896702  1.0000
  H   H7        1.0  0.7265108571299665  0.26843554080192433  0.4444251413563195  1.0000
  H   H8        1.0  0.773489550618308  0.26843561481642547  0.5555742882410474  1.0000
  H   H9        1.0  0.6154852631592862  0.47333362487549374  0.43347507356106985  1.0000
  H   H10       1.0  0.8845118547992571  0.4733323468405004  0.5665245465696602  1.0000
  H   H11       1.0  0.8845159359364204  0.0266684352440478  0.933473431095614  1.0000
  H   H12       1.0  0.6154864481660596  0.0266678919383949  0.06652440355105682  1.0000
  H   H13       1.0  0.3845122992566202  0.5266667370798926  0.566524218216813  1.0000
  H   H14       1.0  0.11548694502968711  0.5266665742052723  0.43347474520842894  1.0000
  H   H15       1.0  0.11548533872614541  0.9733319267133426  0.06652723081560202  1.0000
  H   H16       1.0  0.3845160639032912  0.9733324700176526  0.9334728330342519  1.0000
  H   H17       1.0  0.9012494306156215  0.35426472744437376  0.20917523165897486  1.0000
  H   H18       1.0  0.5987474418556928  0.3542656438168734  0.7908263329455851  1.0000
  H   H19       1.0  0.5987482797516891  0.14573421831462244  0.7091739813062221  1.0000
  H   H20       1.0  0.901250637598473  0.14573410704793588  0.29082533418910134  1.0000
  H   H21       1.0  0.09875060663093652  0.6457341936025429  0.7908254302506992  1.0000
  H   H22       1.0  0.4012501205625725  0.6457339976841964  0.20917432896267485  1.0000
  H   H23       1.0  0.4012505200833801  0.8542661436422634  0.29082736566859785  1.0000
  H   H24       1.0  0.09874816223350541  0.8542662549082393  0.7091746426550077  1.0000
  C   C1        1.0  0.6965706671116649  0.6627441394456781  0.39364688924840163  1.0000
  C   C2        1.0  0.8034367406823436  0.6627435665521733  0.6063508518281538  1.0000
  C   C3        1.0  0.8034462318423508  0.8372595352880269  0.8936570671837675  1.0000
  C   C4        1.0  0.6965664854405064  0.837256928501027  0.10634974202843493  1.0000
  C   C5        1.0  0.3034330823713987  0.3372569429654675  0.6063496622727629  1.0000
  C   C6        1.0  0.19656453397638532  0.33725607494948656  0.3936484399520169  1.0000
  C   C7        1.0  0.1965575176539005  0.1627408266712962  0.10634564992526663  1.0000
  C   C8        1.0  0.3034434511292191  0.16274127209609895  0.8936543452146781  1.0000
  C   C9        1.0  0.7563487321377593  0.5713738704758242  0.34990683615506424  1.0000
  C   C10       1.0  0.7436510627927646  0.5713747421059595  0.650094245277643  1.0000
  C   C11       1.0  0.7436432207864243  0.9286261566229682  0.8499087938099809  1.0000
  C   C12       1.0  0.7563535984810558  0.928626518753866  0.15009467502811452  1.0000
  C   C13       1.0  0.2436451180353885  0.4286257710235972  0.6500931406852148  1.0000
  C   C14       1.0  0.25635144928122605  0.4286256198511538  0.34990504650373583  1.0000
  C   C15       1.0  0.2563555790494548  0.0713734848792456  0.15009323822986437  1.0000
  C   C16       1.0  0.24364520135556939  0.07137384320337499  0.8499073570120647  1.0000
  C   C17       1.0  0.7017205602578329  0.4808241963459849  0.3765907361401376  1.0000
  C   C18       1.0  0.7982790479744111  0.4808236375382009  0.6234088909582243  1.0000
  C   C19       1.0  0.7982791443001676  0.019178525256144496  0.8765930752841418  1.0000
  C   C20       1.0  0.7017195121233684  0.019175939759797703  0.12340886278616384  1.0000
  C   C21       1.0  0.29827947698711915  0.5191761656102614  0.6234085556394933  1.0000
  C   C22       1.0  0.2017209892690488  0.5191752835080053  0.3765904008207387  1.0000
  C   C23       1.0  0.20172213036239844  0.9808218367012455  0.12340758662707432  1.0000
  C   C24       1.0  0.2982780502965028  0.9808222608319427  0.8765931692521395  1.0000
  C   C25       1.0  0.7489883560285974  0.3989048478053546  0.3248004756099904  1.0000
  C   C26       1.0  0.7510061336457385  0.3989043096898684  0.6751990753073331  1.0000
  C   C27       1.0  0.7510036899252343  0.10109637918917258  0.8247987137624693  1.0000
  C   C28       1.0  0.7489938979759289  0.1010953213021111  0.17520056022240746  1.0000
  C   C29       1.0  0.25100796897514505  0.6010947936952888  0.6752001862973958  1.0000
  C   C30       1.0  0.24899142876942898  0.6010953318104981  0.32480021647021573  1.0000
  C   C31       1.0  0.24899510990519502  0.8989039827666473  0.17520057801628047  1.0000
  C   C32       1.0  0.25100118961099577  0.8989035997427165  0.8247994166184187  1.0000
  C   C33       1.0  0.8604322320708065  0.4147959248319567  0.25095668195368154  1.0000
  C   C34       1.0  0.6395610529598201  0.4147975468373133  0.7490449389370968  1.0000
  C   C35       1.0  0.6395619549234584  0.08520666651791228  0.7509568031009908  1.0000
  C   C36       1.0  0.8604368376320651  0.08520504253088032  0.24904314117386422  1.0000
  C   C37       1.0  0.13956533034738786  0.5852051575788053  0.7490432948898944  1.0000
  C   C38       1.0  0.36043527204460457  0.5852042560280354  0.2509550379059321  1.0000
  C   C39       1.0  0.36043808232458474  0.9147936954390516  0.2490438588093512  1.0000
  C   C40       1.0  0.13955701254424469  0.9147931580595667  0.7509588908618101  1.0000
  C   C41       1.0  0.909433897285588  0.5080955770995246  0.23061100394428996  1.0000
  C   C42       1.0  0.5905682420023625  0.5081000678096004  0.7693859082566522  1.0000
  C   C43       1.0  0.590567415697592  0.991897842229129  0.7306128041968878  1.0000
  C   C44       1.0  0.9094357210880943  0.9919005962689198  0.2693866130914771  1.0000
  C   C45       1.0  0.09056366512276533  0.4919004621250238  0.769386917700871  1.0000
  C   C46       1.0  0.4094330326571125  0.4919002941470864  0.23061338352385266  1.0000
  C   C47       1.0  0.4094338589634249  0.0081025197279061  0.2693871726489761  1.0000
  C   C48       1.0  0.0905643161637286  0.008101927053459702  0.7306147338852258  1.0000
  C   C49       1.0  0.018335664269614003  0.5339444308594209  0.15170729916803796  1.0000
  C   C50       1.0  0.4816635950260775  0.5339499968603008  0.848290985962102  1.0000
  C   C51       1.0  0.48166607099781805  0.9660521598806681  0.6517068875911678  1.0000
  C   C52       1.0  0.018339028865675303  0.9660540022364472  0.3482924844270344  1.0000
  C   C53       1.0  0.9816618981456174  0.4660537697312535  0.8482926776741951  1.0000
  C   C54       1.0  0.5183364422187468  0.4660532469153225  0.15170693568816063  1.0000
  C   C55       1.0  0.5183364410761726  0.03394820207644501  0.34829240419021096  1.0000
  C   C56       1.0  0.9816647206258651  0.03394780063149481  0.6517074924212383  1.0000
  N   N1        1.0  0.8588201197466249  0.585789453811856  0.27861901431760583  1.0000
  N   N2        1.0  0.6411821797278634  0.5857881664458803  0.7213800253249689  1.0000
  N   N3        1.0  0.6411801728427093  0.914213381203645  0.7786214988883418  1.0000
  N   N4        1.0  0.8588228037761285  0.914213168318213  0.22137990135522057  1.0000
  N   N5        1.0  0.1411749678409251  0.4142130695073761  0.7213795923941791  1.0000
  N   N6        1.0  0.3588215697598471  0.41421291596632404  0.27861858139226586  1.0000
  N   N7        1.0  0.35882110181911037  0.08578626029872541  0.2213791630225402  1.0000
  N   N8        1.0  0.14117970830250934  0.0857871936399661  0.7786214456222285  1.0000
  O   O1        1.0  0.7677826562336917  0.7414617865577642  0.36697806691299933  1.0000
  O   O2        1.0  0.7322174893810356  0.7414626325074993  0.6330231726860164  1.0000
  O   O3        1.0  0.7322167983377668  0.7585368173307925  0.8669777950588017  1.0000
  O   O4        1.0  0.7677870947226567  0.7585378901983189  0.13302209029045295  1.0000
  O   O5        1.0  0.23221366877005076  0.2585378549428796  0.6330225949943868  1.0000
  O   O6        1.0  0.2677850226937579  0.25853700899494925  0.3669768041603875  1.0000
  O   O7        1.0  0.26778323890879113  0.241462103716124  0.13302286685086537  1.0000
  O   O8        1.0  0.2322166547650468  0.2414631922138923  0.8669765164267818  1.0000
  O   O9        1.0  0.5807030097308187  0.6596339243279202  0.45085318849377415  1.0000
  O   O10       1.0  0.9192944923413294  0.6596355343789568  0.5491466048806544  1.0000
  O   O11       1.0  0.9192881620776205  0.8403669278785342  0.9508518868660264  1.0000
  O   O12       1.0  0.5807072377892409  0.8403634604586757  0.04914670443886142  1.0000
  O   O13       1.0  0.419292077860014  0.34036427626296006  0.5491488435427742  1.0000
  O   O14       1.0  0.0807030700722819  0.3403641071210473  0.4508520018315354  1.0000
  O   O15       1.0  0.08070940033525181  0.15963199316645674  0.04914671984582952  1.0000
  O   O16       1.0  0.4192903246229491  0.15963329922160346  0.9508525873373447  1.0000
  O   O17       1.0  0.6853159020796015  0.3134012318592666  0.34062677073050207  1.0000
  O   O18       1.0  0.8146821235538795  0.3134014422444622  0.6593747558752556  1.0000
  O   O19       1.0  0.814682402484152  0.18659929108982715  0.8406244932762097  1.0000
  O   O20       1.0  0.6853190739503816  0.18659961325163715  0.15937486022187394  1.0000
  O   O21       1.0  0.314681660340952  0.6865991300971857  0.659374576243444  1.0000
  O   O22       1.0  0.18532038852320912  0.6865989197133616  0.3406259060368343  1.0000
  O   O23       1.0  0.1853151599348521  0.8134010708662629  0.15937616863238455  1.0000
  O   O24       1.0  0.3146834381243552  0.8134014691604959  0.8406244315598388  1.0000
  O   O25       1.0  0.07975578759981522  0.4694478509753495  0.09979580016653954  1.0000
  O   O26       1.0  0.4202520006187597  0.4694555892833066  0.9002010548640629  1.0000
  O   O27       1.0  0.4202508691962663  0.030544148235257796  0.5997976371120759  1.0000
  O   O28       1.0  0.07975972635142631  0.0305489691057304  0.40020429030205673  1.0000
  O   O29       1.0  0.9202467244720084  0.5305489087070115  0.9002041766785214  1.0000
  O   O30       1.0  0.5797529862856268  0.5305490954040836  0.09979686679036354  1.0000
  O   O31       1.0  0.5797528802922473  0.9694562137222817  0.400201654670177  1.0000
  O   O32       1.0  0.9202514476348611  0.9694557155859516  0.5997977417488729  1.0000
  O   O33       1.0  0.046113210884804814  0.6239588050977856  0.13961116165403817  1.0000
  O   O34       1.0  0.4538924210733272  0.6239686869783938  0.8603851519916079  1.0000
  O   O35       1.0  0.4538909445375979  0.8760327299195794  0.6396147375249017  1.0000
  O   O36       1.0  0.0461090200796548  0.8760374860224901  0.3603886611734028  1.0000
  O   O37       1.0  0.9538893011862798  0.376037234129555  0.8603888151906889  1.0000
  O   O38       1.0  0.5461113284133816  0.37603743861754413  0.13961071446654938  1.0000
  O   O39       1.0  0.5461078552943804  0.1239676320365959  0.3603852393192143  1.0000
  O   O40       1.0  0.9538922545927592  0.12396791912111381  0.6396140559362282  1.0000
  O   O41       1.0  0.25000055587393183  0.7281207499620875  0.9999998300531845  1.0000
  O   O42       1.0  0.250000493638737  0.7718785653178839  0.5000002807908148  1.0000
  O   O43       1.0  0.7499996960623108  0.27187837317208613  0.9999999710721147  1.0000
  O   O44       1.0  0.7500007810215409  0.22812107618413083  0.4999996960547082  1.0000
