data_image0
_chemical_formula_structural       Co2H40C52S2N4O12
_chemical_formula_sum              "Co2 H40 C52 S2 N4 O12"
_cell_length_a       8.577141981734815
_cell_length_b       11.83726378352308
_cell_length_c       12.80324960307304
_cell_angle_alpha    105.4750684490524
_cell_angle_beta     91.51071815220384
_cell_angle_gamma    100.86468767965638

_space_group_name_H-M_alt    "P 1"
_space_group_IT_number       1

loop_
  _space_group_symop_operation_xyz
  'x, y, z'

loop_
  _atom_site_type_symbol
  _atom_site_label
  _atom_site_symmetry_multiplicity
  _atom_site_fract_x
  _atom_site_fract_y
  _atom_site_fract_z
  _atom_site_occupancy
  Co  Co1       1.0  0.6281664065561045  0.09219921851642  0.23600236760762522  1.0000
  Co  Co2       1.0  0.37184240415960085  0.9078022094381167  0.7639960193641071  1.0000
  H   H1        1.0  0.1951705767092093  0.0613321954532751  0.9941196796260597  1.0000
  H   H2        1.0  0.8048393861806816  0.9386692252117256  0.005874038241742599  1.0000
  H   H3        1.0  0.105407413808436  0.31300585615843346  0.3089171737249784  1.0000
  H   H4        1.0  0.89457088744129  0.686972200655859  0.691092956619478  1.0000
  H   H5        1.0  0.7876411833930489  0.3067738409751044  0.575347531327935  1.0000
  H   H6        1.0  0.21234128534699437  0.6932337417731701  0.4246722340674081  1.0000
  H   H7        1.0  0.2919395867073149  0.893619555532119  0.47939772953576204  1.0000
  H   H8        1.0  0.7080776321375168  0.1063872918808073  0.5206036840984608  1.0000
  H   H9        1.0  0.13335531620743518  0.24171641775836855  0.7349626098624426  1.0000
  H   H10       1.0  0.8666462373441276  0.7582974819467831  0.26504027049926276  1.0000
  H   H11       1.0  0.8825197273528145  0.4057283996145813  0.0039555835713044885  1.0000
  H   H12       1.0  0.11747651498593828  0.5942694138123698  0.9960542086378295  1.0000
  H   H13       1.0  0.4791730780758882  0.3030874940553899  0.29701511700931593  1.0000
  H   H14       1.0  0.5208039837962275  0.696894965815538  0.7029773246908275  1.0000
  H   H15       1.0  0.38774028328639787  0.4424951360411455  0.20571541326329876  1.0000
  H   H16       1.0  0.6122393499406229  0.5574882359592194  0.7942780750663727  1.0000
  H   H17       1.0  0.6505745984303957  0.12057319501114698  0.0142235598083573  1.0000
  H   H18       1.0  0.349443785958023  0.8794336572441706  0.9857770931892204  1.0000
  H   H19       1.0  0.5677733548157063  0.2538445220991505  0.9110604508621377  1.0000
  H   H20       1.0  0.43223802458102506  0.7461578155584406  0.08893820104566431  1.0000
  H   H21       1.0  0.9658540630291128  0.27776920175973163  0.10987249750603914  1.0000
  H   H22       1.0  0.03415478141240413  0.7222277818999885  0.8901326133448109  1.0000
  H   H23       1.0  0.24971184399174004  0.49479682150668225  0.7316417842763483  1.0000
  H   H24       1.0  0.7502728637143292  0.5052285869278136  0.2683620714245691  1.0000
  H   H25       1.0  0.0370555416326823  0.05628863555043749  0.2830250881934262  1.0000
  H   H26       1.0  0.9629525729493407  0.9437011576583597  0.7169665357327516  1.0000
  H   H27       1.0  0.3258587375647082  0.4820621508559383  0.029871176937682285  1.0000
  H   H28       1.0  0.6741474766965182  0.5179338672938698  0.9701156900275834  1.0000
  H   H29       1.0  0.39364402113275787  0.4028953490735958  0.907562428937325  1.0000
  H   H30       1.0  0.6063757632891792  0.5970989805288978  0.09242893522549879  1.0000
  H   H31       1.0  0.282847052044005  0.09963769564493671  0.19393604918307258  1.0000
  H   H32       1.0  0.7171589492928944  0.9003484950748157  0.8060499722357475  1.0000
  H   H33       1.0  0.8900348218758933  0.9336940478733878  0.3965602883557224  1.0000
  H   H34       1.0  0.10998285568332018  0.06630115993065289  0.6034304748224741  1.0000
  H   H35       1.0  0.9958219471129154  0.8653023377982906  0.4756562571093923  1.0000
  H   H36       1.0  0.004193635918333905  0.13468928450139833  0.5243343754156412  1.0000
  H   H37       1.0  0.53093422604465  0.9416976181847827  0.37909630146877743  1.0000
  H   H38       1.0  0.46908298107001656  0.058304743684779205  0.6208985472557912  1.0000
  H   H39       1.0  0.36044581113862506  0.467995279704432  0.550886802799809  1.0000
  H   H40       1.0  0.6395269880990355  0.5320202164802835  0.44911208831927496  1.0000
  C   C1        1.0  0.9734691005231183  0.3262106363894119  0.4682961201778254  1.0000
  C   C2        1.0  0.026507522386424436  0.6737879559129282  0.5317158819683597  1.0000
  C   C3        1.0  0.8732935839510744  0.25328625339628263  0.3682761812752417  1.0000
  C   C4        1.0  0.12668094977827588  0.7467087582544777  0.6317372536046972  1.0000
  C   C5        1.0  0.14256554014374956  0.17762535987746017  0.8765067082293638  1.0000
  C   C6        1.0  0.8574390552072727  0.8223822978916073  0.12349313321549002  1.0000
  C   C7        1.0  0.9131401770341084  0.34235460420379127  0.570837666765577  1.0000
  C   C8        1.0  0.08683970698162818  0.6576520542831188  0.4291771435329607  1.0000
  C   C9        1.0  0.28495395834346476  0.938291853298814  0.41555525358258183  1.0000
  C   C10       1.0  0.715066764119122  0.06171054008262188  0.5844427850862528  1.0000
  C   C11       1.0  0.99951843974425  0.3321889364853233  0.860344601642083  1.0000
  C   C12       1.0  0.00048244812096238894  0.6678178310021606  0.13966355243791637  1.0000
  C   C13       1.0  0.0945949597020359  0.251016699577022  0.8165790383668463  1.0000
  C   C14       1.0  0.9054087157209026  0.7489918606470666  0.18342569500439507  1.0000
  C   C15       1.0  0.9546382901440607  0.3412021457593822  0.9671061694576292  1.0000
  C   C16       1.0  0.045360971998505285  0.6587983555696721  0.03290042486519698  1.0000
  C   C17       1.0  0.471917098910005  0.36067396476560276  0.05029325091773269  1.0000
  C   C18       1.0  0.5280833143720969  0.6393220534360822  0.9497052361653358  1.0000
  C   C19       1.0  0.0949780335717207  0.18674716714414788  0.9830650544427753  1.0000
  C   C20       1.0  0.9050298465203708  0.813255153559865  0.01693509768151808  1.0000
  C   C21       1.0  0.49776855027010203  0.2957805923174348  0.21173498702765406  1.0000
  C   C22       1.0  0.5022220587324354  0.7042046330065401  0.7882583547647497  1.0000
  C   C23       1.0  0.4477045465240863  0.3734844150503421  0.160327456605188  1.0000
  C   C24       1.0  0.5522862957591883  0.6265061812769515  0.8396695461454938  1.0000
  C   C25       1.0  0.5925230423943829  0.193428846469061  0.05329722077565439  1.0000
  C   C26       1.0  0.40748670860581626  0.8065672226037105  0.9466990896815302  1.0000
  C   C27       1.0  0.5463386383389518  0.2683145953749815  0.9968206198505739  1.0000
  C   C28       1.0  0.4536668999704431  0.7316877059387109  0.003177926773190611  1.0000
  C   C29       1.0  0.0012372532825039972  0.27018023831556087  0.02757662340472681  1.0000
  C   C30       1.0  0.9987713465781523  0.7298203138845664  0.9724277942922084  1.0000
  C   C31       1.0  0.010788338528392668  0.4014716326029839  0.6658044973395787  1.0000
  C   C32       1.0  0.989195493240885  0.5985368186101708  0.3342045682266387  1.0000
  C   C33       1.0  0.17290969241895476  0.44704273196322203  0.6577969648760129  1.0000
  C   C34       1.0  0.8270738797608175  0.5529737490698492  0.34221015551137407  1.0000
  C   C35       1.0  0.13683207284709206  0.3730555107003895  0.4611045080055972  1.0000
  C   C36       1.0  0.8631429093311594  0.6269412767230378  0.538904682358506  1.0000
  C   C37       1.0  0.23644722995852158  0.0885825341974638  0.825207978673589  1.0000
  C   C38       1.0  0.7635662139488842  0.9114323115235051  0.17478829983755154  1.0000
  C   C39       1.0  0.14299435805901337  0.028428157258702  0.30746283541000696  1.0000
  C   C40       1.0  0.8570167923701034  0.9715643384105161  0.6925302807906134  1.0000
  C   C41       1.0  0.4284979350800596  0.4474401519739004  0.9941575982983364  1.0000
  C   C42       1.0  0.5715111138340987  0.5525532267496303  0.00583648030457345  1.0000
  C   C43       1.0  0.2813307661872599  0.05340137070066219  0.2570158199833159  1.0000
  C   C44       1.0  0.7186784978950628  0.9465884127922166  0.7429703531454804  1.0000
  C   C45       1.0  0.9984763770348051  0.9466953424515195  0.4494458669777329  1.0000
  C   C46       1.0  0.0015370948206055051  0.05330162903477031  0.5505460393115911  1.0000
  C   C47       1.0  0.4186015105091058  0.9654719909805961  0.361518636036898  1.0000
  C   C48       1.0  0.5814147595995393  0.03452678294785019  0.6384729763174873  1.0000
  C   C49       1.0  0.14253233309466393  0.9698532231650671  0.38910030088841535  1.0000
  C   C50       1.0  0.857480674268558  0.030141957990238694  0.6108911597560008  1.0000
  C   C51       1.0  0.2351681414901066  0.432741407190754  0.5572829657178814  1.0000
  C   C52       1.0  0.7648105245390583  0.5672696737638817  0.44272040948399644  1.0000
  S   S1        1.0  0.9262005546158321  0.42674575763281547  0.7924046530108768  1.0000
  S   S2        1.0  0.07379519795661336  0.5732681421242203  0.20760984746862474  1.0000
  N   N1        1.0  0.569105108064825  0.2065567449707544  0.15927010664222505  1.0000
  N   N2        1.0  0.4309001969638402  0.7934401853396125  0.8407247790232546  1.0000
  N   N3        1.0  0.4185546588288034  0.023413111691134195  0.2835870693291227  1.0000
  N   N4        1.0  0.5814548412081351  0.9765820452314458  0.7164035464514098  1.0000
  O   O1        1.0  0.27426407000799463  0.0167190266033828  0.8801884426603335  1.0000
  O   O2        1.0  0.7257383933807302  0.9832850116919329  0.1198003244229681  1.0000
  O   O3        1.0  0.27817483260102444  0.07569361008761892  0.7300009360535424  1.0000
  O   O4        1.0  0.7218474689190443  0.9243329067022328  0.26999756274007314  1.0000
  O   O5        1.0  0.7325563819186058  0.19653544144481566  0.3776499327164656  1.0000
  O   O6        1.0  0.2674129924530391  0.8034666806380244  0.622362813321871  1.0000
  O   O7        1.0  0.9307509647266838  0.24329561304995193  0.27619033507612295  1.0000
  O   O8        1.0  0.06922734187080687  0.7566824486171057  0.7238213586552502  1.0000
  O   O9        1.0  0.13780400216488428  0.11821947694496517  0.04380189420680839  1.0000
  O   O10       1.0  0.8622111061087026  0.881783770405292  0.956194698613508  1.0000
  O   O11       1.0  0.1996727157244393  0.3603514094616003  0.3644985764518083  1.0000
  O   O12       1.0  0.8003020524948353  0.6396310746939378  0.6355063302300221  1.0000
