data_image0
_chemical_formula_structural       CoH16C16N2Cl6O6
_chemical_formula_sum              "Co1 H16 C16 N2 Cl6 O6"
_cell_length_a       7.09235368633222
_cell_length_b       9.347253525893102
_cell_length_c       9.257769199825207
_cell_angle_alpha    106.76036595988403
_cell_angle_beta     111.19694398702057
_cell_angle_gamma    92.32200147223043

_space_group_name_H-M_alt    "P 1"
_space_group_IT_number       1

loop_
  _space_group_symop_operation_xyz
  'x, y, z'

loop_
  _atom_site_type_symbol
  _atom_site_label
  _atom_site_symmetry_multiplicity
  _atom_site_fract_x
  _atom_site_fract_y
  _atom_site_fract_z
  _atom_site_occupancy
  Co  Co1       1.0  3.1283042289831653e-07  1.8497062015021298e-06  0.9999976000112271  1.0000
  H   H1        1.0  0.271958509612432  0.8283292067227847  0.10169790223392988  1.0000
  H   H2        1.0  0.7280295483555934  0.1716669441314238  0.898297680614604  1.0000
  H   H3        1.0  0.2664857805776819  0.707873315243148  0.8342186655953653  1.0000
  H   H4        1.0  0.733517916007209  0.29212528744391614  0.16578280514330854  1.0000
  H   H5        1.0  0.5168082997863976  0.814171960700527  0.9686944381074412  1.0000
  H   H6        1.0  0.4831897554195947  0.18582774816884748  0.03131235414307546  1.0000
  H   H7        1.0  0.3372659331543701  0.894098515885929  0.8346227341308959  1.0000
  H   H8        1.0  0.6627417634255083  0.10589785352626538  0.16537590137944133  1.0000
  H   H9        1.0  0.33286028814680446  0.0478099080567773  0.3138256617911495  1.0000
  H   H10       1.0  0.667135019819689  0.9521919907000506  0.686175638326567  1.0000
  H   H11       1.0  0.5667832376715082  0.26360913282120174  0.5405906326537533  1.0000
  H   H12       1.0  0.4332161031604755  0.7363905403332609  0.45940892349402424  1.0000
  H   H13       1.0  0.24779887133194475  0.555426293959911  0.2772610535708466  1.0000
  H   H14       1.0  0.7521994081499911  0.44457454702695987  0.7227461234653062  1.0000
  H   H15       1.0  0.027735062991268863  0.3280269227418912  0.06365558643937419  1.0000
  H   H16       1.0  0.9722690164045037  0.6719739288351861  0.9363444713537774  1.0000
  C   C1        1.0  0.3537346815288345  0.821692962827228  0.9111454035270014  1.0000
  C   C2        1.0  0.646264692173645  0.17830671799972458  0.08885524387916625  1.0000
  C   C3        1.0  0.3194037063274068  0.16221943776572081  0.3103333591749545  1.0000
  C   C4        1.0  0.6805988902194072  0.8377814034913057  0.6896673871705516  1.0000
  C   C5        1.0  0.45090146906883893  0.2853973156233138  0.4376805340538255  1.0000
  C   C6        1.0  0.5490991632066553  0.7146012434061787  0.5623190400143585  1.0000
  C   C7        1.0  0.43214852037524315  0.4331834664920676  0.4328149258785032  1.0000
  C   C8        1.0  0.5678568562815655  0.5668151925499956  0.5671924038582006  1.0000
  C   C9        1.0  0.2756336102650963  0.44618204487330354  0.2932395748384522  1.0000
  C   C10       1.0  0.7243736649220481  0.5538188810513061  0.706766744658779  1.0000
  C   C11       1.0  0.14982275032385667  0.3178425602545473  0.17079640159683854  1.0000
  C   C12       1.0  0.8501859748417502  0.6821583683176156  0.8292081380896476  1.0000
  C   C13       1.0  0.9882667691714319  0.17195442173581196  0.7753383217432342  1.0000
  C   C14       1.0  0.01172730727501652  0.8280496849010176  0.22465788894771777  1.0000
  C   C15       1.0  0.12409049137734479  0.23391587512237783  0.6969227448348647  1.0000
  C   C16       1.0  0.8759077764695389  0.7660871226845954  0.30306992415499656  1.0000
  N   N1        1.0  0.1695036787137383  0.17594412964868403  0.1767848890339323  1.0000
  N   N2        1.0  0.8304969206912604  0.8240544217083181  0.8232135937758542  1.0000
  Cl  Cl1       1.0  0.2853322124861606  0.10467381142162675  0.6491588234071485  1.0000
  Cl  Cl2       1.0  0.7146591611201671  0.8953246012901912  0.3508328781327705  1.0000
  Cl  Cl3       1.0  0.28035697744927285  0.4060368531185148  0.8524068801216201  1.0000
  Cl  Cl4       1.0  0.7196468448000674  0.5939628586685682  0.1475917016274906  1.0000
  Cl  Cl5       1.0  0.9754847787842849  0.2774889600649359  0.5201479530245903  1.0000
  Cl  Cl6       1.0  0.02450846629940874  0.7225106334468875  0.4798489010406044  1.0000
  O   O1        1.0  0.2776500081699709  0.8921746131378256  0.03389977918236308  1.0000
  O   O2        1.0  0.7223529112642668  0.1078273832541825  0.9661046257239789  1.0000
  O   O3        1.0  0.0686573501766929  0.07943831662836232  0.8468428838733998  1.0000
  O   O4        1.0  0.9313456949219939  0.9205647888636646  0.15315863204338606  1.0000
  O   O5        1.0  0.8264104524858384  0.22506729436121725  0.7668367899028892  1.0000
  O   O6        1.0  0.17357738110007392  0.7749219897106199  0.2331437918370796  1.0000
