data_image0
_chemical_formula_structural       Zn6H8C36Cl8O24
_chemical_formula_sum              "Zn6 H8 C36 Cl8 O24"
_cell_length_a       19.162298792585986
_cell_length_b       19.161856829802772
_cell_length_c       19.608422072765315
_cell_angle_alpha    109.35114751714775
_cell_angle_beta     109.35153891530443
_cell_angle_gamma    103.66875201821735

_space_group_name_H-M_alt    "P 1"
_space_group_IT_number       1

loop_
  _space_group_symop_operation_xyz
  'x, y, z'

loop_
  _atom_site_type_symbol
  _atom_site_label
  _atom_site_symmetry_multiplicity
  _atom_site_fract_x
  _atom_site_fract_y
  _atom_site_fract_z
  _atom_site_occupancy
  Zn  Zn1       1.0  0.4975002446019515  0.05504315111290478  0.05870284165907692  1.0000
  Zn  Zn2       1.0  0.05055979995308491  0.050561848430781715  0.49208173977102376  1.0000
  Zn  Zn3       1.0  0.9494386656155954  0.9494397871919419  0.5079198156807366  1.0000
  Zn  Zn4       1.0  0.5024978587033502  0.944952845320181  0.941294617624351  1.0000
  Zn  Zn5       1.0  0.9449574726852177  0.5025010908846497  0.9412995941794977  1.0000
  Zn  Zn6       1.0  0.0550444843158715  0.4975024883520619  0.05870637385260131  1.0000
  H   H1        1.0  0.8371809548335561  0.02545017483824808  0.2835272809044582  1.0000
  H   H2        1.0  0.34973312818986807  0.9580939309691769  0.732806945345331  1.0000
  H   H3        1.0  0.9581022300999678  0.3497386426327367  0.7328131589401679  1.0000
  H   H4        1.0  0.04190373278346729  0.6502628917617275  0.2671853153935971  1.0000
  H   H5        1.0  0.6502656171349271  0.041898204600037965  0.2671751227606051  1.0000
  H   H6        1.0  0.162829520866282  0.9745665670841389  0.7164748836784868  1.0000
  H   H7        1.0  0.9745554635398292  0.16282451030113518  0.7164769625966869  1.0000
  H   H8        1.0  0.025434292744435504  0.837172778012551  0.28352930809779764  1.0000
  C   C1        1.0  0.6067319449226859  0.9881189994461579  0.1127988130118497  1.0000
  C   C2        1.0  0.6116902755208998  0.10837519141527005  0.0018280685796556225  1.0000
  C   C3        1.0  0.1083718674740908  0.6116955898512091  0.0018311130890467948  1.0000
  C   C4        1.0  0.891632957628637  0.38830797281919155  0.9981804242309806  1.0000
  C   C5        1.0  0.3883038512991135  0.8916382878697747  0.9981852423156855  1.0000
  C   C6        1.0  0.327539259651374  0.8313153040892731  0.9984158401253895  1.0000
  C   C7        1.0  0.6724574746673824  0.16869599836713434  0.0015945563065926723  1.0000
  C   C8        1.0  0.1687035302662707  0.6724715237530035  0.001597160761853917  1.0000
  C   C9        1.0  0.39327003254882  0.011861663296677705  0.887184516136138  1.0000
  C   C10       1.0  0.8313128168912485  0.3275419430667057  0.9984140580249561  1.0000
  C   C11       1.0  0.27620846313205766  0.7801371540334402  0.9994528742009764  1.0000
  C   C12       1.0  0.7237833484605004  0.2198555055495745  0.0005499637619052088  1.0000
  C   C13       1.0  0.2198633198676987  0.7237911970582191  0.0005592161591537387  1.0000
  C   C14       1.0  0.7801392628793309  0.276209278901426  0.9994479448769339  1.0000
  C   C15       1.0  0.011873897168534603  0.39327480189658814  0.8871900397282815  1.0000
  C   C16       1.0  0.7448712884689214  0.002559897964836424  0.31683337497094033  1.0000
  C   C17       1.0  0.25513307537036667  0.9974410927583082  0.6831587521336716  1.0000
  C   C18       1.0  0.9974411007134518  0.25513097079996055  0.6831615396114045  1.0000
  C   C19       1.0  0.0025580165102354947  0.7448642102107498  0.3168421115284802  1.0000
  C   C20       1.0  0.9881234556758044  0.6067309275735154  0.11280641255365258  1.0000
  C   C21       1.0  0.8197866584522016  0.01053970697465447  0.3260919818190188  1.0000
  C   C22       1.0  0.1802215531545883  0.9894728007461852  0.6739069371125128  1.0000
  C   C23       1.0  0.989465205797778  0.18021601622461256  0.6739100185852466  1.0000
  C   C24       1.0  0.010527081575212097  0.8197778930872062  0.32609596180648037  1.0000
  C   C25       1.0  0.6867628163308196  0.009284136862795733  0.25172041495936537  1.0000
  C   C26       1.0  0.31324010611466946  0.9907085876207374  0.7482648160180645  1.0000
  C   C27       1.0  0.9907150183899134  0.3132420582289369  0.7482732588045947  1.0000
  C   C28       1.0  0.009285910640301194  0.6867578193769434  0.25172904853040745  1.0000
  C   C29       1.0  0.6699130851822588  0.9763354710413739  0.17264066501481082  1.0000
  C   C30       1.0  0.33009301759180687  0.023652483285665854  0.8273440216363995  1.0000
  C   C31       1.0  0.02365760994872799  0.3300922847157253  0.8273529324658568  1.0000
  C   C32       1.0  0.9763395848058992  0.6699093465129736  0.17264971732203813  1.0000
  C   C33       1.0  0.006862926880408799  0.8845424223396848  0.3899127113166544  1.0000
  C   C34       1.0  0.99311987837639  0.11544369321700278  0.6100873538230329  1.0000
  C   C35       1.0  0.115455751693851  0.993134711616129  0.6100869414375368  1.0000
  C   C36       1.0  0.8845547240059871  0.006882030306257989  0.3899152231454083  1.0000
  Cl  Cl1       1.0  0.7096653370455073  0.9882452685417462  0.3838277336376451  1.0000
  Cl  Cl2       1.0  0.2855383786012382  0.08306860196643126  0.8671995278660064  1.0000
  Cl  Cl3       1.0  0.08307005875668952  0.2855341401608555  0.8672036967741974  1.0000
  Cl  Cl4       1.0  0.916923268883117  0.7144674232033451  0.13280372955018288  1.0000
  Cl  Cl5       1.0  0.714469253833208  0.916920952385297  0.13279286459528103  1.0000
  Cl  Cl6       1.0  0.2903310548216851  0.01174310632017488  0.6161532616354038  1.0000
  Cl  Cl7       1.0  0.011751396901630094  0.2903313067280067  0.6161627804566479  1.0000
  Cl  Cl8       1.0  0.9882575482591064  0.7096601935502845  0.3838429755320831  1.0000
  O   O1        1.0  0.5805490746413893  0.04059154434015963  0.14182268292343986  1.0000
  O   O2        1.0  0.41561406312836613  0.05487496436059296  0.9618260150876524  1.0000
  O   O3        1.0  0.054879658623491395  0.4156122070527246  0.961835008203373  1.0000
  O   O4        1.0  0.9451151014331957  0.5843945882102021  0.03816449348907023  1.0000
  O   O5        1.0  0.5843929517094891  0.9451084844341225  0.03815284826926316  1.0000
  O   O6        1.0  0.41018349973217727  0.9638645379394929  0.049888186999076746  1.0000
  O   O7        1.0  0.5898130699099793  0.03615222855860611  0.9501240239106181  1.0000
  O   O8        1.0  0.03614740708729868  0.5898206677521713  0.9501290026288134  1.0000
  O   O9        1.0  0.4194474948569393  0.9593896908126001  0.8581569492139708  1.0000
  O   O10       1.0  0.9638551209870626  0.41017975352502833  0.049879651935341815  1.0000
  O   O11       1.0  0.41445389678070643  0.8670587700480255  0.9464430651512004  1.0000
  O   O12       1.0  0.5855434026830295  0.13295330864294644  0.05356830089110082  1.0000
  O   O13       1.0  0.1329550568653417  0.5855494508091681  0.05357728466429284  1.0000
  O   O14       1.0  0.8670548009926617  0.4144495759291402  0.9464334021559254  1.0000
  O   O15       1.0  0.9594030397470164  0.41945704911701387  0.8581672948285188  1.0000
  O   O16       1.0  0.04953854293261628  0.955686789608798  0.4060505593025568  1.0000
  O   O17       1.0  0.9504517850835156  0.04430171265634897  0.5939610640304949  1.0000
  O   O18       1.0  0.04431358667541467  0.9504595280197423  0.5939523344753967  1.0000
  O   O19       1.0  0.9556967202012387  0.04954951668869961  0.40604152324930715  1.0000
  O   O20       1.0  0.0405924571575085  0.5805473168653849  0.14183009641684668  1.0000
  O   O21       1.0  0.9618723196565568  0.8661683046088273  0.42212388325072703  1.0000
  O   O22       1.0  0.038101571483558395  0.13381755077961097  0.5778679373508951  1.0000
  O   O23       1.0  0.1338312385648592  0.03812460905592728  0.5778740827245343  1.0000
  O   O24       1.0  0.8661818270429646  0.9619019698026677  0.42213641936353236  1.0000
