data_image0
_chemical_formula_structural       Cu4H36C48S4N16O8
_chemical_formula_sum              "Cu4 H36 C48 S4 N16 O8"
_cell_length_a       7.858888876
_cell_length_b       10.235026696383379
_cell_length_c       15.7005
_cell_angle_alpha    94.4289250721005
_cell_angle_beta     90.0
_cell_angle_gamma    90.0

_space_group_name_H-M_alt    "P 1"
_space_group_IT_number       1

loop_
  _space_group_symop_operation_xyz
  'x, y, z'

loop_
  _atom_site_type_symbol
  _atom_site_label
  _atom_site_symmetry_multiplicity
  _atom_site_fract_x
  _atom_site_fract_y
  _atom_site_fract_z
  _atom_site_occupancy
  Cu  Cu1       1.0  0.329477874144203  0.22624510597914588  0.8006399810928357  1.0000
  Cu  Cu2       1.0  0.8294849441003862  0.27376352617453387  0.1993659628338662  1.0000
  Cu  Cu3       1.0  0.6705159066560145  0.7737574588787837  0.1993647975571733  1.0000
  Cu  Cu4       1.0  0.17051138158885246  0.7262458984264697  0.800634702683162  1.0000
  H   H1        1.0  0.324254489433244  0.9458586128221497  0.6114321906558473  1.0000
  H   H2        1.0  0.8242501073888421  0.5541398446666292  0.3885645152351032  1.0000
  H   H3        1.0  0.6757532882565727  0.054141012145898094  0.388564160007185  1.0000
  H   H4        1.0  0.17574876318941085  0.44585978030141854  0.6114350200398846  1.0000
  H   H5        1.0  0.49990400195092394  0.2421116916954489  0.9843596410369386  1.0000
  H   H6        1.0  0.9999059821290717  0.2578871408252752  0.015643898802935003  1.0000
  H   H7        1.0  0.5000923237383079  0.7578840134194138  0.0156416076773596  1.0000
  H   H8        1.0  8.525378212450003e-05  0.7421085642895875  0.98435798683375  1.0000
  H   H9        1.0  0.7317968342271828  0.11972799558241579  0.0512703273814523  1.0000
  H   H10       1.0  0.23179485404903497  0.3802688770117157  0.9487324768720953  1.0000
  H   H11       1.0  0.2682058536845987  0.8802716293856321  0.9487304817383161  1.0000
  H   H12       1.0  0.7682001991956895  0.6197219282866655  0.051267251337584696  1.0000
  H   H13       1.0  0.8568399561627802  0.922025905477298  0.968956681697385  1.0000
  H   H14       1.0  0.3568316137620898  0.5779705920848882  0.0310450209087563  1.0000
  H   H15       1.0  0.1431690939715509  0.0779756794173423  0.031044863008702402  1.0000
  H   H16       1.0  0.6431698017051843  0.4220182532869075  0.9689546086369916  1.0000
  H   H17       1.0  0.7439690384037976  0.8555177565430723  0.8228558412657067  1.0000
  H   H18       1.0  0.24396451333662847  0.6444816809089957  0.17714664625871987  1.0000
  H   H19       1.0  0.2560387392860264  0.1444818684249753  0.17714687862122958  1.0000
  H   H20       1.0  0.7560292674635891  0.3555179440590521  0.8228528890162607  1.0000
  H   H21       1.0  0.5152293236217533  0.8904926465569574  0.7079577939898202  1.0000
  H   H22       1.0  0.015224798554591204  0.6095087508217033  0.2920435183537577  1.0000
  H   H23       1.0  0.48477845406806364  0.1095108982642685  0.292041301690638  1.0000
  H   H24       1.0  0.9847689822456263  0.390488914219759  0.7079559182572909  1.0000
  H   H25       1.0  0.29641722090180184  0.8852351434769827  0.4709732783067651  1.0000
  H   H26       1.0  0.7964102939683784  0.614770173754863  0.5290250467527217  1.0000
  H   H27       1.0  0.7035867394544866  0.11476644141765749  0.5290263556321548  1.0000
  H   H28       1.0  0.20358348683183186  0.3852333710663629  0.4709772335396849  1.0000
  H   H29       1.0  0.14533606697100512  0.9133875290280854  0.3165120118136712  1.0000
  H   H30       1.0  0.6453265951485607  0.5866148483138715  0.6834855283275303  1.0000
  H   H31       1.0  0.8546704382743047  0.0866130759032586  0.6834875727932825  1.0000
  H   H32       1.0  0.3546710029851781  0.4133828167275837  0.3165158190506929  1.0000
  H   H33       1.0  0.007110419918348  0.1617223626814663  0.33171561344923356  1.0000
  H   H34       1.0  0.5071098552074744  0.3382784297658503  0.6682797450634865  1.0000
  H   H35       1.0  0.9928922679934333  0.838276282323285  0.6682819617266134  1.0000
  H   H36       1.0  0.4928966500378352  0.6617153154224197  0.3317207680644785  1.0000
  C   C1        1.0  0.5595612903281337  0.1578368082150874  0.949449377511506  1.0000
  C   C2        1.0  0.05955931014999291  0.3421561445258661  0.050548134035054204  1.0000
  C   C3        1.0  0.4404401251391335  0.8421549770465971  0.050551036952533906  1.0000
  C   C4        1.0  0.9404331982057175  0.6578405405522928  0.9494512532440353  1.0000
  C   C5        1.0  0.6884637364606476  0.08870627750229688  0.9869399730370603  1.0000
  C   C6        1.0  0.18845793894897875  0.41129157505513797  0.013059695936505003  1.0000
  C   C7        1.0  0.31154022389564073  0.9112923675024546  0.0130601498283482  1.0000
  C   C8        1.0  0.8115371142957459  0.5887021701331392  0.9869395433466864  1.0000
  C   C9        1.0  0.7561043416896354  0.978294417937576  0.9413373774076348  1.0000
  C   C10       1.0  0.256104906400509  0.5217059994777884  0.05866261175919621  1.0000
  C   C11       1.0  0.24389707377763165  0.0217052070304717  0.0586634317121266  1.0000
  C   C12       1.0  0.7438901468442155  0.47828578578388903  0.9413352550152752  1.0000
  C   C13       1.0  0.6930572611394725  0.9406863665488672  0.8603122897734679  1.0000
  C   C14       1.0  0.19305146362779624  0.5593111109766085  0.1396843667855094  1.0000
  C   C15       1.0  0.3069517889948586  0.0593122784558844  0.1396865592471599  1.0000
  C   C16       1.0  0.8069474069504565  0.44068263421166165  0.8603129617305001  1.0000
  C   C17       1.0  0.5641064621155962  0.0160782577881164  0.8265009280496045  1.0000
  C   C18       1.0  0.0641070268264698  0.4839225346592073  0.1735007996870266  1.0000
  C   C19       1.0  0.43589622579618503  0.9839203872166351  0.173499194815804  1.0000
  C   C20       1.0  0.9358892988627618  0.5160761103455442  0.8264967754888134  1.0000
  C   C21       1.0  0.4928228482562887  0.9861076652920387  0.7421536176389196  1.0000
  C   C22       1.0  0.9928248284344365  0.5138927521233327  0.2578419130711751  1.0000
  C   C23       1.0  0.5071836569890209  0.0138929396393053  0.25784341927846555  1.0000
  C   C24       1.0  0.007172769699309402  0.48610687284471504  0.7421576222038055  1.0000
  C   C25       1.0  0.24926551716265524  0.1364481293290396  0.5871293855177981  1.0000
  C   C26       1.0  0.749256045340218  0.363548743265099  0.412870234123794  1.0000
  C   C27       1.0  0.7507384431936333  0.8635524756023044  0.4128701990891486  1.0000
  C   C28       1.0  0.2507390079045067  0.6364508817029488  0.5871318488407482  1.0000
  C   C29       1.0  0.2004850844515218  0.0863533856299696  0.500977127127193  1.0000
  C   C30       1.0  0.7004819748516342  0.4136493667439396  0.4990240623509763  1.0000
  C   C31       1.0  0.7995150585712381  0.9136462393380781  0.4990224081477876  1.0000
  C   C32       1.0  0.2995207130601473  0.58635319811399  0.5009768947646833  1.0000
  C   C33       1.0  0.22905528102036504  0.9708525766720797  0.4518553971900303  1.0000
  C   C34       1.0  0.7290496265314561  0.5291517605964629  0.5481447893046649  1.0000
  C   C35       1.0  0.7709486793359235  0.0291490082225536  0.5481435998264957  1.0000
  C   C36       1.0  0.2709492440467969  0.4708488443348741  0.4518567060694565  1.0000
  C   C37       1.0  0.1516397570704129  0.9851492611891074  0.37108852437908274  1.0000
  C   C38       1.0  0.6516328301369896  0.514851156226257  0.6289108278653545  1.0000
  C   C39       1.0  0.8483642032858827  0.0148484038523478  0.628909638387185  1.0000
  C   C40       1.0  0.34836858533027754  0.4851504286683762  0.37109135376312  1.0000
  C   C41       1.0  0.08143644859955403  0.1081771682191857  0.3756511138484058  1.0000
  C   C42       1.0  0.581432066555152  0.39182264426483465  0.6243467430219098  1.0000
  C   C43       1.0  0.9185649668677132  0.8918224567488551  0.624347147581794  1.0000
  C   C44       1.0  0.4185706213566292  0.6081750207766206  0.3756546043563134  1.0000
  C   C45       1.0  0.4099090915813549  0.5189033044528628  0.8195896411866102  1.0000
  C   C46       1.0  0.9099110717595027  0.9810931931093234  0.1804120614195313  1.0000
  C   C47       1.0  0.590088506552384  0.48109534055188863  0.1804117555235862  1.0000
  C   C48       1.0  0.0900827090407148  0.0189054518954279  0.8195867876010894  1.0000
  S   S1        1.0  0.4471535423705647  0.6763883058448882  0.8302645810296171  1.0000
  S   S2        1.0  0.9471542501041983  0.8236258310566099  0.1697392833966873  1.0000
  S   S3        1.0  0.5528402384296527  0.3236201387928119  0.1697404936121814  1.0000
  S   S4        1.0  0.0528344409179837  0.1763904532874605  0.8302655489784527  1.0000
  N   N1        1.0  0.4984317836535866  0.12383110190037878  0.8711329422312843  1.0000
  N   N2        1.0  0.9984274016091848  0.3761696905469378  0.1288649639709973  1.0000
  N   N3        1.0  0.5015734491472161  0.8761675431043726  0.1288659067893363  1.0000
  N   N4        1.0  0.0015625618575044  0.6238289544578137  0.8711332481272366  1.0000
  N   N5        1.0  0.4009065466775823  0.0765243537768114  0.7098227943739133  1.0000
  N   N6        1.0  0.9009034370776876  0.4234754587072159  0.290177610185971  1.0000
  N   N7        1.0  0.5990999585677275  0.9234723313013544  0.2901765929051692  1.0000
  N   N8        1.0  0.0990954335005654  0.5765251462241281  0.7098219744209828  1.0000
  N   N9        1.0  0.3281379900758382  0.0435593684818514  0.632795016002362  1.0000
  N   N10       1.0  0.8281336080314363  0.4564414239654723  0.36720607481187534  1.0000
  N   N11       1.0  0.6718697876139788  0.956442216412789  0.36720270716937625  1.0000
  N   N12       1.0  0.17186399010230966  0.54355624107599  0.6327933617991732  1.0000
  N   N13       1.0  0.3803222118495314  0.40537847653051523  0.810374204810728  1.0000
  N   N14       1.0  0.880312740027094  0.0946468149991873  0.18962811930265389  1.0000
  N   N15       1.0  0.6196919280628352  0.5946329079970808  0.18962337475827698  1.0000
  N   N16       1.0  0.1196746785505738  0.9053802489411282  0.8103689757330272  1.0000
  O   O1        1.0  0.2266579955647146  0.25192700406247326  0.615655953758278  1.0000
  O   O2        1.0  0.7266523410758057  0.24807476834813966  0.3843432756207505  1.0000
  O   O3        1.0  0.7733396025690311  0.7480716409422783  0.3843448060295174  1.0000
  O   O4        1.0  0.27334143972441194  0.7519258365832044  0.6156569459085901  1.0000
  O   O5        1.0  0.1099188464972514  0.171211347271111  0.4542142496211383  1.0000
  O   O6        1.0  0.6099157368973565  0.3287884652129094  0.5457848810939581  1.0000
  O   O7        1.0  0.8900812965255087  0.8287872977336405  0.5457845993994822  1.0000
  O   O8        1.0  0.390089495903439  0.6712121397184276  0.4542159773577695  1.0000
