data_image0
_chemical_formula_structural       Zn4H44C60N12Cl8O4
_chemical_formula_sum              "Zn4 H44 C60 N12 Cl8 O4"
_cell_length_a       7.331159401479211
_cell_length_b       10.225668802984522
_cell_length_c       19.8700012580391
_cell_angle_alpha    89.99985961358384
_cell_angle_beta     89.99982282065912
_cell_angle_gamma    92.00618311329247

_space_group_name_H-M_alt    "P 1"
_space_group_IT_number       1

loop_
  _space_group_symop_operation_xyz
  'x, y, z'

loop_
  _atom_site_type_symbol
  _atom_site_label
  _atom_site_symmetry_multiplicity
  _atom_site_fract_x
  _atom_site_fract_y
  _atom_site_fract_z
  _atom_site_occupancy
  Zn  Zn1       1.0  0.7579792409009516  0.7090883820622979  0.7320503976632649  1.0000
  Zn  Zn2       1.0  0.7420258450682626  0.790919248301492  0.2320539092568054  1.0000
  Zn  Zn3       1.0  0.24202254513645025  0.290914194810739  0.2679498339898102  1.0000
  Zn  Zn4       1.0  0.25797442862916853  0.20908039417883367  0.7679468256702433  1.0000
  H   H1        1.0  0.37752153409377354  0.6747225036887767  0.7837275357894595  1.0000
  H   H2        1.0  0.12248296939997522  0.8252715421338761  0.28373365795274447  1.0000
  H   H3        1.0  0.6224732342461226  0.3252761650689635  0.2162686697003052  1.0000
  H   H4        1.0  0.8775250925558356  0.17472026490400333  0.7162695933309634  1.0000
  H   H5        1.0  0.21123579047358018  0.5445625873797226  0.8695389826127524  1.0000
  H   H6        1.0  0.2887677839672308  0.9554271219860906  0.3695482697182796  1.0000
  H   H7        1.0  0.7887576138851672  0.4554360825771298  0.13045722287780134  1.0000
  H   H8        1.0  0.7112335075264796  0.04456566957260579  0.6304569946536275  1.0000
  H   H9        1.0  0.7296202923932285  0.3825050651136337  0.9261442184127869  1.0000
  H   H10       1.0  0.7703863378028333  0.11750108736446657  0.4261504347406768  1.0000
  H   H11       1.0  0.2703762849871296  0.6175024092105587  0.07385450342648169  1.0000
  H   H12       1.0  0.22961544824529062  0.8825014895147589  0.5738472805562365  1.0000
  H   H13       1.0  0.8714996321624257  0.5195012322555498  0.8373237226287313  1.0000
  H   H14       1.0  0.6285073341452049  0.9805068561264675  0.3373281300942493  1.0000
  H   H15       1.0  0.128497093572463  0.4805091776579929  0.16267550247980717  1.0000
  H   H16       1.0  0.3714997100186253  0.0194918018355139  0.6626695852021312  1.0000
  H   H17       1.0  0.0938004302567634  0.45396947782928254  0.9447721179973101  1.0000
  H   H18       1.0  0.4062104855912595  0.046033034488345885  0.4447722293754168  1.0000
  H   H19       1.0  0.906203984832054  0.5460311395814158  0.05522962346918799  1.0000
  H   H20       1.0  0.5937847278058045  0.9539744410337219  0.5552269957358644  1.0000
  H   H21       1.0  0.08302070997557111  0.16642621153049925  0.08917397217923198  1.0000
  H   H22       1.0  0.4169864655998055  0.33357903541897116  0.5891741444281776  1.0000
  H   H23       1.0  0.9169836062216633  0.8335724488272405  0.9108247496611878  1.0000
  H   H24       1.0  0.5830109317657772  0.6664176738615666  0.4108296101297879  1.0000
  H   H25       1.0  0.5934367034753266  0.25302723885919676  0.9850175514940314  1.0000
  H   H26       1.0  0.9065660542040775  0.2469659053777917  0.4850224389561361  1.0000
  H   H27       1.0  0.40656644654537644  0.7469753368159644  0.014982176887023996  1.0000
  H   H28       1.0  0.09343139262016818  0.7530317824366576  0.5149798057874831  1.0000
  H   H29       1.0  0.1925024279826744  0.9858892651645585  0.11406870453251368  1.0000
  H   H30       1.0  0.3075011889206963  0.51411344630516  0.6140679007230643  1.0000
  H   H31       1.0  0.807499061371395  0.014107440544641697  0.8859244813272366  1.0000
  H   H32       1.0  0.6924991836983382  0.4858881532454689  0.3859288080328297  1.0000
  H   H33       1.0  0.35330305283226704  0.8356756158426535  0.18866960863491034  1.0000
  H   H34       1.0  0.146702953053925  0.6643325972603478  0.6886667858612083  1.0000
  H   H35       1.0  0.6466958074553733  0.1643230493202168  0.8113255903100334  1.0000
  H   H36       1.0  0.8533044372754761  0.3356729104130097  0.31133092943060336  1.0000
  H   H37       1.0  0.8581587701057387  0.0010477608459495994  0.13784046146876958  1.0000
  H   H38       1.0  0.641844564210267  0.4989539441683135  0.6378427536107835  1.0000
  H   H39       1.0  0.1418386767227915  0.9989499269709796  0.8621607767323877  1.0000
  H   H40       1.0  0.3581558083744625  0.5010476553624983  0.3621620074848123  1.0000
  H   H41       1.0  0.7213537363648614  0.16809134870891998  0.06520832984086408  1.0000
  H   H42       1.0  0.7786527964792072  0.3319077757803015  0.5652111802934243  1.0000
  H   H43       1.0  0.2786479507616591  0.8319092711000098  0.9347934116272042  1.0000
  H   H44       1.0  0.22134338526619501  0.6680918702924145  0.4347915677209072  1.0000
  C   C1        1.0  0.7108358217106173  0.0027821542884111992  0.13103732490755246  1.0000
  C   C2        1.0  0.7891716130779118  0.49721860208588703  0.6310374360745852  1.0000
  C   C3        1.0  0.2891645508955563  0.9972194452547857  0.8689624034757342  1.0000
  C   C4        1.0  0.2108366466975227  0.5027771190789635  0.36896329885035317  1.0000
  C   C5        1.0  0.4492223584442598  0.6083541721952982  0.8166027233544778  1.0000
  C   C6        1.0  0.05078645136519101  0.8916494935290089  0.3166108567547211  1.0000
  C   C7        1.0  0.5507698797293656  0.3916484130740231  0.18339650176164204  1.0000
  C   C8        1.0  0.9492165008230133  0.1083491680117419  0.6833944076124892  1.0000
  C   C9        1.0  0.3575210364400264  0.5339808710960695  0.8649747381111366  1.0000
  C   C10       1.0  0.14247570755931352  0.9660078882116778  0.3649786446467117  1.0000
  C   C11       1.0  0.642476558760194  0.4660197523201148  0.1350229771894433  1.0000
  C   C12       1.0  0.8575199796724037  0.03398197256403529  0.635022090289226  1.0000
  C   C13       1.0  0.45373140813622115  0.44791870630723457  0.9058604922717846  1.0000
  C   C14       1.0  0.046275598970744604  0.05208106551184952  0.4058655409577695  1.0000
  C   C15       1.0  0.5462635579997083  0.5520838765638558  0.09413873284275807  1.0000
  C   C16       1.0  0.9537260881622064  0.947919554300796  0.5941346906966131  1.0000
  C   C17       1.0  0.6431870296913617  0.44421560970774  0.8958986345061745  1.0000
  C   C18       1.0  0.8568153706900148  0.05578286698981569  0.395901810104128  1.0000
  C   C19       1.0  0.3568068691810566  0.5557928455461222  0.10409958406277299  1.0000
  C   C20       1.0  0.14318879715483493  0.94421285777981  0.6040959051957842  1.0000
  C   C21       1.0  0.7252562444502857  0.522382503825419  0.8466353295408593  1.0000
  C   C22       1.0  0.7747546355301651  0.97762357806026  0.3466441012670244  1.0000
  C   C23       1.0  0.274740283477847  0.47762399196857785  0.15336339229906315  1.0000
  C   C24       1.0  0.22524831667090692  0.022375083487922595  0.6533581434727935  1.0000
  C   C25       1.0  0.35936486718328803  0.3640741706909551  0.9566190267844659  1.0000
  C   C26       1.0  0.14063902888901947  0.1359263322484026  0.4566223497928517  1.0000
  C   C27       1.0  0.6406423747787214  0.6359284013856196  0.043381204865461584  1.0000
  C   C28       1.0  0.8593518452905899  0.8640762542126054  0.5433798949514353  1.0000
  C   C29       1.0  0.1739387280605698  0.3797093838608703  0.9682270748143293  1.0000
  C   C30       1.0  0.326073252980926  0.12029105475304647  0.4682307069316777  1.0000
  C   C31       1.0  0.8260576515108866  0.62029417634254  0.03177164702754709  1.0000
  C   C32       1.0  0.673936271879782  0.8797027081572536  0.5317680149088558  1.0000
  C   C33       1.0  0.16692839263471632  0.2129825556445724  0.050304243775471484  1.0000
  C   C34       1.0  0.333076138950382  0.28701799235860637  0.5503020559164397  1.0000
  C   C35       1.0  0.8330707148947525  0.7870210021581342  0.9496954846072893  1.0000
  C   C36       1.0  0.6669157036118776  0.7129767646728665  0.44969565939120304  1.0000
  C   C37       1.0  0.3520090828671556  0.1921044432477288  0.04080339593326699  1.0000
  C   C38       1.0  0.1479968936370355  0.30789615030270306  0.5408064278593229  1.0000
  C   C39       1.0  0.647992604278663  0.8078961765723489  0.9591938160937229  1.0000
  C   C40       1.0  0.8520074720017021  0.692103488579036  0.4591948103365978  1.0000
  C   C41       1.0  0.4489195167677381  0.26801390949425036  0.9930453047807286  1.0000
  C   C42       1.0  0.05108372274180081  0.23197956446126258  0.49304760216646304  1.0000
  C   C43       1.0  0.551087725200702  0.7319886625860405  0.0069534170555058976  1.0000
  C   C44       1.0  0.9489096321497144  0.7680181269567257  0.5069521262233607  1.0000
  C   C45       1.0  0.44158234844712047  0.09330903904859866  0.08259656007365378  1.0000
  C   C46       1.0  0.05842332138321641  0.40669232734846616  0.5825975563633603  1.0000
  C   C47       1.0  0.5584222150198173  0.9066945139650712  0.9174001486785737  1.0000
  C   C48       1.0  0.9415714469416729  0.5933063414006056  0.4174021720250281  1.0000
  C   C49       1.0  0.34031409506765437  0.9961732913127006  0.11786378099955638  1.0000
  C   C50       1.0  0.15968559535686216  0.5038333191944203  0.6178641675094595  1.0000
  C   C51       1.0  0.6596833023322333  0.0038234179876539998  0.8821319212187144  1.0000
  C   C52       1.0  0.8403162895828445  0.49617121473776393  0.3821365674135392  1.0000
  C   C53       1.0  0.42890114771653737  0.910279290674161  0.15971733003183175  1.0000
  C   C54       1.0  0.07110359254608768  0.5897261305292288  0.6597141864015936  1.0000
  C   C55       1.0  0.5710936700691535  0.08972035661005857  0.8402803852709791  1.0000
  C   C56       1.0  0.9288994091286541  0.4102735095615343  0.3402830256252684  1.0000
  C   C57       1.0  0.6322987366494176  0.0945544176223052  0.08970767167757997  1.0000
  C   C58       1.0  0.8677035943951098  0.4054465469532787  0.5897088157283077  1.0000
  C   C59       1.0  0.3676986607118807  0.90544229165576  0.9102970894228475  1.0000
  C   C60       1.0  0.1322997039629641  0.5945589643013207  0.41029544209187196  1.0000
  N   N1        1.0  0.6118036448965256  0.9136168796484582  0.16662914940524584  1.0000
  N   N2        1.0  0.8881977088156106  0.5863871621779139  0.6666286635386313  1.0000
  N   N3        1.0  0.3881896605470488  0.08637983324181418  0.8333695724427627  1.0000
  N   N4        1.0  0.1118068546298829  0.4136163908233711  0.3333730779259055  1.0000
  N   N5        1.0  0.0790745617096036  0.3040466826339596  0.013453207063321294  1.0000
  N   N6        1.0  0.4209207854678212  0.19595503365123074  0.5134540535145503  1.0000
  N   N7        1.0  0.9209213233203004  0.6959470922563468  0.9865500442261561  1.0000
  N   N8        1.0  0.5790713537842009  0.8040455945477875  0.48654919777272426  1.0000
  N   N9        1.0  0.6305546483460276  0.6025366681745014  0.8071109269565965  1.0000
  N   N10       1.0  0.8694482362119801  0.8974666798491239  0.30711516210872947  1.0000
  N   N11       1.0  0.36943910217401316  0.3974688514912471  0.19288628507185016  1.0000
  N   N12       1.0  0.1305627515321959  0.1025290389212117  0.6928840630009387  1.0000
  Cl  Cl1       1.0  0.521061893282905  0.7825322814418598  0.6738008687538295  1.0000
  Cl  Cl2       1.0  0.9789423250713443  0.7174756368014528  0.17380420044919725  1.0000
  Cl  Cl3       1.0  0.4789414050901826  0.21747322982141526  0.32619986616773383  1.0000
  Cl  Cl4       1.0  0.021056683549382206  0.282525963938383  0.8261965344773329  1.0000
  Cl  Cl5       1.0  0.9890007971674281  0.8194972583835207  0.7816571359061866  1.0000
  Cl  Cl6       1.0  0.5110063962406741  0.6805062113189847  0.2816600484783364  1.0000
  Cl  Cl7       1.0  0.0110062964357596  0.18050237810122377  0.21834359901693284  1.0000
  Cl  Cl8       1.0  0.4889900327722785  0.31949832740842493  0.7183411897190408  1.0000
  O   O1        1.0  0.905202871449994  0.3209268844495766  0.022553373052033993  1.0000
  O   O2        1.0  0.5948084629904926  0.17907929608882253  0.5225541142930297  1.0000
  O   O3        1.0  0.09479891458955343  0.6790756924246963  0.9774463553298033  1.0000
  O   O4        1.0  0.40518737258718573  0.8209135002712881  0.47744913699710145  1.0000
