data_image0
_chemical_formula_structural       Ni2H20C20N8O8
_chemical_formula_sum              "Ni2 H20 C20 N8 O8"
_cell_length_a       5.051445135003041
_cell_length_b       8.191230845139991
_cell_length_c       11.977034219333268
_cell_angle_alpha    92.650114663546
_cell_angle_beta     90.00005736727604
_cell_angle_gamma    89.99988676951077

_space_group_name_H-M_alt    "P 1"
_space_group_IT_number       1

loop_
  _space_group_symop_operation_xyz
  'x, y, z'

loop_
  _atom_site_type_symbol
  _atom_site_label
  _atom_site_symmetry_multiplicity
  _atom_site_fract_x
  _atom_site_fract_y
  _atom_site_fract_z
  _atom_site_occupancy
  Ni  Ni1       1.0  2.1962015921e-06  6.722180074999072e-07  0.9999991871753622  1.0000
  Ni  Ni2       1.0  0.5000024878035205  0.4999995799552722  0.4999985729719327  1.0000
  H   H1        1.0  0.3509263108980889  0.48676739185290063  0.251541754923565  1.0000
  H   H2        1.0  0.8509228574778473  0.0132233108377307  0.24845439420329998  1.0000
  H   H3        1.0  0.6490766851003897  0.5132206933381909  0.7484518198052114  1.0000
  H   H4        1.0  0.1490801384828373  0.9867832963538132  0.75154791733663  1.0000
  H   H5        1.0  0.150136577852372  0.32574852811964666  0.1937895076110152  1.0000
  H   H6        1.0  0.6501423574856914  0.1742460310124301  0.3062082395781189  1.0000
  H   H7        1.0  0.8498387032924911  0.6742457631488108  0.8062083717714543  1.0000
  H   H8        1.0  0.349850740319873  0.8257593349694833  0.6937932110253228  1.0000
  H   H9        1.0  0.2812565243386658  0.7663413896927408  0.18025878408344198  1.0000
  H   H10       1.0  0.7812481978014816  0.7336519941869711  0.3197391538842993  1.0000
  H   H11       1.0  0.7187543901733805  0.23365288232219683  0.8197382598761038  1.0000
  H   H12       1.0  0.21875479816387167  0.26635209209775473  0.680259764917686  1.0000
  H   H13       1.0  0.5691088889628945  0.7088367016650353  0.001457185429785599  1.0000
  H   H14       1.0  0.06910536920389632  0.7911630296851372  0.4985440640186737  1.0000
  H   H15       1.0  0.4308941070056278  0.29116623960648264  0.9985450496202545  1.0000
  H   H16       1.0  0.9308916878901385  0.2088300203617024  0.5014529544390953  1.0000
  H   H17       1.0  0.6838074070842666  0.4174810697764642  0.1087983176946636  1.0000
  H   H18       1.0  0.1838166128579743  0.08251476279108517  0.39120282177403715  1.0000
  H   H19       1.0  0.31618173146143397  0.5825231511937474  0.8912064491553552  1.0000
  H   H20       1.0  0.8161863831287022  0.9174796054270189  0.6087983993634154  1.0000
  C   C1        1.0  0.012068977360478102  0.42555166423866814  0.35061130999373796  1.0000
  C   C2        1.0  0.5120671982826935  0.0744454818725302  0.14938805639377506  1.0000
  C   C3        1.0  0.9879300593498145  0.5744487753675712  0.6493883677530546  1.0000
  C   C4        1.0  0.4879318384280183  0.9255550154538098  0.8506141276615224  1.0000
  C   C5        1.0  0.14608402095168324  0.447352200833258  0.23722594803115976  1.0000
  C   C6        1.0  0.6460804047971251  0.05264112015773751  0.2627709352082803  1.0000
  C   C7        1.0  0.8539070972427114  0.5526433124025446  0.7627719568538325  1.0000
  C   C8        1.0  0.353916652276979  0.9473618403560664  0.7372321352757112  1.0000
  C   C9        1.0  0.10100325999577821  0.7143720783616914  0.1457061775768906  1.0000
  C   C10       1.0  0.6009986849496728  0.7856226832239133  0.35429248729218427  1.0000
  C   C11       1.0  0.8990017156144319  0.28562593653565216  0.8542942846150154  1.0000
  C   C12       1.0  0.39900431102351064  0.2143777371407936  0.645706355019918  1.0000
  C   C13       1.0  0.7339568484483507  0.6749941379217362  0.053204659769299695  1.0000
  C   C14       1.0  0.2339551408742366  0.8249993587325406  0.44679658477445366  1.0000
  C   C15       1.0  0.26604218826758336  0.32500391545791973  0.9467974732927402  1.0000
  C   C16       1.0  0.7660478551122979  0.1749949902455299  0.5532038009268305  1.0000
  C   C17       1.0  0.783485562969865  0.5341631735990121  0.10760805688187958  1.0000
  C   C18       1.0  0.2834911467489292  0.9658400805744237  0.3923942639023963  1.0000
  C   C19       1.0  0.21650753483611856  0.4658422501030087  0.8923959000300741  1.0000
  C   C20       1.0  0.7165098695934375  0.03416043599120399  0.6076087555898084  1.0000
  N   N1        1.0  0.0161031359667447  0.5610642151911095  0.1657747646289067  1.0000
  N   N2        1.0  0.516099874794449  0.9389318518966475  0.3342246980433572  1.0000
  N   N3        1.0  0.9839038192700329  0.4389362821322322  0.8342274194293394  1.0000
  N   N4        1.0  0.4839011415425532  0.061071089375623396  0.6657775370059439  1.0000
  N   N5        1.0  0.9341923837304051  0.7863627132724034  0.07707986659407598  1.0000
  N   N6        1.0  0.4341871838664916  0.7136305547978593  0.4229181850949998  1.0000
  N   N7        1.0  0.065810612245258  0.21363646587892757  0.9229181147852187  1.0000
  N   N8        1.0  0.5658197713774343  0.2863661804052882  0.577079745292508  1.0000
  O   O1        1.0  0.7616979974923695  0.43843747914002057  0.3563599566576201  1.0000
  O   O2        1.0  0.2616953080587621  0.061560661437162885  0.1436379499731899  1.0000
  O   O3        1.0  0.2383010392154503  0.5615642016795945  0.6436405820219733  1.0000
  O   O4        1.0  0.7383096675515901  0.9384373727002142  0.8563633476548843  1.0000
  O   O5        1.0  0.16388108761232442  0.3830210001177505  0.4286472667511135  1.0000
  O   O6        1.0  0.6638751331935567  0.11697352937092381  0.0713496552176522  1.0000
  O   O7        1.0  0.836117949097826  0.6169794202484483  0.571351575559511  1.0000
  O   O8        1.0  0.3361239035221005  0.8830244855286722  0.9286508069720512  1.0000
