data_image0
_chemical_formula_structural       Ag4H36C24S4N4Cl4O20
_chemical_formula_sum              "Ag4 H36 C24 S4 N4 Cl4 O20"
_cell_length_a       6.951819351706728
_cell_length_b       10.23687663905692
_cell_length_c       15.63629189000468
_cell_angle_alpha    89.999974016589
_cell_angle_beta     89.99992917216392
_cell_angle_gamma    109.85655498457292

_space_group_name_H-M_alt    "P 1"
_space_group_IT_number       1

loop_
  _space_group_symop_operation_xyz
  'x, y, z'

loop_
  _atom_site_type_symbol
  _atom_site_label
  _atom_site_symmetry_multiplicity
  _atom_site_fract_x
  _atom_site_fract_y
  _atom_site_fract_z
  _atom_site_occupancy
  Ag  Ag1       1.0  0.018309503686879315  0.623699228576591  0.45947392910397156  1.0000
  Ag  Ag2       1.0  0.3944312896952411  0.376094128306228  0.5404348736983096  1.0000
  Ag  Ag3       1.0  0.8944318312064752  0.3760934058788976  0.9595641595995659  1.0000
  Ag  Ag4       1.0  0.5183120470003006  0.6237001764890453  0.0405259974525691  1.0000
  H   H1        1.0  0.7946672514077451  0.897603539134103  0.3403450472655435  1.0000
  H   H2        1.0  0.896716327862947  0.10249289416560711  0.6595998581731237  1.0000
  H   H3        1.0  0.39671708280303625  0.10249212590049693  0.8403998947730145  1.0000
  H   H4        1.0  0.29466864575891794  0.8976030433544578  0.15965528565961756  1.0000
  H   H5        1.0  0.33410001609129136  0.5473084914314514  0.37709178973062046  1.0000
  H   H6        1.0  0.7867764142913387  0.45285046804540485  0.6230221102810489  1.0000
  H   H7        1.0  0.2867756013251821  0.45284964456880056  0.8769782383669521  1.0000
  H   H8        1.0  0.834101748573474  0.5473082765372016  0.1229079861813389  1.0000
  H   H9        1.0  0.5141600239389421  0.6767880226534261  0.4413703880845787  1.0000
  H   H10       1.0  0.8370312385976746  0.3232550453865671  0.5587376928849324  1.0000
  H   H11       1.0  0.33703359462238325  0.32325516374235264  0.9412620271751351  1.0000
  H   H12       1.0  0.014161775682538383  0.6767876791768047  0.0586295249625408  1.0000
  H   H13       1.0  0.987468278860824  0.011451986300784301  0.1783860108766646  1.0000
  H   H14       1.0  0.9759333857398503  0.9885180510534184  0.8214763195361028  1.0000
  H   H15       1.0  0.47593379422843907  0.9885185653709954  0.678523126430747  1.0000
  H   H16       1.0  0.4874657038543263  0.0114502076118939  0.3216138401964486  1.0000
  H   H17       1.0  0.863303058337671  0.9222609008492314  0.0847108866836734  1.0000
  H   H18       1.0  0.9410964552169149  0.07755834460765242  0.9152148016399622  1.0000
  H   H19       1.0  0.44109719531835634  0.07755900024227463  0.5847849343573586  1.0000
  H   H20       1.0  0.36330210984128547  0.9222600196163314  0.41528876169200396  1.0000
  H   H21       1.0  0.7503462087425206  0.0245312090663248  0.14505592108635304  1.0000
  H   H22       1.0  0.7257586284681281  0.9753037766294951  0.8548845667182475  1.0000
  H   H23       1.0  0.2257577166367995  0.9753043412446588  0.6451150205194408  1.0000
  H   H24       1.0  0.2503444349402599  0.024528341587931407  0.35494341673442165  1.0000
  H   H25       1.0  0.6174374421412027  0.27804045082591233  0.3495219161909943  1.0000
  H   H26       1.0  0.33956773853320515  0.7218989416222075  0.6504135977830144  1.0000
  H   H27       1.0  0.8395677499945435  0.7218994235369962  0.8495866418722287  1.0000
  H   H28       1.0  0.11743311493177801  0.2780399686105994  0.1504786982800539  1.0000
  H   H29       1.0  0.6396138708711236  0.4140266821847762  0.2737686353183832  1.0000
  H   H30       1.0  0.22570583442131933  0.5860361505399966  0.7262180668294318  1.0000
  H   H31       1.0  0.7257061140528195  0.5860367467356796  0.7737816361992956  1.0000
  H   H32       1.0  0.13961019478697523  0.41402504722371003  0.2262319265379773  1.0000
  H   H33       1.0  0.39478455406406715  0.3190780366727709  0.320304685980652  1.0000
  H   H34       1.0  0.07592805573139574  0.6810431199317721  0.6796629383395043  1.0000
  H   H35       1.0  0.575926732161193  0.6810436458747731  0.8203368186609126  1.0000
  H   H36       1.0  0.8947817701363338  0.31907773596582  0.1796944849525275  1.0000
  C   C1        1.0  0.5852087531106848  0.6872458617595854  0.3093077261834978  1.0000
  C   C2        1.0  0.8978965581957539  0.3128324816332723  0.6907606672269964  1.0000
  C   C3        1.0  0.39789390729657015  0.31282760583859215  0.8092377434452658  1.0000
  C   C4        1.0  0.0852075603718632  0.6872432419017686  0.1906921447504786  1.0000
  C   C5        1.0  0.7161282774013886  0.8188003164858914  0.2940278331339528  1.0000
  C   C6        1.0  0.8970769734044522  0.181209358521329  0.7059759312560274  1.0000
  C   C7        1.0  0.3970732968434447  0.18121385288518616  0.7940218794699945  1.0000
  C   C8        1.0  0.216127549999655  0.8187987122022026  0.20597256634312797  1.0000
  C   C9        1.0  0.7264256011693891  0.8320303723055532  0.2032326442910062  1.0000
  C   C10       1.0  0.894305478263526  0.16791837958028571  0.79676536220191  1.0000
  C   C11       1.0  0.39430579933303983  0.16791885664416384  0.7032343726110993  1.0000
  C   C12       1.0  0.22642403317379237  0.8320275925318089  0.2967677455990412  1.0000
  C   C13       1.0  0.4969152078989368  0.606635987396338  0.3866534661378225  1.0000
  C   C14       1.0  0.8901012891118047  0.3934388820625046  0.6134322211696599  1.0000
  C   C15       1.0  0.3900990037162161  0.3934380440619166  0.8865668093480181  1.0000
  C   C16       1.0  0.9969160550915462  0.6066368254585655  0.113347481824583  1.0000
  C   C17       1.0  0.8391439992382461  0.9540144730874474  0.1496808960062381  1.0000
  C   C18       1.0  0.8850641842670939  0.04590382641313791  0.8502480120034478  1.0000
  C   C19       1.0  0.3850646945402332  0.04590438410627231  0.6497511246302705  1.0000
  C   C20       1.0  0.33914328058148163  0.9540136898008527  0.3503193957269631  1.0000
  C   C21       1.0  0.5601529713660511  0.36126171861742057  0.33101241600638787  1.0000
  C   C22       1.0  0.19900118655666443  0.6387597778913376  0.6689615245325553  1.0000
  C   C23       1.0  0.6990012636337826  0.638760287768335  0.8310388170151342  1.0000
  C   C24       1.0  0.060150017185002014  0.361261208566269  0.16898692608786794  1.0000
  S   S1        1.0  0.6157671392149879  0.48015739210408975  0.4202988973980765  1.0000
  S   S2        1.0  0.13554256943918122  0.5197941507466481  0.5797159757248522  1.0000
  S   S3        1.0  0.6355423307983444  0.5197945260802186  0.9202837965011952  1.0000
  S   S4        1.0  0.11576881641627784  0.480157016861213  0.07970037880606641  1.0000
  N   N1        1.0  0.6099677617798777  0.7143791425078377  0.16745183189892995  1.0000
  N   N2        1.0  0.8957039628966045  0.28557770754895984  0.8326050436546594  1.0000
  N   N3        1.0  0.3957034916408945  0.2855792771861445  0.6673946554005425  1.0000
  N   N4        1.0  0.10996946361059669  0.7143773475375783  0.3325480173729146  1.0000
  Cl  Cl1       1.0  0.765424774456406  0.7936063251291048  0.5845001445328037  1.0000
  Cl  Cl2       1.0  0.9714412960879456  0.20643719911451092  0.4153897481768923  1.0000
  Cl  Cl3       1.0  0.4714420368093003  0.20643785501331285  0.08460941416991827  1.0000
  Cl  Cl4       1.0  0.26542578311239146  0.7936064822556119  0.9155001145004533  1.0000
  O   O1        1.0  0.51821670701176  0.6215138038071898  0.23350013906617306  1.0000
  O   O2        1.0  0.8968582952659576  0.37851149263146777  0.766589377773826  1.0000
  O   O3        1.0  0.3968585095836944  0.37851192420301066  0.7334102930105288  1.0000
  O   O4        1.0  0.018220081003875087  0.6215121084768285  0.2664997881913891  1.0000
  O   O5        1.0  0.9230068465057787  0.8255066636433812  0.517467579658465  1.0000
  O   O6        1.0  0.09706411425648304  0.17455408926547736  0.48244937038985813  1.0000
  O   O7        1.0  0.5970643812292167  0.1745561102898492  0.0175506465015687  1.0000
  O   O8        1.0  0.42300669891128  0.8255077582561938  0.9825325833789904  1.0000
  O   O9        1.0  0.8505506732093482  0.8696399255201683  0.6622691876292208  1.0000
  O   O10       1.0  0.9808158158993907  0.13048696914862754  0.3376149232883349  1.0000
  O   O11       1.0  0.48081771998609923  0.1304875078635419  0.16238489603604478  1.0000
  O   O12       1.0  0.3505505184784854  0.8696401998213975  0.837731002060728  1.0000
  O   O13       1.0  0.6951374107295152  0.6435055761747678  0.6027014324506652  1.0000
  O   O14       1.0  0.051122095375753046  0.35655581964136474  0.3972405347308765  1.0000
  O   O15       1.0  0.551123499416171  0.3565577122750838  0.1027594532568727  1.0000
  O   O16       1.0  0.19514044167288352  0.6435067994180201  0.897299549343721  1.0000
  O   O17       1.0  0.5926672363633333  0.8315325751938903  0.5542590010424107  1.0000
  O   O18       1.0  0.7606843136313728  0.16835169090386873  0.4455721594824524  1.0000
  O   O19       1.0  0.260684641732027  0.16835135369365162  0.0544284089675315  1.0000
  O   O20       1.0  0.09266721892346666  0.8315337252721878  0.9457413415525835  1.0000
