data_image0
_chemical_formula_structural       AlH12C21NO9
_chemical_formula_sum              "Al1 H12 C21 N1 O9"
_cell_length_a       4.133388802274459
_cell_length_b       13.465128839609113
_cell_length_c       13.465077028701486
_cell_angle_alpha    120.00058749891707
_cell_angle_beta     90.00129157349538
_cell_angle_gamma    89.99953137683066

_space_group_name_H-M_alt    "P 1"
_space_group_IT_number       1

loop_
  _space_group_symop_operation_xyz
  'x, y, z'

loop_
  _atom_site_type_symbol
  _atom_site_label
  _atom_site_symmetry_multiplicity
  _atom_site_fract_x
  _atom_site_fract_y
  _atom_site_fract_z
  _atom_site_occupancy
  Al  Al1       1.0  0.9781482173794697  0.4999948399954449  0.499997470770687  1.0000
  H   H1        1.0  0.1811717286490691  0.821700609706852  0.79607114433459  1.0000
  H   H2        1.0  0.1970112453274453  0.03301163492733382  0.9021931658273916  1.0000
  H   H3        1.0  0.8018492237189958  0.0258535056401498  0.637545809151554  1.0000
  H   H4        1.0  0.801867570956908  0.11168832849453737  0.9741350502279859  1.0000
  H   H5        1.0  0.18115156990382525  0.4743613241376536  0.17830459486437894  1.0000
  H   H6        1.0  0.19699204346170512  0.36918552937472543  0.9669931005423397  1.0000
  H   H7        1.0  0.8018488923511029  0.3624513677968435  0.888308164200069  1.0000
  H   H8        1.0  0.18115344003285827  0.2039213817493319  0.5256174140025465  1.0000
  H   H9        1.0  0.19699803977357533  0.09780195456200862  0.6308064217127908  1.0000
  H   H10       1.0  0.9705004312527379  0.7411757538747281  0.5162790272496097  1.0000
  H   H11       1.0  0.9704974627021485  0.2750914122799202  0.2588163039398951  1.0000
  H   H12       1.0  0.9704994855102879  0.4837157374341813  0.7248971079553782  1.0000
  C   C1        1.0  0.48246485701430686  0.4187637071780728  0.32298578317593757  1.0000
  C   C2        1.0  0.482469633403781  0.404205582029789  0.5812199713003353  1.0000
  C   C3        1.0  0.48248576259090464  0.6770097792477046  0.595786839989934  1.0000
  C   C4        1.0  0.3240115298523917  0.8669079938967031  0.7629428451030267  1.0000
  C   C5        1.0  0.32677731838218443  0.9858990546604572  0.8216836821831494  1.0000
  C   C6        1.0  0.49278073688303436  0.04517451588471019  0.7760866555264982  1.0000
  C   C7        1.0  0.6659101631932387  0.9825348069212864  0.6737780255189847  1.0000
  C   C8        1.0  0.678016047109729  0.8632143933543405  0.6175961065111438  1.0000
  C   C9        1.0  0.4966176299208341  0.8043185402898629  0.6604751687502245  1.0000
  C   C10       1.0  0.6659092281522163  0.19124011312917588  0.017462092458465923  1.0000
  C   C11       1.0  0.6780117401001816  0.2543742684341693  0.1367822027888366  1.0000
  C   C12       1.0  0.49659717855635666  0.35614258046658165  0.1956770437898642  1.0000
  C   C13       1.0  0.323975696649299  0.3960274370219565  0.1330980732697142  1.0000
  C   C14       1.0  0.32676650519935885  0.3357810805169805  0.014100029078377924  1.0000
  C   C15       1.0  0.4927750183167703  0.23091308645066264  0.954823814680772  1.0000
  C   C16       1.0  0.6659023474928815  0.3262181958119539  0.8087528114189979  1.0000
  C   C17       1.0  0.6779983032397966  0.382400421716376  0.7456158467165467  1.0000
  C   C18       1.0  0.49660164971881204  0.33952352090334864  0.643840942621928  1.0000
  C   C19       1.0  0.3239805360126837  0.2370533014537202  0.6039547057742284  1.0000
  C   C20       1.0  0.3267560848714838  0.1783169487616758  0.6642065697827064  1.0000
  C   C21       1.0  0.49277318176073936  0.22390565745898516  0.7690817102666898  1.0000
  N   N1        1.0  0.48827879203854235  0.16666569282868676  0.8333314139409821  1.0000
  O   O1        1.0  0.7115194244013452  0.6215965955173814  0.6091856809680962  1.0000
  O   O2        1.0  0.711503178561827  0.4875765482884448  0.3783968842308881  1.0000
  O   O3        1.0  0.711502138896023  0.39081780981569375  0.5124146332179508  1.0000
  O   O4        1.0  0.23862595009722296  0.6302539651614865  0.5289000362432148  1.0000
  O   O5        1.0  0.23863078316165334  0.47109925756979004  0.6013551937282601  1.0000
  O   O6        1.0  0.23862575636251646  0.3986411554522249  0.3697469531212009  1.0000
  O   O7        1.0  0.8612430527676763  0.8081445969965487  0.5201732534461457  1.0000
  O   O8        1.0  0.8612417106542195  0.21201851369560393  0.19184619859087357  1.0000
  O   O9        1.0  0.8612404015631797  0.47982107776405747  0.7879672426565278  1.0000
