data_image0
_chemical_formula_structural       Zn2H28C30N4O8
_chemical_formula_sum              "Zn2 H28 C30 N4 O8"
_cell_length_a       9.71466967789467
_cell_length_b       11.025696700792144
_cell_length_c       13.0230340790586
_cell_angle_alpha    84.63708618648025
_cell_angle_beta     77.31300542622937
_cell_angle_gamma    81.80501384479491

_space_group_name_H-M_alt    "P 1"
_space_group_IT_number       1

loop_
  _space_group_symop_operation_xyz
  'x, y, z'

loop_
  _atom_site_type_symbol
  _atom_site_label
  _atom_site_symmetry_multiplicity
  _atom_site_fract_x
  _atom_site_fract_y
  _atom_site_fract_z
  _atom_site_occupancy
  Zn  Zn1       1.0  0.6498730402732916  0.4867372582088693  0.4840335334173743  1.0000
  Zn  Zn2       1.0  0.34735588625078856  0.5263295881907978  0.5112601641462503  1.0000
  H   H1        1.0  0.3333610234190657  0.5373764951076154  0.19973738457277787  1.0000
  H   H2        1.0  0.6602553330145039  0.4559752205211752  0.7975804146851998  1.0000
  H   H3        1.0  0.7871491464582758  0.4491195537330341  0.13624947934615508  1.0000
  H   H4        1.0  0.20761872948894214  0.5295377704644294  0.8619964602405685  1.0000
  H   H5        1.0  0.27997032724962156  0.13896023864072052  0.5781391194285843  1.0000
  H   H6        1.0  0.7172168100131485  0.8734709058518035  0.41660649916675396  1.0000
  H   H7        1.0  0.2794864467608844  0.91111897489634  0.5780878741269716  1.0000
  H   H8        1.0  0.7176779769560395  0.10119734268099728  0.416619517901374  1.0000
  H   H9        1.0  0.8682574422061148  0.6224951585162871  0.3742462435433395  1.0000
  H   H10       1.0  0.13029966564970147  0.3889708085682597  0.6194378633689014  1.0000
  H   H11       1.0  0.09066098192952411  0.5700010574387944  0.02963897795935821  1.0000
  H   H12       1.0  0.020212452385145196  0.47189596541505097  0.2008693988298305  1.0000
  H   H13       1.0  0.19878160906984013  0.40270297673814076  0.19313054987838998  1.0000
  H   H14       1.0  0.09701531948189061  0.3592998050546114  0.10729982966280009  1.0000
  H   H15       1.0  0.8072959728502692  0.3769197874785205  0.870035579242568  1.0000
  H   H16       1.0  0.010777613837483106  0.485533886877242  0.8472991877593827  1.0000
  H   H17       1.0  0.9219975174269375  0.5655973963358392  0.961095245297571  1.0000
  H   H18       1.0  0.8536800509930629  0.5918847336389347  0.8441562047842055  1.0000
  H   H19       1.0  0.9800577344070045  0.8466260113346491  0.4301566580531214  1.0000
  H   H20       1.0  0.13738808548030323  0.8131601132409257  0.48288443443167484  1.0000
  H   H21       1.0  0.14514340994742259  0.8897964668843344  0.35622329736543173  1.0000
  H   H22       1.0  0.24795070514169024  0.6692291121378702  0.3410732403853772  1.0000
  H   H23       1.0  0.09469149725724439  0.7012207387914983  0.28530857944137006  1.0000
  H   H24       1.0  0.8600756127657756  0.20080900235674898  0.5049288524325489  1.0000
  H   H25       1.0  0.018725366652937208  0.16368227620407075  0.5558517590367771  1.0000
  H   H26       1.0  0.853993587721547  0.11938345400386646  0.6294323374619424  1.0000
  H   H27       1.0  0.9100936829202553  0.30298965091889574  0.7040060335801853  1.0000
  H   H28       1.0  0.75278693999126  0.33895029832669354  0.6521232723154142  1.0000
  C   C1        1.0  0.4995927670032073  0.26895949377465195  0.49887699453255147  1.0000
  C   C2        1.0  0.4975180078658069  0.7433806710572384  0.4966313551879722  1.0000
  C   C3        1.0  0.4982162642147044  0.8791512992202327  0.49711089332385666  1.0000
  C   C4        1.0  0.4990418977509988  0.13321964796088542  0.49794531440226547  1.0000
  C   C5        1.0  0.06554615955757008  0.5943535011413983  0.43057431048512734  1.0000
  C   C6        1.0  0.9337578376177403  0.4161203930090663  0.5621691996272347  1.0000
  C   C7        1.0  0.928659836527153  0.5699380895234255  0.42850324243813287  1.0000
  C   C8        1.0  0.07000066251951854  0.4411019724841481  0.5649225628817404  1.0000
  C   C9        1.0  0.44062247575556757  0.49653515707796436  0.704354401437804  1.0000
  C   C10       1.0  0.5568344457807369  0.5092302398846654  0.2916866800585324  1.0000
  C   C11       1.0  0.5590926927409327  0.4971135137813363  0.17781809220510778  1.0000
  C   C12       1.0  0.43580405354058627  0.49359904952498795  0.8201367330855402  1.0000
  C   C13       1.0  0.2987954359590644  0.5140083774959691  1.5123532122608306e-05  1.0000
  C   C14       1.0  0.6914965563820842  0.450592668860736  0.002116802390382615  1.0000
  C   C15       1.0  0.3047531609580074  0.5138793358866849  0.8926727021828427  1.0000
  C   C16       1.0  0.6889938531907729  0.4650004096345837  0.10688703221925522  1.0000
  C   C17       1.0  0.5614774016573206  0.4699447378953962  0.8559752141262251  1.0000
  C   C18       1.0  0.4316982786460456  0.5116855218811693  0.14379858950922397  1.0000
  C   C19       1.0  0.5614447337088107  0.4696932301759418  0.964343216158987  1.0000
  C   C20       1.0  0.42898665013412085  0.49656873400339646  0.038032314605260416  1.0000
  C   C21       1.0  0.37509807389294986  0.07990516525604359  0.5427814192500122  1.0000
  C   C22       1.0  0.6220850671870294  0.932475986779714  0.45206410859597657  1.0000
  C   C23       1.0  0.37469889671368856  0.9538494094619024  0.5425750297748523  1.0000
  C   C24       1.0  0.6224749858912657  0.058547894540311084  0.4523147319115992  1.0000
  C   C25       1.0  0.11846727784806887  0.4371614343387761  0.14660274792337447  1.0000
  C   C26       1.0  0.9063401303130048  0.5206358076483041  0.893479884670512  1.0000
  C   C27       1.0  0.13214439927878624  0.6944715680727427  0.3597275807820707  1.0000
  C   C28       1.0  0.09551505989449542  0.8185848872272884  0.4107118969114011  1.0000
  C   C29       1.0  0.8685387148301157  0.3138432225735811  0.6310368845557192  1.0000
  C   C30       1.0  0.9034338185446198  0.1919482981346263  0.5766087295234571  1.0000
  N   N1        1.0  0.8639269759016412  0.48329919999918036  0.4927180694720549  1.0000
  N   N2        1.0  0.1345882958823097  0.527984258303583  0.5008175543577451  1.0000
  N   N3        1.0  0.16724524349736916  0.5378056098131977  0.0711480024767042  1.0000
  N   N4        1.0  0.8233572955191446  0.4185369314357033  0.9323005047393166  1.0000
  O   O1        1.0  0.6208973907779194  0.3074781947417192  0.482096323283585  1.0000
  O   O2        1.0  0.37609481338671447  0.7050243413574433  0.5146451775127687  1.0000
  O   O3        1.0  0.3794955812343376  0.3352745579293809  0.5164263016237385  1.0000
  O   O4        1.0  0.6176030767664215  0.6769905512533752  0.47838218131792587  1.0000
  O   O5        1.0  0.5640581748409231  0.4850624712198481  0.6440066608562203  1.0000
  O   O6        1.0  0.4341215743963857  0.5274234376541357  0.3522949813393764  1.0000
  O   O7        1.0  0.3231451949412472  0.5104620553193583  0.6736053958792994  1.0000
  O   O8        1.0  0.6749203557227756  0.49869632821312126  0.32131056613749104  1.0000
