data_image0
_chemical_formula_structural       Zn2H36C52N4O12
_chemical_formula_sum              "Zn2 H36 C52 N4 O12"
_cell_length_a       9.767326524777905
_cell_length_b       10.915742565525813
_cell_length_c       28.148350704664242
_cell_angle_alpha    89.85611964905354
_cell_angle_beta     76.96136475591227
_cell_angle_gamma    87.25378181254231

_space_group_name_H-M_alt    "P 1"
_space_group_IT_number       1

loop_
  _space_group_symop_operation_xyz
  'x, y, z'

loop_
  _atom_site_type_symbol
  _atom_site_label
  _atom_site_symmetry_multiplicity
  _atom_site_fract_x
  _atom_site_fract_y
  _atom_site_fract_z
  _atom_site_occupancy
  Zn  Zn1       1.0  0.638806001428364  0.5103427609188811  0.4867312024761858  1.0000
  Zn  Zn2       1.0  0.35374001768131785  0.49542941582886596  0.5148866789439239  1.0000
  H   H1        1.0  0.2590436490445783  0.48874508660478705  0.3668134638703293  1.0000
  H   H2        1.0  0.7327193744209951  0.5429029813343148  0.7230277780307901  1.0000
  H   H3        1.0  0.5297124749350035  0.8075299469812902  0.11967587401015577  1.0000
  H   H4        1.0  0.4995018639385405  0.19370151050267026  0.8786120910858346  1.0000
  H   H5        1.0  0.2958508524766971  0.4553655610137781  0.6691018267537457  1.0000
  H   H6        1.0  0.7060412383854598  0.5234118690140973  0.3308482591630693  1.0000
  H   H7        1.0  0.2970404036460934  0.454934208355766  0.7581903812755612  1.0000
  H   H8        1.0  0.7047448131202857  0.5247196693331444  0.24172207770929788  1.0000
  H   H9        1.0  0.5188742237650531  0.8073607514531813  0.8755302681416596  1.0000
  H   H10       1.0  0.44144189668258355  0.20123253517251527  0.1272703502064729  1.0000
  H   H11       1.0  0.5142452616490446  0.8122434767280422  0.9638195153464721  1.0000
  H   H12       1.0  0.7307486650302694  0.5419836266978209  0.6340491599288213  1.0000
  H   H13       1.0  0.45282746270969193  0.19583358635848913  0.03854452556011981  1.0000
  H   H14       1.0  0.533632491431547  0.8105232559182766  0.03142147500627599  1.0000
  H   H15       1.0  0.4874313622053138  0.19175426304221324  0.9674627969111356  1.0000
  H   H16       1.0  0.11492600659531861  0.13674615093996317  0.4009548245494726  1.0000
  H   H17       1.0  0.2374127211437767  0.23020389624806367  0.3627390924765947  1.0000
  H   H18       1.0  0.1921413260129796  0.08999813965283468  0.3399589218244898  1.0000
  H   H19       1.0  0.4300125114913129  0.06925613335766198  0.360684800482872  1.0000
  H   H20       1.0  0.31089554823405063  0.971246475107506  0.3968825240828338  1.0000
  H   H21       1.0  0.2601532150725916  0.1256639993487596  0.4647137571260274  1.0000
  H   H22       1.0  0.37490449132010906  0.2270832837963254  0.4297228988918746  1.0000
  H   H23       1.0  0.6422144784809944  0.08409660044880948  0.49301100557849514  1.0000
  H   H24       1.0  0.8093143393468339  0.6971656182214044  0.3806641325402893  1.0000
  H   H25       1.0  0.839831974459024  0.8230776863458542  0.3405313716418732  1.0000
  H   H26       1.0  0.9554708227948865  0.7908181450301723  0.37979545615804977  1.0000
  H   H27       1.0  0.7873867710641774  0.9681539235103996  0.41401488329361064  1.0000
  H   H28       1.0  0.7551825855655495  0.8401711342139322  0.4530340891684119  1.0000
  H   H29       1.0  0.5680374529744938  0.7804454915550209  0.4083679148169495  1.0000
  H   H30       1.0  0.5864276624911965  0.9241594860913549  0.3787545044822452  1.0000
  H   H31       1.0  0.3518040813728973  0.9223160045039687  0.5237072028270617  1.0000
  H   H32       1.0  0.877564659389279  0.41418767315919774  0.5232931261038871  1.0000
  H   H33       1.0  0.11851285673757425  0.5899487014484988  0.4746189040359567  1.0000
  H   H34       1.0  0.8957368093382315  0.6138388571720839  0.4526340051131541  1.0000
  H   H35       1.0  0.09627212509998632  0.3917290685359376  0.5458293870191966  1.0000
  H   H36       1.0  0.257113344777828  0.48629544237233086  0.2777798684332353  1.0000
  C   C1        1.0  0.4414558773639643  0.7386443177094361  0.5007342593765571  1.0000
  C   C2        1.0  0.5132149963133655  0.6124691420115126  0.8719531738653217  1.0000
  C   C3        1.0  0.48271312770725683  0.5067902631687389  0.35391019715958555  1.0000
  C   C4        1.0  0.5132026544484348  0.497775492345056  0.6464073267327138  1.0000
  C   C5        1.0  0.5070385226680472  0.6160052511548173  0.9733297382141686  1.0000
  C   C6        1.0  0.48225900697848806  0.3896662074987346  0.027624771337997296  1.0000
  C   C7        1.0  0.4921854734067281  0.38831483875662787  0.9749754616019715  1.0000
  C   C8        1.0  0.5068192219817433  0.616302880492995  0.025333016160047413  1.0000
  C   C9        1.0  0.5019944529122427  0.5017592027128542  0.9491950835087266  1.0000
  C   C10       1.0  0.49231801182403256  0.503346513557588  0.0514392480967771  1.0000
  C   C11       1.0  0.5124065308594014  0.7239579320153524  0.946114431561682  1.0000
  C   C12       1.0  0.5470327520979765  0.2676422362349625  0.4893168207366401  1.0000
  C   C13       1.0  0.46332721249086023  0.2831191349635133  0.055706914333171695  1.0000
  C   C14       1.0  0.5150021255349558  0.7226584084932597  0.8962995252083417  1.0000
  C   C15       1.0  0.45655071773776973  0.2847843051099872  0.1057893739782614  1.0000
  C   C16       1.0  0.48536986488871053  0.5072681608467278  0.4070437655039782  1.0000
  C   C17       1.0  0.5098858733821247  0.4981963316531619  0.5933103576979519  1.0000
  C   C18       1.0  0.5203655713832163  0.7237020246838028  0.050635158632069  1.0000
  C   C19       1.0  0.4923849629700713  0.2794224149059588  0.948757543235331  1.0000
  C   C20       1.0  0.4269008009088681  0.8731587453889202  0.4945562835584241  1.0000
  C   C21       1.0  0.5582861585670998  0.13380217421230609  0.4800438279153951  1.0000
  C   C22       1.0  0.4962040465740714  0.935175984491252  0.45570908570997665  1.0000
  C   C23       1.0  0.48783922954515196  0.5040617572899535  0.1026242335834198  1.0000
  C   C24       1.0  0.47493505551693005  0.07158250598467218  0.4572907975789917  1.0000
  C   C25       1.0  0.07018352818659682  0.5168709270787984  0.49861151573409057  1.0000
  C   C26       1.0  0.9248041353321312  0.48790151318202385  0.4993930019366033  1.0000
  C   C27       1.0  0.4995730258947761  0.6181308657051899  0.17930573568231983  1.0000
  C   C28       1.0  0.5103769643250686  0.3850349179807748  0.8202139720915795  1.0000
  C   C29       1.0  0.46446754386627037  0.39205483385169515  0.18236811408238654  1.0000
  C   C30       1.0  0.5163693000293678  0.6141989378909186  0.8191165948165207  1.0000
  C   C31       1.0  0.6076718234548437  0.5162690186699023  0.2693558952505484  1.0000
  C   C32       1.0  0.3916195880605001  0.47394897938914937  0.7307779377572248  1.0000
  C   C33       1.0  0.6084203224821892  0.5162871640054264  0.318703480717474  1.0000
  C   C34       1.0  0.5068842509222122  0.5009213961610187  0.897979923091512  1.0000
  C   C35       1.0  0.3909222664694951  0.47374380960705026  0.6814179838273091  1.0000
  C   C36       1.0  0.3560494608329634  0.49654562267330943  0.33909952935795223  1.0000
  C   C37       1.0  0.6364904204477426  0.5223206368521217  0.6614949028686964  1.0000
  C   C38       1.0  0.3548006900959848  0.49548531252071354  0.28972376946077827  1.0000
  C   C39       1.0  0.6377301189906391  0.5228324550781235  0.7108962473400311  1.0000
  C   C40       1.0  0.4807842885598959  0.5057708365575238  0.255203390036904  1.0000
  C   C41       1.0  0.5151204193451447  0.498534779575081  0.745203248039438  1.0000
  C   C42       1.0  0.3583735828766664  0.12908390081955898  0.4360818720937587  1.0000
  C   C43       1.0  0.3336518628718252  0.06836816993649818  0.38988111352365007  1.0000
  C   C44       1.0  0.21282630306884442  0.13471334674590452  0.37238581773290486  1.0000
  C   C45       1.0  0.5016206473681777  0.6151513978419983  0.1266056877484374  1.0000
  C   C46       1.0  0.596100858234273  0.8755741478764986  0.4122654487927733  1.0000
  C   C47       1.0  0.7505964585286974  0.8740939434053983  0.41656705312341563  1.0000
  C   C48       1.0  0.8445287087511207  0.7918457539274254  0.37734956454035984  1.0000
  C   C49       1.0  0.5053132679601191  0.3884949676439076  0.8731586605932193  1.0000
  C   C50       1.0  0.5184359352518443  0.7234320982379145  0.1003845018219067  1.0000
  C   C51       1.0  0.4992746384943558  0.27908862628225956  0.8986528189997642  1.0000
  C   C52       1.0  0.4696605518785901  0.39369847675543906  0.1294118404973261  1.0000
  N   N1        1.0  0.4807745306366797  0.5053670884828206  0.2039320348485063  1.0000
  N   N2        1.0  0.5149428440908184  0.4992279415363185  0.7965112643612997  1.0000
  N   N3        1.0  0.144951041669735  0.46056158722358015  0.5244968459329158  1.0000
  N   N4        1.0  0.8484814624852177  0.5446719497058935  0.47417560632598565  1.0000
  O   O1        1.0  0.5651175927933495  0.6883454200208731  0.48823098337151544  1.0000
  O   O2        1.0  0.510385143407376  0.28882156851855  0.7975873541791572  1.0000
  O   O3        1.0  0.5193492690758603  0.7096507113869491  0.7957097661466506  1.0000
  O   O4        1.0  0.44814252432171037  0.29805775734793366  0.2067713552854045  1.0000
  O   O5        1.0  0.4238730318345887  0.3196370418807248  0.4977905332347632  1.0000
  O   O6        1.0  0.3300451836677426  0.6823503098158809  0.5187298584522679  1.0000
  O   O7        1.0  0.6601250910822857  0.32231405398805174  0.48903667066249307  1.0000
  O   O8        1.0  0.6065967828664398  0.4984690543975104  0.4169925762379449  1.0000
  O   O9        1.0  0.39121148587758386  0.4818170498862954  0.5831535010607142  1.0000
  O   O10       1.0  0.3679713885243743  0.5162512729567723  0.4379269272134536  1.0000
  O   O11       1.0  0.624533187409739  0.5151209907613746  0.5624144631220886  1.0000
  O   O12       1.0  0.5131518142996114  0.7126903657402434  0.2011243335229764  1.0000
