data_image0
_chemical_formula_structural       H40Pb6C32O18
_chemical_formula_sum              "H40 Pb6 C32 O18"
_cell_length_a       9.52751515720908
_cell_length_b       10.948454911223376
_cell_length_c       11.098781665502072
_cell_angle_alpha    64.65901704985629
_cell_angle_beta     79.12282857483684
_cell_angle_gamma    84.648040070787

_space_group_name_H-M_alt    "P 1"
_space_group_IT_number       1

loop_
  _space_group_symop_operation_xyz
  'x, y, z'

loop_
  _atom_site_type_symbol
  _atom_site_label
  _atom_site_symmetry_multiplicity
  _atom_site_fract_x
  _atom_site_fract_y
  _atom_site_fract_z
  _atom_site_occupancy
  H   H1        1.0  0.14417962681029908  0.4776868088701177  0.854452356290807  1.0000
  H   H2        1.0  0.855838927269687  0.5222120335942291  0.14551616691572644  1.0000
  H   H3        1.0  0.8956246291751099  0.4217772235922085  0.8560687332323765  1.0000
  H   H4        1.0  0.10439929776296707  0.5781681030400563  0.1439278941591766  1.0000
  H   H5        1.0  0.8602364935551845  0.3581455465623762  0.03314816823308322  1.0000
  H   H6        1.0  0.13976659108124068  0.6418372044560099  0.9668335250161777  1.0000
  H   H7        1.0  0.23316034897251112  0.40386387679549063  0.07496914692565329  1.0000
  H   H8        1.0  0.7668699037722461  0.5961137840056522  0.9249586766366847  1.0000
  H   H9        1.0  0.0600582840053718  0.3481447441637329  0.16323877884757113  1.0000
  H   H10       1.0  0.9400126013221879  0.6517964753664599  0.8367425194298552  1.0000
  H   H11       1.0  0.0378791982799953  0.3732521648858338  0.6855891009294411  1.0000
  H   H12       1.0  0.9622171189515284  0.6268537625852914  0.3143867557821381  1.0000
  H   H13       1.0  0.7875983877235697  0.4914908499034779  0.5291393619440329  1.0000
  H   H14       1.0  0.21252008947715945  0.5086029191583421  0.4708044901704583  1.0000
  H   H15       1.0  0.8005349609145398  0.5002675640823  0.6816452422108056  1.0000
  H   H16       1.0  0.19952690010371296  0.4998323467306918  0.3183138349282758  1.0000
  H   H17       1.0  0.12317107840815567  0.28331252273259366  0.5162575789310466  1.0000
  H   H18       1.0  0.8769253035238336  0.7167570199008678  0.48370209595910313  1.0000
  H   H19       1.0  0.9775622127864236  0.3623010364654249  0.4294621361321518  1.0000
  H   H20       1.0  0.022517116992190698  0.637793796672348  0.570518616081948  1.0000
  H   H21       1.0  0.32471420197802553  0.7883786027339426  0.726208675286543  1.0000
  H   H22       1.0  0.6752475639751622  0.2115395199451342  0.27384974779270277  1.0000
  H   H23       1.0  0.549413092043494  0.9237264287208689  0.5972921609084737  1.0000
  H   H24       1.0  0.4505664565798356  0.07621693701688768  0.4027489475159669  1.0000
  H   H25       1.0  0.6481023313816435  0.7713115553333266  0.6339597089602552  1.0000
  H   H26       1.0  0.3518462597138026  0.22861265062682182  0.3659983870644866  1.0000
  H   H27       1.0  0.536938874180052  0.550088655461856  0.7946989058415496  1.0000
  H   H28       1.0  0.46310965726285497  0.44987381906787505  0.20530518221722374  1.0000
  H   H29       1.0  0.35447516382399863  0.5403872072248319  0.86897893222573  1.0000
  H   H30       1.0  0.6455764122752043  0.45951462126435416  0.13105745456331158  1.0000
  H   H31       1.0  0.3894246300927691  0.47057311041713484  0.67714312702104  1.0000
  H   H32       1.0  0.6106410549928397  0.5293772123099387  0.32285504180300967  1.0000
  H   H33       1.0  0.2801437087239478  0.6162702733494853  0.6440423790728219  1.0000
  H   H34       1.0  0.7198704415391787  0.38362857443059534  0.35599717956762333  1.0000
  H   H35       1.0  0.4525875031348717  0.6487223393870777  0.4400027552627464  1.0000
  H   H36       1.0  0.5474140443556548  0.3512452529855921  0.5600153383745835  1.0000
  H   H37       1.0  0.5988252773659255  0.6100202796737761  0.5297651041231717  1.0000
  H   H38       1.0  0.4012014862994491  0.3900695722864854  0.47020694328873713  1.0000
  H   H39       1.0  0.391664434849254  0.8498928663207579  0.48307274194809224  1.0000
  H   H40       1.0  0.6081572775733405  0.1500193835546213  0.5170824621565161  1.0000
  Pb  Pb1       1.0  0.19135342506103825  0.009473093845002696  0.8921776427489122  1.0000
  Pb  Pb2       1.0  0.8086915106650849  0.9906925362917606  0.10767548684547981  1.0000
  Pb  Pb3       1.0  0.5059376185874668  0.18745143052536403  0.8942573392401486  1.0000
  Pb  Pb4       1.0  0.49409345904183505  0.8125666551278529  0.10583528391050825  1.0000
  Pb  Pb5       1.0  0.7672869073545668  0.9757135161678436  0.7762292127003576  1.0000
  Pb  Pb6       1.0  0.23272601633533435  0.0242277822318471  0.22382326421977441  1.0000
  C   C1        1.0  0.12153615929592121  0.26531284653140835  0.9553738894769523  1.0000
  C   C2        1.0  0.8783500698748058  0.7346397436407199  0.04466310792276573  1.0000
  C   C3        1.0  0.08262095552097999  0.405294660961772  0.9486780886772622  1.0000
  C   C4        1.0  0.9173695955882835  0.5946699146736307  0.051317034165585154  1.0000
  C   C5        1.0  0.9224695199739942  0.4340315048834285  0.9421792834848333  1.0000
  C   C6        1.0  0.0775274432634063  0.5659249764685796  0.05781004863140286  1.0000
  C   C7        1.0  0.11888603697190799  0.4237930497720441  0.06901989351574403  1.0000
  C   C8        1.0  0.8811231742133072  0.5761957571800025  0.930942873517651  1.0000
  C   C9        1.0  0.8799084660961116  0.24189118231406323  0.6977159998763087  1.0000
  C   C10       1.0  0.12016886369895731  0.7581278511806246  0.302311524413746  1.0000
  C   C11       1.0  0.9617554190918298  0.37262375048589996  0.6224768196275506  1.0000
  C   C12       1.0  0.0383214282834246  0.6274205511945111  0.37752930329211415  1.0000
  C   C13       1.0  0.8642896975110547  0.498193941305587  0.5887865982428195  1.0000
  C   C14       1.0  0.13578682667176878  0.5018655213585603  0.41120416665059883  1.0000
  C   C15       1.0  0.050846409960200796  0.37176984739515  0.49105518362510747  1.0000
  C   C16       1.0  0.9492460603047022  0.628306775126113  0.5089364122383558  1.0000
  C   C17       1.0  0.4589212063245894  0.7649570335838121  0.8659281332632389  1.0000
  C   C18       1.0  0.5410764556045462  0.2350803019819026  0.13408009454262543  1.0000
  C   C19       1.0  0.43202149638915444  0.7454251919760607  0.7450732122724162  1.0000
  C   C20       1.0  0.5679605297072072  0.2545080632405997  0.25498705918871434  1.0000
  C   C21       1.0  0.5414563840772858  0.8169342744676555  0.6181867183362398  1.0000
  C   C22       1.0  0.4585170897278203  0.18303133525991197  0.3818135996081651  1.0000
  C   C23       1.0  0.4299017716529859  0.5942919185808718  0.7760954670331587  1.0000
  C   C24       1.0  0.5700925319914703  0.4056615339393943  0.22393344473893959  1.0000
  C   C25       1.0  0.39031954625290405  0.5781713874907054  0.6563532789592941  1.0000
  C   C26       1.0  0.6096877083499025  0.4217699189356381  0.3436758382445149  1.0000
  C   C27       1.0  0.49085760313691656  0.6553890032516775  0.5242430847069388  1.0000
  C   C28       1.0  0.509130531800686  0.3446099392395041  0.4757514543259093  1.0000
  C   C29       1.0  0.4992832045768407  0.805090517732296  0.49749535338186496  1.0000
  C   C30       1.0  0.5006229947701967  0.19489438726212424  0.5025317803123956  1.0000
  C   C31       1.0  0.600182169078785  0.880560136113047  0.36684721256085606  1.0000
  C   C32       1.0  0.39963818860767464  0.11947542201512817  0.6331182858321753  1.0000
  O   O1        1.0  0.2014078819679099  0.254203821977633  0.8542583463453256  1.0000
  O   O2        1.0  0.798402751693871  0.7457488724865086  0.14573300247374016  1.0000
  O   O3        1.0  0.0696670969207744  0.1625654778060834  0.06209995725870953  1.0000
  O   O4        1.0  0.9302362591554213  0.8374184201223113  0.9379542200045565  1.0000
  O   O5        1.0  0.7550029545809522  0.23619691223383646  0.6740367516874458  1.0000
  O   O6        1.0  0.24508733126025825  0.7638231140751301  0.3259989441121077  1.0000
  O   O7        1.0  0.9399966948854936  0.1361308706971585  0.7784359712451377  1.0000
  O   O8        1.0  0.060075322590606106  0.8638831166293596  0.22159189203357968  1.0000
  O   O9        1.0  0.35049410833165945  0.7811357052860828  0.9461730887378437  1.0000
  O   O10       1.0  0.6495275266926582  0.21894707874029948  0.05381183374958458  1.0000
  O   O11       1.0  0.5866383582867271  0.7623628296168902  0.8866435242788318  1.0000
  O   O12       1.0  0.4133602538921792  0.23773716809797912  0.11331194604061079  1.0000
  O   O13       1.0  0.7296103976139321  0.8953133199618719  0.3684391117763681  1.0000
  O   O14       1.0  0.27025576163674697  0.10456248706184107  0.6314147981653448  1.0000
  O   O15       1.0  0.549758411794869  0.9272274923606644  0.254662802898686  1.0000
  O   O16       1.0  0.44990144985172265  0.07299122105391118  0.7453420729634815  1.0000
  O   O17       1.0  0.35124019490896785  0.007464274444473101  0.03988942538443042  1.0000
  O   O18       1.0  0.6488402275237418  0.9925749686175678  0.9601407472482607  1.0000
