data_image0
_chemical_formula_structural       Al2H13C24S2N2O10F
_chemical_formula_sum              "Al2 H13 C24 S2 N2 O10 F1"
_cell_length_a       6.664752312983838
_cell_length_b       12.747220937414385
_cell_length_c       17.766832768785363
_cell_angle_alpha    82.73065848427599
_cell_angle_beta     79.99445790203298
_cell_angle_gamma    75.34074933289236

_space_group_name_H-M_alt    "P 1"
_space_group_IT_number       1

loop_
  _space_group_symop_operation_xyz
  'x, y, z'

loop_
  _atom_site_type_symbol
  _atom_site_label
  _atom_site_symmetry_multiplicity
  _atom_site_fract_x
  _atom_site_fract_y
  _atom_site_fract_z
  _atom_site_occupancy
  Al  Al1       1.0  0.4966898338490822  0.5091565735839297  0.5002298972466119  1.0000
  Al  Al2       1.0  0.9969278542587714  0.5076909450248408  0.4997295668823086  1.0000
  H   H1        1.0  0.29321147061217084  0.3772444747127963  0.5436271204785683  1.0000
  H   H2        1.0  0.7086318451498173  0.6353589396431117  0.44748245961125116  1.0000
  H   H3        1.0  0.6399427563030358  0.5519748150927342  0.2671677243341861  1.0000
  H   H4        1.0  0.7214320527332703  0.5500012797514203  0.12435818118935059  1.0000
  H   H5        1.0  0.15712144583854126  0.4415927689951431  0.1261267039590734  1.0000
  H   H6        1.0  0.892437621176782  0.44813526214176147  0.8818471240087931  1.0000
  H   H7        1.0  0.31312225427109985  0.5654515727568425  0.7256993293839429  1.0000
  H   H8        1.0  0.23114679567039081  0.5627317083617527  0.8687060397121584  1.0000
  H   H9        1.0  0.6039930814135771  0.1498896975320179  0.5305793614736771  1.0000
  H   H10       1.0  0.9854784279303885  0.4562036491171001  0.32957647560471054  1.0000
  H   H11       1.0  0.9371625646520555  0.4218470394325636  0.2438738272119352  1.0000
  H   H12       1.0  0.056197869768410985  0.4566100051102851  0.6766374274323254  1.0000
  H   H13       1.0  0.13247296233395617  0.4313780139675887  0.7680177750271111  1.0000
  C   C1        1.0  0.8469942241192429  0.3121976806295948  0.4971280412477341  1.0000
  C   C2        1.0  0.6763096723772151  0.5077762271891615  0.6386534489105244  1.0000
  C   C3        1.0  0.1457677044060049  0.7031886292721622  0.5022732772642513  1.0000
  C   C4        1.0  0.3197016777853107  0.5043927810342836  0.3611222565703258  1.0000
  C   C5        1.0  0.35655127713816614  0.4983758361136951  0.2773487355555915  1.0000
  C   C6        1.0  0.5376214866988249  0.5263719662286307  0.23522009885016354  1.0000
  C   C7        1.0  0.5836597864564154  0.5251250030134996  0.1563440801958578  1.0000
  C   C8        1.0  0.4435158196809112  0.49443199496176504  0.11646060708905992  1.0000
  C   C9        1.0  0.2634834608253697  0.465460487412905  0.15733753886217977  1.0000
  C   C10       1.0  0.21449697121038022  0.4670885767665922  0.23782652441087038  1.0000
  C   C11       1.0  0.48305635908976535  0.4957446870818033  0.0353967706497897  1.0000
  C   C12       1.0  0.5176350753940255  0.49921778137463246  0.9654644569378092  1.0000
  C   C13       1.0  0.5587426549524253  0.5029907381598592  0.8843085107708432  1.0000
  C   C14       1.0  0.7652065243403356  0.4738672781628638  0.8473685473408565  1.0000
  C   C15       1.0  0.8145055994637642  0.4756990078079967  0.7666140415846384  1.0000
  C   C16       1.0  0.6447080976550907  0.5077240249759569  0.7226398825705188  1.0000
  C   C17       1.0  0.43786507472255204  0.5387344167313729  0.7611329045370994  1.0000
  C   C18       1.0  0.3917461096121571  0.5369747952629494  0.8400679174373097  1.0000
  C   C19       1.0  0.2156081605698288  0.8947084558654268  0.48341925207894587  1.0000
  C   C20       1.0  0.7728568350041413  0.12243443037561971  0.515073079889909  1.0000
  C   C21       1.0  0.08761668179749897  0.8218850263199684  0.5018483252744588  1.0000
  C   C22       1.0  0.9042592937579028  0.19315330707839007  0.49718389124470974  1.0000
  C   C23       1.0  0.8878901091862446  0.013349017607822599  0.5104530073105735  1.0000
  C   C24       1.0  0.10496997480364458  0.004088857534462406  0.48832047167639553  1.0000
  S   S1        1.0  0.8256089746760864  0.8883287018858184  0.5249124527055002  1.0000
  S   S2        1.0  0.16784001903219795  0.1286006282248522  0.4738773223049364  1.0000
  N   N1        1.0  0.03998854183262064  0.43519996497857255  0.2751804564299647  1.0000
  N   N2        1.0  0.01880729348098234  0.44449587867141105  0.7345134840311118  1.0000
  O   O1        1.0  0.6525438685172418  0.35897910933994126  0.5075844597829188  1.0000
  O   O2        1.0  0.866042270662831  0.4907121271189966  0.6032999831435005  1.0000
  O   O3        1.0  0.9948710866921288  0.6554478777518398  0.5118731166813859  1.0000
  O   O4        1.0  0.4776452167554623  0.4978325591073372  0.39468939913393086  1.0000
  O   O5        1.0  0.3402203743020706  0.6570757323375959  0.4927965389802508  1.0000
  O   O6        1.0  0.1294340699330618  0.5179685189754792  0.39536527375648217  1.0000
  O   O7        1.0  0.9989892071492078  0.3590980260427301  0.4870056991412993  1.0000
  O   O8        1.0  0.5153915906519799  0.522349282965344  0.6049957746617594  1.0000
  O   O9        1.0  0.2557930139129637  0.4560262619086615  0.5349278864609132  1.0000
  O   O10       1.0  0.7395677343556601  0.5584194234974545  0.4646492611090025  1.0000
  F   F1        1.0  0.42448340609723084  0.8660728877851511  0.46154493582729833  1.0000
