data_image0
_chemical_formula_structural       Cd3H28C52Br12N2O12
_chemical_formula_sum              "Cd3 H28 C52 Br12 N2 O12"
_cell_length_a       9.622834456153386
_cell_length_b       11.018510455821982
_cell_length_c       15.4429
_cell_angle_alpha    71.62585445153624
_cell_angle_beta     82.02753533047769
_cell_angle_gamma    87.87956030917816

_space_group_name_H-M_alt    "P 1"
_space_group_IT_number       1

loop_
  _space_group_symop_operation_xyz
  'x, y, z'

loop_
  _atom_site_type_symbol
  _atom_site_label
  _atom_site_symmetry_multiplicity
  _atom_site_fract_x
  _atom_site_fract_y
  _atom_site_fract_z
  _atom_site_occupancy
  Cd  Cd1       1.0  0.1549681239487199  0.1000382411657625  0.9890332141000897  1.0000
  Cd  Cd2       1.0  0.8450370441530524  0.8999625897048773  0.010965245807582869  1.0000
  Cd  Cd3       1.0  0.5000013938466168  0.9999998745278235  0.9999983536438534  1.0000
  H   H1        1.0  0.335666445763529  0.5239391108489357  0.8166238575392981  1.0000
  H   H2        1.0  0.6643356043400672  0.47606554539301277  0.1833772492121  1.0000
  H   H3        1.0  0.7377263093556865  0.6757623596231781  0.8312431685577906  1.0000
  H   H4        1.0  0.26227675256926375  0.32423751490463815  0.1687589262022158  1.0000
  H   H5        1.0  0.6101295593952117  0.292104395998571  0.99943655656606  1.0000
  H   H6        1.0  0.3898713888498193  0.7078935658436052  0.0005616182246512947  1.0000
  H   H7        1.0  0.9381767874175821  0.6864437526309786  0.18997743913818976  1.0000
  H   H8        1.0  0.06182203964443292  0.31355134018271974  0.8100254495308334  1.0000
  H   H9        1.0  0.1264489338785424  0.4560359012748876  0.4263713802008695  1.0000
  H   H10       1.0  0.8735488663559111  0.5439620605672815  0.5736315994855445  1.0000
  H   H11       1.0  0.3676292660585575  0.7567971125216104  0.21377421064288885  1.0000
  H   H12       1.0  0.6323685416789928  0.24320180566338934  0.7862304959442241  1.0000
  H   H13       1.0  0.5888076662253141  0.08019412755561461  0.6936421646158024  1.0000
  H   H14       1.0  0.41119224018596173  0.9198047906293781  0.3063558851247379  1.0000
  H   H15       1.0  0.3820983769088713  0.20345619787361363  0.448876279236643  1.0000
  H   H16       1.0  0.617901559514806  0.7965465456826806  0.5511222026390072  1.0000
  H   H17       1.0  0.1396192503624576  0.114855816889893  0.7197463687077532  1.0000
  H   H18       1.0  0.8603785348657951  0.885140232266629  0.28025315717725624  1.0000
  H   H19       1.0  0.2653957642735493  0.0471601337087861  0.18047693727270797  1.0000
  H   H20       1.0  0.7346030402791541  0.9528320900764415  0.8195227133345283  1.0000
  H   H21       1.0  0.19715587271430482  0.0753215608643529  0.335885246757357  1.0000
  H   H22       1.0  0.8028366433203475  0.9246716192636982  0.6641134371533682  1.0000
  H   H23       1.0  0.967917606452318  0.1802725351200181  0.3661239133162367  1.0000
  H   H24       1.0  0.0320823224682556  0.8197292520934525  0.6338734892054845  1.0000
  H   H25       1.0  0.8113734967525019  0.24556205975446943  0.24175772600439416  1.0000
  H   H26       1.0  0.18862967021586036  0.7544512035728985  0.7582368155737101  1.0000
  H   H27       1.0  0.8906781485408432  0.2024912479636072  0.09297812848632249  1.0000
  H   H28       1.0  0.1093313219517782  0.7975229717065773  0.907017595855855  1.0000
  C   C1        1.0  0.3588488381744456  0.2916749980703273  0.9410644722911102  1.0000
  C   C2        1.0  0.6411531894198462  0.7083267891431433  0.05893339639850132  1.0000
  C   C3        1.0  0.46397148502600777  0.3984162460936176  0.9103595188224459  1.0000
  C   C4        1.0  0.5360315919051502  0.6015855411198531  0.08964020181803531  1.0000
  C   C5        1.0  0.43454978205329553  0.5137904007944343  0.8448325175491576  1.0000
  C   C6        1.0  0.5654543592209222  0.4862132991046836  0.15516862356297165  1.0000
  C   C7        1.0  0.5332906531478159  0.6121426095604576  0.8185370240186316  1.0000
  C   C8        1.0  0.46671034011582446  0.3878610903386672  0.18146827444243027  1.0000
  C   C9        1.0  0.6613791836177825  0.5981216674092096  0.8532211698424702  1.0000
  C   C10       1.0  0.3386238933133754  0.401880119804261  0.1467798458915439  1.0000
  C   C11       1.0  0.6876377788541959  0.4816257225751528  0.9176951271056738  1.0000
  C   C12       1.0  0.3123673742413687  0.518373195609847  0.08230311673444388  1.0000
  C   C13       1.0  0.5902542370723864  0.3820044468809058  0.9478860179602009  1.0000
  C   C14       1.0  0.40974880984636297  0.6179935149612703  0.05211262299840062  1.0000
  C   C15       1.0  0.16571951729525844  0.8417911247138221  0.10624027741283731  1.0000
  C   C16       1.0  0.834281423446676  0.1582058807855304  0.8937607033045579  1.0000
  C   C17       1.0  0.1543978001649435  0.7317963984012934  0.19363392537250226  1.0000
  C   C18       1.0  0.8456000075726067  0.2682025197837064  0.8063688385743006  1.0000
  C   C19       1.0  0.027796773228821802  0.6636378452930886  0.22812627949079453  1.0000
  C   C20       1.0  0.9721999851718692  0.3363610728919113  0.7718746325051384  1.0000
  C   C21       1.0  0.0200331529043041  0.5661893804962972  0.31201182159339425  1.0000
  C   C22       1.0  0.9799604574858167  0.4338095376887027  0.6879900100176215  1.0000
  C   C23       1.0  0.1344949730664524  0.5330396691676924  0.3612027174789104  1.0000
  C   C24       1.0  0.8655017853342457  0.4669592490173073  0.6388014322508724  1.0000
  C   C25       1.0  0.25989197434788747  0.6010088663966329  0.3239993860078485  1.0000
  C   C26       1.0  0.7401026853790924  0.3989900517883669  0.6760062401943472  1.0000
  C   C27       1.0  0.2711435244952582  0.7013913909792464  0.24165526652370775  1.0000
  C   C28       1.0  0.7288553325791511  0.2986075272057533  0.7583487018271953  1.0000
  C   C29       1.0  0.35449089300968245  0.0552020205207242  0.8193573742065184  1.0000
  C   C30       1.0  0.6455100477322517  0.9447949849786214  0.1806423114173442  1.0000
  C   C31       1.0  0.36341046820261624  0.0929460027786391  0.7162329989259605  1.0000
  C   C32       1.0  0.6365905025517193  0.907054828092008  0.2837658237394648  1.0000
  C   C33       1.0  0.4935377423903375  0.10204847378304291  0.6612724052150654  1.0000
  C   C34       1.0  0.5064632208608941  0.8979514007447806  0.33872598564320106  1.0000
  C   C35       1.0  0.49780138229865417  0.1409926662858112  0.5660367971706606  1.0000
  C   C36       1.0  0.5021974747757625  0.8590062518991814  0.4339619908060969  1.0000
  C   C37       1.0  0.3765467294010847  0.17194183277504754  0.5235142858055112  1.0000
  C   C38       1.0  0.6234521051640273  0.8280542163814745  0.476485149390065  1.0000
  C   C39       1.0  0.2485131509063976  0.16086738286634983  0.5805246778990566  1.0000
  C   C40       1.0  0.7514867179893657  0.839126753604525  0.41947509808629485  1.0000
  C   C41       1.0  0.2397438922178239  0.1220867249865876  0.6759348302481245  1.0000
  C   C42       1.0  0.760256006690348  0.8779112368555886  0.3240634352320272  1.0000
  C   C43       1.0  0.16494480509996381  0.088884414802628  0.1978058349358136  1.0000
  C   C44       1.0  0.8350488052901498  0.9111145033823718  0.8021934064881293  1.0000
  C   C45       1.0  0.1268172435559833  0.10574856417136402  0.2835833565410297  1.0000
  C   C46       1.0  0.8731784580047446  0.8942493976708051  0.7164191569774871  1.0000
  C   C47       1.0  0.9988229586463434  0.16359009088794352  0.3002635111653404  1.0000
  C   C48       1.0  0.0011832587922882016  0.8364107399827037  0.699734858052892  1.0000
  C   C49       1.0  0.9122064021173631  0.2004924914602242  0.2313905581523485  1.0000
  C   C50       1.0  0.08780195901358921  0.7995140774673644  0.7686024499687464  1.0000
  C   C51       1.0  0.9559573255192504  0.17760529498224292  0.14817889895364533  1.0000
  C   C52       1.0  0.0440458264429111  0.8224060556594708  0.8518141314633709  1.0000
  Br  Br1       1.0  0.49204882223865815  0.7732079553914916  0.7343437283758902  1.0000
  Br  Br2       1.0  0.5079417826997954  0.2268091333071709  0.2656737026539631  1.0000
  Br  Br3       1.0  0.8623590884659721  0.45867540747075003  0.9648325792781521  1.0000
  Br  Br4       1.0  0.13764500778963656  0.5413225543714262  0.03516726608455656  1.0000
  Br  Br5       1.0  0.8477484090804026  0.4744942741322192  0.3629098309117608  1.0000
  Br  Br6       1.0  0.152252501649123  0.5254989059958319  0.6370926603108416  1.0000
  Br  Br7       1.0  0.41997767417864657  0.5525815784452703  0.3873547645781271  1.0000
  Br  Br8       1.0  0.5800211378771607  0.44741160168278077  0.612647260476578  1.0000
  Br  Br9       1.0  0.6760473856773643  0.15294695159313682  0.49197569467870034  1.0000
  Br  Br10      1.0  0.3239514713970522  0.847051966591863  0.508019855564207  1.0000
  Br  Br11      1.0  0.0778586642489785  0.19821065748076452  0.5276202794895539  1.0000
  Br  Br12      1.0  0.9221370072993482  0.8017834789901102  0.4723772690664774  1.0000
  N   N1        1.0  0.080510188295051  0.12409504491821373  0.13131221596962206  1.0000
  N   N2        1.0  0.9194876644611085  0.8759096113237277  0.8686847207121461  1.0000
  O   O1        1.0  0.24491495533570173  0.306650370360515  0.9065942351340651  1.0000
  O   O2        1.0  0.755086015418634  0.693350460510132  0.09340393998459712  1.0000
  O   O3        1.0  0.3872797860968619  0.1880476022838948  0.0033390226828515857  1.0000
  O   O4        1.0  0.6127253895080075  0.8119541849295758  0.996658573938447  1.0000
  O   O5        1.0  0.06021321150486611  0.8741987140105465  0.06252277181836519  1.0000
  O   O6        1.0  0.9397898504200842  0.1258011605172769  0.9374780278481012  1.0000
  O   O7        1.0  0.2797365346579497  0.9060248468699259  0.0805394940661799  1.0000
  O   O8        1.0  0.7202675390883542  0.09397024594377262  0.9194616460621179  1.0000
  O   O9        1.0  0.47053314484836056  0.04253239078061451  0.8523102533309412  1.0000
  O   O10       1.0  0.5294667615629152  0.9574665274043781  0.147688443956369  1.0000
  O   O11       1.0  0.23234031641055  0.040436087309125006  0.8643343845357949  1.0000
  O   O12       1.0  0.7676606243313842  0.9595609181902206  0.1356646535412906  1.0000
