data_image0
_chemical_formula_structural       Cu2H28C28N2O14
_chemical_formula_sum              "Cu2 H28 C28 N2 O14"
_cell_length_a       7.323623810893923
_cell_length_b       8.36975033093812
_cell_length_c       11.832247972768515
_cell_angle_alpha    106.15822790977178
_cell_angle_beta     90.63206737254491
_cell_angle_gamma    96.8201253922685

_space_group_name_H-M_alt    "P 1"
_space_group_IT_number       1

loop_
  _space_group_symop_operation_xyz
  'x, y, z'

loop_
  _atom_site_type_symbol
  _atom_site_label
  _atom_site_symmetry_multiplicity
  _atom_site_fract_x
  _atom_site_fract_y
  _atom_site_fract_z
  _atom_site_occupancy
  Cu  Cu1       1.0  0.6569229618840353  0.7108595217809041  0.5423172153814093  1.0000
  Cu  Cu2       1.0  0.343081125788224  0.28914280027632344  0.4576804888914197  1.0000
  H   H1        1.0  0.39128037980920277  0.5639056558373242  0.08194611437313173  1.0000
  H   H2        1.0  0.6087251498007118  0.4360878708779339  0.9180515578762397  1.0000
  H   H3        1.0  0.3445355917411206  0.72165783105649  0.9410180880595789  1.0000
  H   H4        1.0  0.655460746330604  0.2783382553464051  0.0589817036901863  1.0000
  H   H5        1.0  0.7129526360323694  0.14076780173965636  0.1579253859933232  1.0000
  H   H6        1.0  0.28703723936858677  0.8592308290561306  0.842076544653537  1.0000
  H   H7        1.0  0.8400823647962312  0.4429380191030816  0.5903693782657911  1.0000
  H   H8        1.0  0.1599272605433271  0.5570743065253083  0.4096354147818603  1.0000
  H   H9        1.0  0.9743664361267647  0.3743835266459996  0.7612609494636543  1.0000
  H   H10       1.0  0.025629079945439077  0.6256163275828897  0.23874126873318594  1.0000
  H   H11       1.0  0.8516801310338236  0.8556804950599642  0.977451750692353  1.0000
  H   H12       1.0  0.1483171217198773  0.14432186145585044  0.022549284840209807  1.0000
  H   H13       1.0  0.7213977910281529  0.9034893507597275  0.7946621949463619  1.0000
  H   H14       1.0  0.278610113567396  0.09652047730456564  0.2053395560761757  1.0000
  H   H15       1.0  0.9837213514653554  0.6802810112363673  0.07498459078165354  1.0000
  H   H16       1.0  0.01626424769807499  0.3197163884789518  0.9250170620135804  1.0000
  H   H17       1.0  0.39955391465746  0.5824174455648644  0.6479433494737279  1.0000
  H   H18       1.0  0.6004537079442542  0.41758108864879523  0.35205617243811826  1.0000
  H   H19       1.0  0.9093919051203229  0.7872687411371687  0.4194968458419838  1.0000
  H   H20       1.0  0.09061126468245818  0.21272730986257224  0.5805004595859202  1.0000
  H   H21       1.0  0.6141347430828928  0.0831062801435181  0.609713656446452  1.0000
  H   H22       1.0  0.38587015702638877  0.916892271254021  0.3902841561929264  1.0000
  H   H23       1.0  0.3242281435836816  0.7339235178681845  0.6066928324290046  1.0000
  H   H24       1.0  0.6757753857168963  0.2660750392875925  0.3933066603877791  1.0000
  H   H25       1.0  0.002749169155677558  0.7801139813022572  0.5414302267424347  1.0000
  H   H26       1.0  0.9972543665198969  0.219884577742647  0.4585675761985897  1.0000
  H   H27       1.0  0.8178282965493365  0.04891699663640742  0.6385487492889367  1.0000
  H   H28       1.0  0.18217678649634186  0.951082808783717  0.36144931210700554  1.0000
  C   C1        1.0  0.588514454679043  0.6648963882578515  0.2881477941516053  1.0000
  C   C2        1.0  0.4114910813058684  0.3350971403465479  0.7118481882220138  1.0000
  C   C3        1.0  0.5785952225912537  0.7585844881161493  0.19773235502306363  1.0000
  C   C4        1.0  0.4214079472115272  0.24141156288359158  0.8022649504048404  1.0000
  C   C5        1.0  0.4615101383867497  0.69068831258857  0.09780718406845786  1.0000
  C   C6        1.0  0.5384885658671124  0.30930525141897647  0.9021912846270156  1.0000
  C   C7        1.0  0.43236441277215926  0.7831269642364093  0.019551488694460835  1.0000
  C   C8        1.0  0.567630560865858  0.2168691298138583  0.9804482933569432  1.0000
  C   C9        1.0  0.5165969486074643  0.9493898044793384  0.04039520967734231  1.0000
  C   C10       1.0  0.48339511641422916  0.0506050517876488  0.9596034592829169  1.0000
  C   C11       1.0  0.6389226428818943  0.014837783740027498  0.1395601237963149  1.0000
  C   C12       1.0  0.36106723889405856  0.9851608489448934  0.860440116974786  1.0000
  C   C13       1.0  0.6733730912208742  0.9207404027442935  0.21590485656440714  1.0000
  C   C14       1.0  0.32662070410732  0.07925695392049902  0.7840943196073268  1.0000
  C   C15       1.0  0.8237602144474678  0.9896824205624101  0.309665175034965  1.0000
  C   C16       1.0  0.17623449556270293  0.010321206215302001  0.6903352449195664  1.0000
  C   C17       1.0  0.843515342220627  0.529680170838816  0.678095821272599  1.0000
  C   C18       1.0  0.1564951051184522  0.47032838696358686  0.3219065453279697  1.0000
  C   C19       1.0  0.9180139308072272  0.4926545263069217  0.7746568581669848  1.0000
  C   C20       1.0  0.08198214363665096  0.5073490928234178  0.22534357148590803  1.0000
  C   C21       1.0  0.9193251044222989  0.6078336418362867  0.887155132161979  1.0000
  C   C22       1.0  0.0806664853476704  0.39216748463447  0.112851530385754  1.0000
  C   C23       1.0  0.8523969164145413  0.7606561459371618  0.8931702562260213  1.0000
  C   C24       1.0  0.14759896234295408  0.23934621539233092  0.1068333044218193  1.0000
  C   C25       1.0  0.7785644114504889  0.7884545734098367  0.7927112302336354  1.0000
  C   C26       1.0  0.22144312408477868  0.21155274566471863  0.2072908682136614  1.0000
  C   C27       1.0  0.9790486506065574  0.5747172967978997  0.9955207512585602  1.0000
  C   C28       1.0  0.02094176404109049  0.4252850932319491  0.004484460471616125  1.0000
  N   N1        1.0  0.7713689549285121  0.6734313155815671  0.686910922784442  1.0000
  N   N2        1.0  0.2286385806067557  0.3265760034929955  0.3130911756628549  1.0000
  O   O1        1.0  0.5608230953286153  0.7523769694428141  0.3940896001565194  1.0000
  O   O2        1.0  0.43917816441877017  0.2476153280811104  0.6059061043654665  1.0000
  O   O3        1.0  0.6159933584973273  0.5137211925370481  0.25637328742025295  1.0000
  O   O4        1.0  0.38401526585280976  0.4862748269286429  0.743624901738947  1.0000
  O   O5        1.0  0.9392299900460016  0.8920756998458971  0.3207349755495414  1.0000
  O   O6        1.0  0.06077001707510729  0.10792664893170918  0.6792593198767136  1.0000
  O   O7        1.0  0.8341488417217632  0.14371409474166094  0.3680290080737976  1.0000
  O   O8        1.0  0.1658536985803849  0.8562869809403538  0.6319684377441135  1.0000
  O   O9        1.0  0.40561015961522884  0.6422974850186876  0.5833092360582697  1.0000
  O   O10       1.0  0.5943935558092406  0.357702327104235  0.41668966057719803  1.0000
  O   O11       1.0  0.6863121736596581  0.002597777806933303  0.6301656461525909  1.0000
  O   O12       1.0  0.3136901741435948  0.9974020410187948  0.36983408572239546  1.0000
  O   O13       1.0  0.9037656891330101  0.7200490386846783  0.4773899367174792  1.0000
  O   O14       1.0  0.09623611304856179  0.27994701901786107  0.5226082039499502  1.0000
