data_image0
_chemical_formula_structural       Co4H48C64N8O16
_chemical_formula_sum              "Co4 H48 C64 N8 O16"
_cell_length_a       12.173964132005839
_cell_length_b       12.280468525031157
_cell_length_c       13.709039604040715
_cell_angle_alpha    89.9997430598008
_cell_angle_beta     90.00011208007638
_cell_angle_gamma    90.00000520076927

_space_group_name_H-M_alt    "P 1"
_space_group_IT_number       1

loop_
  _space_group_symop_operation_xyz
  'x, y, z'

loop_
  _atom_site_type_symbol
  _atom_site_label
  _atom_site_symmetry_multiplicity
  _atom_site_fract_x
  _atom_site_fract_y
  _atom_site_fract_z
  _atom_site_occupancy
  Co  Co1       1.0  0.19077654536463481  0.2500006263664858  0.4999996757196216  1.0000
  Co  Co2       1.0  0.30922495624094637  0.2499985724032712  0.9999997930279962  1.0000
  Co  Co3       1.0  0.8092217903439191  0.7500003119572868  0.4999984745486331  1.0000
  Co  Co4       1.0  0.6907769453569869  0.7500006883769359  0.99999911557849  1.0000
  H   H1        1.0  0.4656550610826783  0.5195781051887424  0.57956147200089  1.0000
  H   H2        1.0  0.4656516175027646  0.980424111008489  0.4204377981627729  1.0000
  H   H3        1.0  0.03435294481883489  0.9804208661083038  0.0795659887942008  1.0000
  H   H4        1.0  0.0343489251710594  0.5195788615856572  0.9204383678496697  1.0000
  H   H5        1.0  0.5343465603256305  0.48042446173937486  0.42043594882123614  1.0000
  H   H6        1.0  0.5343483610624419  0.0195760129996501  0.5795661876741535  1.0000
  H   H7        1.0  0.9656519622913607  0.019576000708099197  0.9204328909336753  1.0000
  H   H8        1.0  0.9656502319691072  0.4804237053259753  0.07956561798162202  1.0000
  H   H9        1.0  0.3348712271325097  0.4258548550618996  0.754012134074401  1.0000
  H   H10       1.0  0.33487065419300416  0.07414397000442109  0.24598454985155632  1.0000
  H   H11       1.0  0.16513137536555428  0.07414394101099481  0.254019976288177  1.0000
  H   H12       1.0  0.16512618063705278  0.4258548660876826  0.7459873545134031  1.0000
  H   H13       1.0  0.6651320371250904  0.5741436403622302  0.24598455731165816  1.0000
  H   H14       1.0  0.6651326100694137  0.9258545254088019  0.7540165182087082  1.0000
  H   H15       1.0  0.8348686031979112  0.9258529257960647  0.7459825506639248  1.0000
  H   H16       1.0  0.8348696908042539  0.5741485151213226  0.2540180902047879  1.0000
  H   H17       1.0  0.3605647566196879  0.5132925045223686  0.9080782064218198  1.0000
  H   H18       1.0  0.3605679825438344  0.9867072576644844  0.09192088123066362  1.0000
  H   H19       1.0  0.13943575882106526  0.9867056438653421  0.4080770448032709  1.0000
  H   H20       1.0  0.13943265775557728  0.5132908377503539  0.5919194704541371  1.0000
  H   H21       1.0  0.6394376862177039  0.486708433794348  0.09192286163280272  1.0000
  H   H22       1.0  0.6394352817145047  0.0132896091554713  0.9080765396043802  1.0000
  H   H23       1.0  0.860567505440457  0.013290408646163598  0.5919232938162226  1.0000
  H   H24       1.0  0.8605664993757215  0.4867109148800921  0.4080764914760807  1.0000
  H   H25       1.0  0.47603808250585183  0.6274402084379673  0.01888522612402  1.0000
  H   H26       1.0  0.47603997319946956  0.8725620088514958  0.9811162504147151  1.0000
  H   H27       1.0  0.023960754029800996  0.8725574366610258  0.5188843534386649  1.0000
  H   H28       1.0  0.02396152458570099  0.6274406613451762  0.4811148790434743  1.0000
  H   H29       1.0  0.5239651817574965  0.3725615441781543  0.981116571375381  1.0000
  H   H30       1.0  0.5239641124880166  0.12743485795941473  0.018884817649549707  1.0000
  H   H31       1.0  0.9760384031036294  0.1274369872533541  0.48111379684344513  1.0000
  H   H32       1.0  0.9760359897002643  0.37256353417781446  0.5188854595545962  1.0000
  H   H33       1.0  0.6851721328698233  0.7123055723649683  0.7935383345263889  1.0000
  H   H34       1.0  0.6851723104116445  0.7876917812265704  0.2064613169097242  1.0000
  H   H35       1.0  0.8148245051049655  0.7876988997996647  0.2935411983453378  1.0000
  H   H36       1.0  0.814829064257978  0.7123057962041204  0.7064594077070225  1.0000
  H   H37       1.0  0.31482702426298903  0.28769373735830334  0.20645908630016419  1.0000
  H   H38       1.0  0.3148293110004373  0.21230427128303125  0.7935397511540431  1.0000
  H   H39       1.0  0.18517218775670588  0.21230611002264516  0.706459869696076  1.0000
  H   H40       1.0  0.1851692714513788  0.2876951421178333  0.29353947200692704  1.0000
  H   H41       1.0  0.5800805078365556  0.6038963239559009  0.6724541228986  1.0000
  H   H42       1.0  0.5800801389223693  0.8961002042252773  0.32754607546019093  1.0000
  H   H43       1.0  0.919920791906044  0.8961006086580666  0.17245089624808685  1.0000
  H   H44       1.0  0.9199198596740102  0.603896769757185  0.8275440567809724  1.0000
  H   H45       1.0  0.4199211135708579  0.3961038000704988  0.3275425684827483  1.0000
  H   H46       1.0  0.419922303914987  0.10389991979026549  0.6724549925960802  1.0000
  H   H47       1.0  0.08008000807618029  0.10389788676593531  0.8275457951358336  1.0000
  H   H48       1.0  0.0800784760353821  0.3961049828659427  0.17245482293134276  1.0000
  C   C1        1.0  0.33671510908259705  0.39872201513048117  0.5575469326174343  1.0000
  C   C2        1.0  0.3367149710534889  0.1012816959323715  0.4424519428386162  1.0000
  C   C3        1.0  0.1632870605500116  0.10127776008174288  0.0575473676843643  1.0000
  C   C4        1.0  0.16328558234119583  0.3987234897348273  0.9424563126837885  1.0000
  C   C5        1.0  0.6632856908982987  0.6012838090077679  0.44244829986029544  1.0000
  C   C6        1.0  0.6632874717878893  0.8987184280740764  0.557552772446158  1.0000
  C   C7        1.0  0.8367112751544069  0.8987199210464  0.9424471353619596  1.0000
  C   C8        1.0  0.8367119319544755  0.6012823343687045  0.05755277925940311  1.0000
  C   C9        1.0  0.40528939191361246  0.4707858909514543  0.6191689606780741  1.0000
  C   C10       1.0  0.40528993409402864  0.029215384461096495  0.38082784554688953  1.0000
  C   C11       1.0  0.094714556345572  0.029214391436767104  0.11917759133610421  1.0000
  C   C12       1.0  0.09471212637701142  0.4707901083259927  0.8808303466014424  1.0000
  C   C13       1.0  0.5947081223651125  0.5292183045878929  0.38082481290869213  1.0000
  C   C14       1.0  0.5947133301707481  0.9707814823443144  0.6191754108537637  1.0000
  C   C15       1.0  0.90528624364466  0.9707832896678711  0.8808263945064709  1.0000
  C   C16       1.0  0.9052870307649455  0.5292173443890746  0.11917509811138423  1.0000
  C   C17       1.0  0.39564925474473256  0.4766600151522128  0.7170868135355519  1.0000
  C   C18       1.0  0.39564793789563163  0.023338002036638297  0.28290997595129147  1.0000
  C   C19       1.0  0.10435408782045391  0.0233373363495915  0.21709183741650412  1.0000
  C   C20       1.0  0.10435062113869262  0.47666309293695264  0.7829117405961841  1.0000
  C   C21       1.0  0.6043523666618497  0.5233392945748251  0.2829091484017426  1.0000
  C   C22       1.0  0.6043545049424992  0.9766613076759045  0.7170918215523232  1.0000
  C   C23       1.0  0.8956467121665028  0.9766587161599675  0.7829092306465455  1.0000
  C   C24       1.0  0.8956468931505126  0.52334191687995  0.2170915157830464  1.0000
  C   C25       1.0  0.4607850539974833  0.5465944885203271  0.7805900833685513  1.0000
  C   C26       1.0  0.46078609401567405  0.9534020270523483  0.21940990779792463  1.0000
  C   C27       1.0  0.0392110734356024  0.953403480919576  0.28059179984413873  1.0000
  C   C28       1.0  0.039211541469242696  0.5465946186984425  0.7194074591246535  1.0000
  C   C29       1.0  0.5392116388606992  0.45340319259863554  0.21940806690484757  1.0000
  C   C30       1.0  0.5392114202700711  0.04659646836238808  0.7805904308116427  1.0000
  C   C31       1.0  0.9607864408493115  0.0465942001957984  0.719407809321375  1.0000
  C   C32       1.0  0.9607884370903648  0.4534063196235963  0.2805914205907314  1.0000
  C   C33       1.0  0.4320763554735052  0.556349568117568  0.8797180622541492  1.0000
  C   C34       1.0  0.43207881920419317  0.94364938732263  0.12028260849277933  1.0000
  C   C35       1.0  0.0679232760629347  0.9436422071876862  0.37972132686142873  1.0000
  C   C36       1.0  0.06792106215632289  0.5563501953511433  0.6202801703212727  1.0000
  C   C37       1.0  0.5679260873596803  0.4436464844011637  0.12027935858182563  1.0000
  C   C38       1.0  0.5679260879101733  0.0563515509905841  0.8797199184553863  1.0000
  C   C39       1.0  0.9320775239246687  0.056349773814155  0.6202804706555369  1.0000
  C   C40       1.0  0.9320764521287116  0.4436507429689486  0.37971943883766823  1.0000
  C   C41       1.0  0.49598658646703336  0.619301412677956  0.9416690846597221  1.0000
  C   C42       1.0  0.49598808752250534  0.880699178121162  0.05833096763731761  1.0000
  C   C43       1.0  0.004006610158626199  0.8806990112005764  0.4416703039269124  1.0000
  C   C44       1.0  0.0040124787716990995  0.6193015275968037  0.5583303527895753  1.0000
  C   C45       1.0  0.5040133920925173  0.3806978970417275  0.05832979505894541  1.0000
  C   C46       1.0  0.5040135338897328  0.1193009458943308  0.941670100418236  1.0000
  C   C47       1.0  0.9959900827029243  0.11930274141701598  0.5583307641210737  1.0000
  C   C48       1.0  0.995987499789514  0.380699410721597  0.44166998581720673  1.0000
  C   C49       1.0  0.6130584216444673  0.665861033086081  0.8149745864145219  1.0000
  C   C50       1.0  0.6130593768930552  0.8341371271830198  0.1850256692185042  1.0000
  C   C51       1.0  0.8869423706804368  0.8341343749434955  0.31497374086411883  1.0000
  C   C52       1.0  0.886940307696733  0.6658621856831459  0.6850218843340486  1.0000
  C   C53       1.0  0.3869407354898937  0.3341366480311976  0.1850242933067179  1.0000
  C   C54       1.0  0.3869430659442728  0.1658621825313347  0.8149753988394083  1.0000
  C   C55       1.0  0.11305842930413951  0.16586249187268723  0.6850251388601906  1.0000
  C   C56       1.0  0.11305638516076752  0.3341387526423532  0.31497553648707577  1.0000
  C   C57       1.0  0.5531156689525288  0.6057209823671742  0.748344167611279  1.0000
  C   C58       1.0  0.5531143112730988  0.8942747286609815  0.2516567133612  1.0000
  C   C59       1.0  0.9468841551444883  0.8942772006331409  0.24834245404392877  1.0000
  C   C60       1.0  0.9468789487192594  0.6057218092322358  0.7516532752540714  1.0000
  C   C61       1.0  0.4468859524571371  0.39427507014787727  0.2516547121153891  1.0000
  C   C62       1.0  0.44688813156265167  0.10572539535819196  0.7483428958036671  1.0000
  C   C63       1.0  0.05311500198912711  0.1057221090883189  0.7516556962283261  1.0000
  C   C64       1.0  0.053113637011847493  0.3942799433960431  0.2483434161161427  1.0000
  N   N1        1.0  0.587144207721522  0.6716113875952769  0.9109068741918875  1.0000
  N   N2        1.0  0.5871441297498804  0.8283883985372071  0.08909333642888842  1.0000
  N   N3        1.0  0.9128526888379086  0.8283924996523099  0.41090536738689565  1.0000
  N   N4        1.0  0.9128537006289292  0.6716081352207227  0.5890895733613277  1.0000
  N   N5        1.0  0.412855770838121  0.3283903650279427  0.08909200552184873  1.0000
  N   N6        1.0  0.41285749166303276  0.17160846827174944  0.9109084610789326  1.0000
  N   N7        1.0  0.08714482544320391  0.17161088158040633  0.5890905945386182  1.0000
  N   N8        1.0  0.08714299222934589  0.3283919888017834  0.4109085769071399  1.0000
  O   O1        1.0  0.2587224805198502  0.3426149265331517  0.599536790404102  1.0000
  O   O2        1.0  0.2587230756411074  0.15739121919371263  0.4004604906978813  1.0000
  O   O3        1.0  0.24127978162590577  0.1573870823185644  0.09953713452460282  1.0000
  O   O4        1.0  0.24127902808924523  0.3426166186447831  0.900466681297786  1.0000
  O   O5        1.0  0.7412758551848383  0.6573900833056001  0.40045771262743574  1.0000
  O   O6        1.0  0.7412793671986577  0.842608904816366  0.5995427656954888  1.0000
  O   O7        1.0  0.7587201969271503  0.8426105988133018  0.900455909631745  1.0000
  O   O8        1.0  0.7587209504842959  0.6573916483569704  0.099544598979719  1.0000
  O   O9        1.0  0.3535509387884516  0.39313613484191723  0.467288265284637  1.0000
  O   O10       1.0  0.3535501786149949  0.1068659494015876  0.5327091805233907  1.0000
  O   O11       1.0  0.14644227650185118  0.10685915542963191  0.967294513024001  1.0000
  O   O12       1.0  0.14645193630125417  0.39313720678373454  0.0327157031187966  1.0000
  O   O13       1.0  0.6464473969143539  0.6068615462898564  0.5327047788702828  1.0000
  O   O14       1.0  0.64644815710011  0.8931382461123578  0.46729480530389383  1.0000
  O   O15       1.0  0.8535503092306483  0.8931368970867624  0.032703637249113605  1.0000
  O   O16       1.0  0.8535521493984389  0.6068637315058041  0.9672963066227641  1.0000
