data_image0
_chemical_formula_structural       Zn2H22C19N2O8
_chemical_formula_sum              "Zn2 H22 C19 N2 O8"
_cell_length_a       9.82940323604281
_cell_length_b       10.938826261286412
_cell_length_c       11.312565157263682
_cell_angle_alpha    89.85949161175593
_cell_angle_beta     85.62601855587383
_cell_angle_gamma    75.47082674681222

_space_group_name_H-M_alt    "P 1"
_space_group_IT_number       1

loop_
  _space_group_symop_operation_xyz
  'x, y, z'

loop_
  _atom_site_type_symbol
  _atom_site_label
  _atom_site_symmetry_multiplicity
  _atom_site_fract_x
  _atom_site_fract_y
  _atom_site_fract_z
  _atom_site_occupancy
  Zn  Zn1       1.0  0.3584514173078689  0.5392527089879379  0.48409958790973906  1.0000
  Zn  Zn2       1.0  0.6426076826462008  0.47008503929445317  0.5128501559101719  1.0000
  H   H1        1.0  0.34453676772931635  0.9369075113857475  0.3757216579897288  1.0000
  H   H2        1.0  0.6835396110662089  0.0709383678009416  0.6011640909302186  1.0000
  H   H3        1.0  0.4331356524518314  0.9108523047624145  0.6834064409327635  1.0000
  H   H4        1.0  0.4257437514510586  0.12545389500273535  0.6855513463773943  1.0000
  H   H5        1.0  0.6223250280172223  0.48800670930828716  0.8975425878172485  1.0000
  H   H6        1.0  0.37951000293428894  0.5308100168451733  0.1014520349850088  1.0000
  H   H7        1.0  0.29950801971072144  0.5440731490004183  0.891950494459429  1.0000
  H   H8        1.0  0.7028817941326508  0.47273543559144576  0.10366268129714479  1.0000
  H   H9        1.0  0.12884998742962486  0.4238599551046818  0.564498789557703  1.0000
  H   H10       1.0  0.8725152766002393  0.582996131100245  0.4292713350870868  1.0000
  H   H11       1.0  0.09287133610281731  0.6382470522984606  0.40439538827371974  1.0000
  H   H12       1.0  0.9079236291574162  0.3718533341698489  0.5932479881998771  1.0000
  H   H13       1.0  0.5302846420870325  0.10395578571680633  0.3085234382371452  1.0000
  H   H14       1.0  0.35162199813994016  0.1467430299056716  0.3644795488959645  1.0000
  H   H15       1.0  0.2958876090611184  0.9391259954788609  0.5869186487516556  1.0000
  H   H16       1.0  0.2908234337405062  0.15467082497320214  0.5867758866258868  1.0000
  H   H17       1.0  0.6853628223972094  0.8565802339585037  0.5996392142762729  1.0000
  H   H18       1.0  0.7282348458699345  0.8496390886770442  0.4459096494624786  1.0000
  H   H19       1.0  0.7227339997155583  0.06433392338825432  0.4468630922715489  1.0000
  H   H20       1.0  0.4956068116743921  0.919928652442657  0.18720276345436554  1.0000
  H   H21       1.0  0.6494886499674805  0.8775049207371666  0.2653202142229317  1.0000
  H   H22       1.0  0.5340559655358205  0.7753537208920208  0.2644551874864688  1.0000
  C   C1        1.0  0.564688729374744  0.494405740971395  0.2680180254987618  1.0000
  C   C2        1.0  0.5005013737632282  0.12397271643850158  0.4998207981467287  1.0000
  C   C3        1.0  0.3970249032271553  0.0963399609231033  0.5997718282132778  1.0000
  C   C4        1.0  0.6494410919175094  0.042878699072233  0.5173375783357698  1.0000
  C   C5        1.0  0.5923792203350899  0.49234849852325613  0.13731888226875807  1.0000
  C   C6        1.0  0.48829181327661075  0.5119039620479455  0.06268003856842339  1.0000
  C   C7        1.0  0.41059125252966305  0.5239177620712284  0.8599200403817516  1.0000
  C   C8        1.0  0.5132613721770908  0.5072557410474232  0.9357253950624763  1.0000
  C   C9        1.0  0.9262302123533459  0.5096261875943  0.4882773616110398  1.0000
  C   C10       1.0  0.0749676639628518  0.49847207998990933  0.5067954753098148  1.0000
  C   C11       1.0  0.5017281844211537  0.7448696062968808  0.49700838353244575  1.0000
  C   C12       1.0  0.44202958674663506  0.5164866413965328  0.7294699637705474  1.0000
  C   C13       1.0  0.49608310240837017  0.26477856191766597  0.4991979660115574  1.0000
  C   C14       1.0  0.4539730975812974  0.9441631684750078  0.37808361927310574  1.0000
  C   C15       1.0  0.45574570235623196  0.08586169728916104  0.38017635864651556  1.0000
  C   C16       1.0  0.40050807011482453  0.9539758974288475  0.5987146668967184  1.0000
  C   C17       1.0  0.6518610286707444  0.9010583906636924  0.5159278859146139  1.0000
  C   C18       1.0  0.5046473551482578  0.8838984396775658  0.49689736156449255  1.0000
  C   C19       1.0  0.5381681224648532  0.8747553104571609  0.26809994488353783  1.0000
  N   N1        1.0  0.8541570958203837  0.4384789533528631  0.5380350561787919  1.0000
  N   N2        1.0  0.14690786168200276  0.570510686455819  0.45848471073617236  1.0000
  O   O1        1.0  0.43626772593142255  0.5181450661124458  0.3102866193951498  1.0000
  O   O2        1.0  0.6726201447103293  0.47198394901187163  0.3284096447988744  1.0000
  O   O3        1.0  0.38295086365575065  0.7203638277001118  0.48700261402862555  1.0000
  O   O4        1.0  0.6175316325979808  0.662806516827132  0.5072980094599017  1.0000
  O   O5        1.0  0.3355809116157075  0.5392287208517744  0.6669824791452681  1.0000
  O   O6        1.0  0.5711105913854055  0.48827963217758014  0.6894281916063889  1.0000
  O   O7        1.0  0.37703828110463883  0.3430049326213265  0.49129625857489134  1.0000
  O   O8        1.0  0.6127354562602748  0.2943592794532535  0.5057332053032866  1.0000
