data_image0
_chemical_formula_structural       Rb4H20C24N8O24
_chemical_formula_sum              "Rb4 H20 C24 N8 O24"
_cell_length_a       5.367237842655005
_cell_length_b       7.73950012633012
_cell_length_c       21.944614336166772
_cell_angle_alpha    89.99957494321785
_cell_angle_beta     89.99966889959047
_cell_angle_gamma    87.77675444849338

_space_group_name_H-M_alt    "P 1"
_space_group_IT_number       1

loop_
  _space_group_symop_operation_xyz
  'x, y, z'

loop_
  _atom_site_type_symbol
  _atom_site_label
  _atom_site_symmetry_multiplicity
  _atom_site_fract_x
  _atom_site_fract_y
  _atom_site_fract_z
  _atom_site_occupancy
  Rb  Rb1       1.0  0.8128951915403916  0.7616929481011496  0.9817547863528873  1.0000
  Rb  Rb2       1.0  0.18710982255149133  0.7383202521497123  0.48175701958408723  1.0000
  Rb  Rb3       1.0  0.18711207766547489  0.23831285222598098  0.0182476992536778  1.0000
  Rb  Rb4       1.0  0.8128919523855416  0.2616921972019597  0.5182427318607239  1.0000
  H   H1        1.0  0.5604819167979045  0.09195328077414898  0.9152016395970081  1.0000
  H   H2        1.0  0.4395184264046251  0.4080629570097755  0.4152038602871357  1.0000
  H   H3        1.0  0.4395253524962754  0.9080525196306367  0.0847917321560701  1.0000
  H   H4        1.0  0.5604852525821614  0.5919520113604404  0.5847990810010231  1.0000
  H   H5        1.0  0.7428897121715609  0.23167764750126443  0.934192727659557  1.0000
  H   H6        1.0  0.2571212119841917  0.2683223857623601  0.4341906554352235  1.0000
  H   H7        1.0  0.2571100398092412  0.7683245340057849  0.0658065681098563  1.0000
  H   H8        1.0  0.7428748903640212  0.7316850894096874  0.5658063618656897  1.0000
  H   H9        1.0  0.5335138373958515  0.4005266069962089  0.23278090458926212  1.0000
  H   H10       1.0  0.4664839723688559  0.09946193587828125  0.7327747111073819  1.0000
  H   H11       1.0  0.46649519714436133  0.5994726720601449  0.7672270493379187  1.0000
  H   H12       1.0  0.5335099286854615  0.9005236482294517  0.2672236733066882  1.0000
  H   H13       1.0  0.16865040908342624  0.6817214528122832  0.2914502902534934  1.0000
  H   H14       1.0  0.8313635497366221  0.818272843776313  0.7914483104733279  1.0000
  H   H15       1.0  0.8313792533748912  0.31828487231180697  0.7085531067195987  1.0000
  H   H16       1.0  0.16862301241261693  0.18172074471550556  0.20854688408573446  1.0000
  H   H17       1.0  0.28844779306820106  0.7251321532120585  0.18339719200737647  1.0000
  H   H18       1.0  0.7115383691338694  0.7748611324741005  0.6833964488935962  1.0000
  H   H19       1.0  0.7115555292830181  0.27485956875371187  0.8166052936238302  1.0000
  H   H20       1.0  0.28845017631403647  0.22514014090090473  0.3166023911935554  1.0000
  C   C1        1.0  0.9853433572830282  0.5866841179355686  0.143858666971127  1.0000
  C   C2        1.0  0.0146398819996705  0.9133125523066568  0.6438481431708993  1.0000
  C   C3        1.0  0.0146582194456144  0.41331541667879884  0.8561488312689961  1.0000
  C   C4        1.0  0.9853409679517426  0.08667347908681929  0.3561424944775382  1.0000
  C   C5        1.0  0.7661566689572936  0.4917288589439436  0.1613407262690671  1.0000
  C   C6        1.0  0.23384075991260286  0.008267422507685803  0.66133837529771  1.0000
  C   C7        1.0  0.23385990268755558  0.508275330457856  0.8386635821031662  1.0000
  C   C8        1.0  0.7661549263468006  0.9917129318468767  0.3386595534302259  1.0000
  C   C9        1.0  0.698376909653156  0.47126907835200876  0.22194155805608776  1.0000
  C   C10       1.0  0.3016455462027637  0.028731733340279703  0.7219367570709352  1.0000
  C   C11       1.0  0.30164337105102856  0.5287336917745334  0.7780663958567118  1.0000
  C   C12       1.0  0.6983484935669608  0.9712628910567742  0.2780593488658738  1.0000
  C   C13       1.0  0.8412679392843005  0.5397958931439533  0.2681098418781716  1.0000
  C   C14       1.0  0.15873540405609532  0.960206933332344  0.7681057784867137  1.0000
  C   C15       1.0  0.1587599775911883  0.46021824466367883  0.7318944664697612  1.0000
  C   C16       1.0  0.841243621045912  0.03978174486451283  0.23188713762252894  1.0000
  C   C17       1.0  0.058189095832155105  0.6308969474674412  0.2543812246633976  1.0000
  C   C18       1.0  0.9418142559689786  0.869089323853899  0.7543802791596406  1.0000
  C   C19       1.0  0.9418349336551729  0.3691069864035157  0.745620349547174  1.0000
  C   C20       1.0  0.05815727166830701  0.13089702694341546  0.2456149154225571  1.0000
  C   C21       1.0  0.12418375634310759  0.6534323443170179  0.19476969994666152  1.0000
  C   C22       1.0  0.875819163667437  0.8465730872413956  0.6947698407753293  1.0000
  C   C23       1.0  0.8758327162659895  0.34656538777630885  0.8052314185867716  1.0000
  C   C24       1.0  0.12417116702528833  0.1534229564153904  0.3052244423916051  1.0000
  N   N1        1.0  0.6109435297392524  0.41122741508585386  0.11706359522021612  1.0000
  N   N2        1.0  0.3890378979650252  0.08876503006676728  0.6170539135187099  1.0000
  N   N3        1.0  0.389050569360073  0.5887710836155261  0.8829439030275097  1.0000
  N   N4        1.0  0.610950429584797  0.9112220372125251  0.3829399139708443  1.0000
  N   N5        1.0  0.7707009478539107  0.5122666613518161  0.3298727030050159  1.0000
  N   N6        1.0  0.2293086959679442  0.9877374400437089  0.8298666192733322  1.0000
  N   N7        1.0  0.22931383857260806  0.48774275779150855  0.6701334281313791  1.0000
  N   N8        1.0  0.770689092509855  0.0122583480317573  0.1701308537367083  1.0000
  O   O1        1.0  0.05601683365500071  0.609700243283349  0.0894068397324332  1.0000
  O   O2        1.0  0.9439471301525589  0.890309680749368  0.5894058261100241  1.0000
  O   O3        1.0  0.9439809547521565  0.3902955447299945  0.9105979243604027  1.0000
  O   O4        1.0  0.05603026823336421  0.10969455892216466  0.41058936844017785  1.0000
  O   O5        1.0  0.649282530799404  0.43323997982511736  0.0614981888268105  1.0000
  O   O6        1.0  0.3506795439868569  0.06675928079565097  0.561493648594876  1.0000
  O   O7        1.0  0.35070059956234456  0.5667731083808288  0.9385052081734386  1.0000
  O   O8        1.0  0.6492885123069244  0.9332439868436493  0.43850245734968507  1.0000
  O   O9        1.0  0.4398337139592314  0.3185205328881864  0.1358725894477004  1.0000
  O   O10       1.0  0.5601438580879474  0.18148721714244687  0.6358614381744943  1.0000
  O   O11       1.0  0.560179089102391  0.6814812013137087  0.8641367315507296  1.0000
  O   O12       1.0  0.439837150317139  0.8185091459414762  0.3641346677701591  1.0000
  O   O13       1.0  0.5791508496788397  0.4275324738226374  0.3399547311278042  1.0000
  O   O14       1.0  0.4208618810904809  0.0724678739097229  0.8399455035865911  1.0000
  O   O15       1.0  0.42086770526908884  0.5724794004662286  0.6600527670798401  1.0000
  O   O16       1.0  0.5791525092195259  0.9275157160230092  0.1600451340385547  1.0000
  O   O17       1.0  0.9004366574585279  0.5711668555563135  0.3717205898448341  1.0000
  O   O18       1.0  0.0995964330604409  0.9288369936454756  0.8717139831894656  1.0000
  O   O19       1.0  0.0995857254861363  0.4288513483105448  0.6282846298867071  1.0000
  O   O20       1.0  0.9004014347060121  0.07116396032957792  0.1282798442712405  1.0000
  O   O21       1.0  0.6505625831522935  0.1334852988129072  0.9511160105239468  1.0000
  O   O22       1.0  0.349412687444307  0.36652211726561035  0.4511162244581257  1.0000
  O   O23       1.0  0.34941665986988113  0.8665175854990748  0.04887963971951591  1.0000
  O   O24       1.0  0.6505684001611202  0.6334794116402306  0.5488853497906803  1.0000
