data_image0
_chemical_formula_structural       Zn16H32C96S16O52
_chemical_formula_sum              "Zn16 H32 C96 S16 O52"
_cell_length_a       19.653508355561833
_cell_length_b       19.662115462903998
_cell_length_c       33.33657278189347
_cell_angle_alpha    79.28813207906909
_cell_angle_beta     79.31504055051035
_cell_angle_gamma    64.02543736173858

_space_group_name_H-M_alt    "P 1"
_space_group_IT_number       1

loop_
  _space_group_symop_operation_xyz
  'x, y, z'

loop_
  _atom_site_type_symbol
  _atom_site_label
  _atom_site_symmetry_multiplicity
  _atom_site_fract_x
  _atom_site_fract_y
  _atom_site_fract_z
  _atom_site_occupancy
  Zn  Zn1       1.0  0.05559090120974019  0.4009519288327892  0.47827579795951897  1.0000
  Zn  Zn2       1.0  0.983277173794924  0.48318654761539637  0.5602397538092064  1.0000
  Zn  Zn3       1.0  0.06017630852532818  0.5604401688482522  0.48310852899648893  1.0000
  Zn  Zn4       1.0  0.9010221012879639  0.5552772750067946  0.478343806545368  1.0000
  Zn  Zn5       1.0  0.6943416549361456  0.3490862121312048  0.27170721753105204  1.0000
  Zn  Zn6       1.0  0.6897739833218138  0.18957772728906985  0.26685796148320406  1.0000
  Zn  Zn7       1.0  0.7669563250388336  0.2667521835874568  0.1896695858643866  1.0000
  Zn  Zn8       1.0  0.8487328881872498  0.19477119252858444  0.2717387178798916  1.0000
  Zn  Zn9       1.0  0.2667408414614769  0.7668176514982435  0.6897566933290947  1.0000
  Zn  Zn10      1.0  0.3489736939804259  0.6946853801424662  0.7716748128192565  1.0000
  Zn  Zn11      1.0  0.19437078476365593  0.8490462574695884  0.771747254842282  1.0000
  Zn  Zn12      1.0  0.18980193504049933  0.689554793996237  0.7669025892775069  1.0000
  Zn  Zn13      1.0  0.5602072457848664  0.060418894851728994  0.9831522942689547  1.0000
  Zn  Zn14      1.0  0.4012740243181837  0.05518937310108642  0.9782702609820365  1.0000
  Zn  Zn15      1.0  0.555618766343727  0.9009118695439113  0.9783158900930004  1.0000
  Zn  Zn16      1.0  0.4830504142430882  0.9832614148749171  0.060325586693821306  1.0000
  H   H1        1.0  0.7960747444557583  0.5021423675212376  0.39913472955002754  1.0000
  H   H2        1.0  0.9539225442962473  0.24786848027051175  0.350881062300431  1.0000
  H   H3        1.0  0.7478285101998308  0.4538930698755054  0.35085375184510786  1.0000
  H   H4        1.0  0.0021991315208679993  0.29611512612950713  0.39914925075414237  1.0000
  H   H5        1.0  0.15236139106509228  0.6524132370894759  0.5493461071140118  1.0000
  H   H6        1.0  0.09764190218749039  0.5975795337194254  0.7006685493420264  1.0000
  H   H7        1.0  0.20065774757908628  0.7006716623121036  0.5976207025306054  1.0000
  H   H8        1.0  0.04934099033221169  0.5493157545498377  0.6523962218400996  1.0000
  H   H9        1.0  0.28628722929003186  0.5107807928750245  0.40925118155814744  1.0000
  H   H10       1.0  0.46367558966331035  0.23920748867740824  0.34072945275453753  1.0000
  H   H11       1.0  0.771548085550627  0.5470624496465886  0.6485579666569308  1.0000
  H   H12       1.0  0.4784995714243933  0.7029434018357322  0.6014288106185505  1.0000
  H   H13       1.0  0.04708841428105609  0.2714924078260026  0.6485618883862473  1.0000
  H   H14       1.0  0.20293028079903047  0.9785401175697287  0.6014264235712545  1.0000
  H   H15       1.0  0.8006515013736432  0.7791982198159247  0.4022120944767239  1.0000
  H   H16       1.0  0.9492976766660346  0.9708068919420183  0.3478094666438167  1.0000
  H   H17       1.0  0.700691223811482  0.2006490712070956  0.09762146502366424  1.0000
  H   H18       1.0  0.5493072085603499  0.04933675085018052  0.15239532690800672  1.0000
  H   H19       1.0  0.6523788720251031  0.152413327959266  0.04935214531354153  1.0000
  H   H20       1.0  0.5976235433085008  0.09757600828930899  0.20066413863283833  1.0000
  H   H21       1.0  0.7029654397408932  0.47852507669139044  0.10143189000804402  1.0000
  H   H22       1.0  0.5470515428310493  0.7715070424542604  0.14855718216268335  1.0000
  H   H23       1.0  0.08702349854475948  0.10855216306487853  0.21002531591046392  1.0000
  H   H24       1.0  0.1629694776040651  0.14145439517290723  0.03994612380000011  1.0000
  H   H25       1.0  0.2478263983278736  0.953892243842148  0.8508503374008999  1.0000
  H   H26       1.0  0.502195757790723  0.7961141990368077  0.8991449905240287  1.0000
  H   H27       1.0  0.296098564621296  0.0021410483850132574  0.8991184071014545  1.0000
  H   H28       1.0  0.4539443913242138  0.7478685920332636  0.8508644674484744  1.0000
  H   H29       1.0  0.44931751272211773  0.47080309431261447  0.8477935406002503  1.0000
  H   H30       1.0  0.3006701967546589  0.2791964520973096  0.9021957723704832  1.0000
  H   H31       1.0  0.9636721813015113  0.7392096294318334  0.8407347644733109  1.0000
  H   H32       1.0  0.7862846556861028  0.010781461245024106  0.9092565927781848  1.0000
  C   C1        1.0  0.06125119542289778  0.3159595032606433  0.5616782481433019  1.0000
  C   C2        1.0  0.0694203796167727  0.569430592889205  0.5694220070102888  1.0000
  C   C3        1.0  0.18425241279489768  0.43899477709849305  0.43858729733004503  1.0000
  C   C4        1.0  0.9381099468768568  0.6842290446512675  0.4385785501943075  1.0000
  C   C5        1.0  0.9305756225211894  0.43057816610154714  0.43059562923025413  1.0000
  C   C6        1.0  0.8159680052629098  0.5612501671517831  0.5616716707872982  1.0000
  C   C7        1.0  0.5656687214812378  0.31100556397623086  0.3114232230577869  1.0000
  C   C8        1.0  0.6806164602433284  0.18057856821170748  0.180553203352055  1.0000
  C   C9        1.0  0.6888077301877968  0.4340500657596207  0.18833623593034335  1.0000
  C   C10       1.0  0.9344908971489971  0.18840914138324627  0.188763683738749  1.0000
  C   C11       1.0  0.8194364995967188  0.3194166700494774  0.31941909218601694  1.0000
  C   C12       1.0  0.8118486886121231  0.0657047462349851  0.31144971523694664  1.0000
  C   C13       1.0  0.4340521954804472  0.6887954857709102  0.6883350686745546  1.0000
  C   C14       1.0  0.31943895818780976  0.8194212169920547  0.8194086065836288  1.0000
  C   C15       1.0  0.18880391852667336  0.9340468537184915  0.6883311620736311  1.0000
  C   C16       1.0  0.06565236114576578  0.811018975099614  0.8114168078248911  1.0000
  C   C17       1.0  0.1806126166503929  0.6805887988386272  0.6805520826006416  1.0000
  C   C18       1.0  0.31185627296672175  0.5657071501360135  0.8114401086483769  1.0000
  C   C19       1.0  0.43811607761828236  0.18423610143914698  0.9385695288346769  1.0000
  C   C20       1.0  0.43057751197323296  0.9305788030815165  0.9305868265150966  1.0000
  C   C21       1.0  0.684239342297566  0.9390030650992786  0.9385836874428722  1.0000
  C   C22       1.0  0.5612428207305767  0.8159586276416563  0.06167364570283237  1.0000
  C   C23       1.0  0.5694173750408209  0.06944394511021561  0.06941682217807713  1.0000
  C   C24       1.0  0.31551375868782827  0.06167876073516964  0.0612192302759453  1.0000
  C   C25       1.0  0.9018955624624637  0.40188438676439375  0.4018286027324933  1.0000
  C   C26       1.0  0.8482066425275716  0.34821244512059485  0.3481066220769621  1.0000
  C   C27       1.0  0.8301195776869574  0.4466260669923586  0.38832795445306806  1.0000
  C   C28       1.0  0.9199472906154894  0.3034434912452823  0.3616287161151774  1.0000
  C   C29       1.0  0.8034233951700002  0.4199214695411582  0.36161111060993534  1.0000
  C   C30       1.0  0.9466480353936929  0.330144635641453  0.3883451410841802  1.0000
  C   C31       1.0  0.09815405119567087  0.5981461632430508  0.5981539121098651  1.0000
  C   C32       1.0  0.15184358958332914  0.6518381526114752  0.6518511659907986  1.0000
  C   C33       1.0  0.14077553216370828  0.6407845403494362  0.5825238324014066  1.0000
  C   C34       1.0  0.10922662048155729  0.6092050747437695  0.6674927871096586  1.0000
  C   C35       1.0  0.16748770205345656  0.6674923744438316  0.6092260065712624  1.0000
  C   C36       1.0  0.08251273146143488  0.5824994974435072  0.6407929544568206  1.0000
  C   C37       1.0  0.30359417121007937  0.45390497452896744  0.4012149240706576  1.0000
  C   C38       1.0  0.44630768061690407  0.2960895636754016  0.3487728010976596  1.0000
  C   C39       1.0  0.259015728287622  0.41364978524065055  0.41364300794967335  1.0000
  C   C40       1.0  0.4908871770618006  0.3363436505237799  0.336372320148456  1.0000
  C   C41       1.0  0.3781187772860547  0.3387457957884905  0.37239047337796194  1.0000
  C   C42       1.0  0.37175180290547866  0.4112064176987643  0.37760068483217424  1.0000
  C   C43       1.0  0.7263739764619642  0.5761330339275333  0.6287918167937577  1.0000
  C   C44       1.0  0.5236587903383096  0.6739110562686648  0.6212038388323435  1.0000
  C   C45       1.0  0.7409688752357296  0.5863497245393249  0.5863816529727403  1.0000
  C   C46       1.0  0.5090605455891009  0.6636523239698343  0.6636107980830773  1.0000
  C   C47       1.0  0.6027074328349327  0.6420942288352905  0.6084724673312324  1.0000
  C   C48       1.0  0.6473395090809431  0.6079505704683471  0.6415425833326226  1.0000
  C   C49       1.0  0.07614293885325199  0.22635285561209875  0.6287894307479719  1.0000
  C   C50       1.0  0.17391530588638907  0.023667174770167786  0.6212073991570862  1.0000
  C   C51       1.0  0.08635324816039969  0.24095119893307523  0.5863749819473726  1.0000
  C   C52       1.0  0.16365831717199336  0.009065567483560173  0.6636173279629533  1.0000
  C   C53       1.0  0.14209235668957376  0.10271260636468327  0.6084799792029613  1.0000
  C   C54       1.0  0.10796067759732608  0.1473244990515852  0.6415359683699933  1.0000
  C   C55       1.0  0.844852100281983  0.7999373591170167  0.3975651666794846  1.0000
  C   C56       1.0  0.9051341292585773  0.9500180898124594  0.3524682595955114  1.0000
  C   C57       1.0  0.9136035125364897  0.7590159806404486  0.4136447654398694  1.0000
  C   C58       1.0  0.8363730380265934  0.9909181100694935  0.3363977062425507  1.0000
  C   C59       1.0  0.9083897076294106  0.8804607343817636  0.37471669731383633  1.0000
  C   C60       1.0  0.8417158248755996  0.8694152126891481  0.37526475971397133  1.0000
  C   C61       1.0  0.6518411589065065  0.15183830793634467  0.15185064238676924  1.0000
  C   C62       1.0  0.5981556101641344  0.09814465545790808  0.0981531382192244  1.0000
  C   C63       1.0  0.6674966515958117  0.16749190297863956  0.10922882458229573  1.0000
  C   C64       1.0  0.5825017720335878  0.08249753807552196  0.14078907783198966  1.0000
  C   C65       1.0  0.6407850552671306  0.1407822801285333  0.0825261816221996  1.0000
  C   C66       1.0  0.609215086547529  0.10920490294217437  0.1674896794777894  1.0000
  C   C67       1.0  0.6739240105691165  0.5236601846380465  0.1212073163311018  1.0000
  C   C68       1.0  0.5761322606342673  0.7263606790486602  0.12878893771982555  1.0000
  C   C69       1.0  0.663655622665608  0.5090643659817785  0.16361754845856782  1.0000
  C   C70       1.0  0.5863556766831476  0.7409545923741231  0.08637385517138095  1.0000
  C   C71       1.0  0.6079557015382449  0.6473283942588207  0.14153498495724653  1.0000
  C   C72       1.0  0.6420976363769525  0.6027075536579432  0.1084815561318067  1.0000
  C   C73       1.0  0.07996941782126038  0.1248552911603227  0.17755231047291187  1.0000
  C   C74       1.0  0.17002871669834008  0.12512738507906818  0.0724196496127689  1.0000
  C   C75       1.0  0.009069642002565097  0.16362653152786777  0.16361852370834382  1.0000
  C   C76       1.0  0.2409301336058219  0.08640979539791263  0.08635017297142872  1.0000
  C   C77       1.0  0.11136233440466729  0.13915980058008873  0.10555511268388779  1.0000
  C   C78       1.0  0.13861480815718605  0.1107773374258514  0.14441262060666563  1.0000
  C   C79       1.0  0.3482073915077847  0.8481995551318704  0.8481045006522551  1.0000
  C   C80       1.0  0.4018934621011851  0.9018706109365271  0.9018274836499387  1.0000
  C   C81       1.0  0.3034195837791883  0.9199120349860979  0.8616088076539302  1.0000
  C   C82       1.0  0.4466430861970138  0.8301346417518617  0.888342721016194  1.0000
  C   C83       1.0  0.3301226139914846  0.9466148289827954  0.8883221088268413  1.0000
  C   C84       1.0  0.4199509002785077  0.8034315013674416  0.8616219899157048  1.0000
  C   C85       1.0  0.4051391015026836  0.45003130265327945  0.8524625986901455  1.0000
  C   C86       1.0  0.3448582048638683  0.29995008726906036  0.8975618358854053  1.0000
  C   C87       1.0  0.3363791378490645  0.4909334250882294  0.8363946969032058  1.0000
  C   C88       1.0  0.413608465641964  0.25903279939574025  0.9136435172470245  1.0000
  C   C89       1.0  0.3417122498038977  0.36942939890251836  0.8752602142904636  1.0000
  C   C90       1.0  0.40838669946913336  0.38047571632749555  0.8747126049602585  1.0000
  C   C91       1.0  0.9463025689890255  0.7960950183296872  0.8487749391042245  1.0000
  C   C92       1.0  0.8035896340883751  0.953908641616856  0.9012162930842607  1.0000
  C   C93       1.0  0.9908843559987017  0.8363486869502739  0.836370656911342  1.0000
  C   C94       1.0  0.7590134788953689  0.9136530305328134  0.9136414763277474  1.0000
  C   C95       1.0  0.8717478347879887  0.9112098460101946  0.8776023182932705  1.0000
  C   C96       1.0  0.8781142394218049  0.8387484247996325  0.8723925543772852  1.0000
  S   S1        1.0  0.29950324425532665  0.3240246245160846  0.39682288411408717  1.0000
  S   S2        1.0  0.45038425815212685  0.4259420195384392  0.35321319089101894  1.0000
  S   S3        1.0  0.6590528380384482  0.6345420984909326  0.561802328273899  1.0000
  S   S4        1.0  0.590970819025017  0.6154767650085944  0.6882042285489619  1.0000
  S   S5        1.0  0.13453984094505234  0.15908064520867524  0.5618080080580301  1.0000
  S   S6        1.0  0.11548934080158799  0.09093128340762037  0.6881985250308632  1.0000
  S   S7        1.0  0.974600552587169  0.8045359002751695  0.4018291147366639  1.0000
  S   S8        1.0  0.775455327191082  0.9453341852654448  0.3481889189705853  1.0000
  S   S9        1.0  0.6154775295361644  0.5909359606429587  0.18819759343599432  1.0000
  S   S10       1.0  0.6345530970538177  0.6590748555272226  0.061808805462959505  1.0000
  S   S11       1.0  0.013195751880985497  0.1831538732539926  0.11037269166403259  1.0000
  S   S12       1.0  0.2367932298631245  0.06685693496050502  0.13959931978777726  1.0000
  S   S13       1.0  0.2754523139001179  0.445351235039496  0.8481855040646026  1.0000
  S   S14       1.0  0.4745958226298866  0.304554691372914  0.9018274967324017  1.0000
  S   S15       1.0  0.9503791473006585  0.9259459194562252  0.8532157964707281  1.0000
  S   S16       1.0  0.7994981373868623  0.8240274923036778  0.8968247006659172  1.0000
  O   O1        1.0  3.186287680279952e-05  0.4999465308647542  0.49997231050797114  1.0000
  O   O2        1.0  0.07741820113218979  0.3158177665122537  0.522661950353239  1.0000
  O   O3        1.0  0.030978221678516597  0.5310290607748983  0.5856928999960119  1.0000
  O   O4        1.0  0.15690823643721785  0.5054105208973426  0.44998548262386606  1.0000
  O   O5        1.0  0.025749976099902493  0.3742235078589146  0.5812160082931116  1.0000
  O   O6        1.0  0.15339135276860816  0.39181875611325967  0.4466038798708001  1.0000
  O   O7        1.0  0.08565750679066747  0.5856522838839738  0.5309955860591415  1.0000
  O   O8        1.0  0.004744267129936498  0.6568846253029079  0.45000102524841873  1.0000
  O   O9        1.0  0.8869823822287441  0.49631012162090815  0.44168137812624053  1.0000
  O   O10       1.0  0.8910903580562389  0.6534162710092345  0.44658666424793836  1.0000
  O   O11       1.0  0.9963042567112975  0.38701394053564536  0.44172130968562595  1.0000
  O   O12       1.0  0.8742750320141538  0.525716449790096  0.5812023186754302  1.0000
  O   O13       1.0  0.8157577926718318  0.5774640793444307  0.5226517772583036  1.0000
  O   O14       1.0  0.7499075725913754  0.25009969929591597  0.24999259317737452  1.0000
  O   O15       1.0  0.5965285880411668  0.3581876970099175  0.30342110847190185  1.0000
  O   O16       1.0  0.6643895872298627  0.16433911159716524  0.21898673550980172  1.0000
  O   O17       1.0  0.7243089290232374  0.3757626996772812  0.16881569627005183  1.0000
  O   O18       1.0  0.593026586208019  0.24460279871011897  0.30001256470642096  1.0000
  O   O19       1.0  0.6726110473166356  0.4342264055202917  0.22735679725984434  1.0000
  O   O20       1.0  0.7190597304017455  0.2189858131756494  0.16428817383400943  1.0000
  O   O21       1.0  0.8760501479920676  0.2240269659835333  0.16916007275241904  1.0000
  O   O22       1.0  0.8630427997480294  0.25365170412334226  0.3083606948255453  1.0000
  O   O23       1.0  0.934645536009867  0.17224479527789074  0.22768582528146916  1.0000
  O   O24       1.0  0.7536868240341971  0.36291247806760657  0.3083153557164593  1.0000
  O   O25       1.0  0.745248666280581  0.09309457727906784  0.30000554256169215  1.0000
  O   O26       1.0  0.8589121611346113  0.09649455551080172  0.30344175176364274  1.0000
  O   O27       1.0  0.24995946417363502  0.7500590112818697  0.7500386575231631  1.0000
  O   O28       1.0  0.3757434690748552  0.724330965863892  0.6688008140392016  1.0000
  O   O29       1.0  0.36301964639873313  0.7536628389421904  0.8083423578398978  1.0000
  O   O30       1.0  0.17261186265839967  0.9341835219117838  0.727347404568093  1.0000
  O   O31       1.0  0.4342533156501957  0.6725620729540579  0.7273577446407985  1.0000
  O   O32       1.0  0.22431255927476457  0.8757808128358061  0.6687886226874938  1.0000
  O   O33       1.0  0.25368922027995916  0.8629579136785709  0.8083058663419677  1.0000
  O   O34       1.0  0.09652021928268789  0.8581977973743091  0.803410290030442  1.0000
  O   O35       1.0  0.16438398835462917  0.6643842235091951  0.7189844414965948  1.0000
  O   O36       1.0  0.09300853890975698  0.7446159142509571  0.7999994636569597  1.0000
  O   O37       1.0  0.2190582375909357  0.7189874042125479  0.6642679335343332  1.0000
  O   O38       1.0  0.35888327838527784  0.596525659986831  0.803425177695445  1.0000
  O   O39       1.0  0.2452489257148257  0.593047800358306  0.7999936299191007  1.0000
  O   O40       1.0  0.5000758058235774  0.9999044619844071  1.0612621210330076e-05  1.0000
  O   O41       1.0  0.5047452281221538  0.15684252704467366  0.9499887703497836  1.0000
  O   O42       1.0  0.38695637879541067  0.9963193325238605  0.9416647554684519  1.0000
  O   O43       1.0  0.6533834271395447  0.8918238879712702  0.9465955567260596  1.0000
  O   O44       1.0  0.3910640145456198  0.15345088786840214  0.9465691685210516  1.0000
  O   O45       1.0  0.6568931839960753  0.005421158888537965  0.949970464360085  1.0000
  O   O46       1.0  0.4963038081724063  0.8870569403282076  0.9417120894155389  1.0000
  O   O47       1.0  0.5774167319236837  0.8157757487496226  0.022653542252385302  1.0000
  O   O48       1.0  0.5309787153442185  0.031033307746078393  0.08566612248332463  1.0000
  O   O49       1.0  0.5257393574221465  0.8742459262141081  0.0811899369235363  1.0000
  O   O50       1.0  0.5856607174805715  0.08570081016695497  0.030989837874535922  1.0000
  O   O51       1.0  0.3153517646963166  0.07780581513959105  0.0222989031549332  1.0000
  O   O52       1.0  0.37395222990379295  0.026064481675334206  0.08082120431890161  1.0000
