data_image0
_chemical_formula_structural       Zn4H26C47S10N4O18
_chemical_formula_sum              "Zn4 H26 C47 S10 N4 O18"
_cell_length_a       11.445619015140652
_cell_length_b       12.736653706268854
_cell_length_c       23.911950534290522
_cell_angle_alpha    90.1488068432003
_cell_angle_beta     89.72361088221503
_cell_angle_gamma    89.94473336583626

_space_group_name_H-M_alt    "P 1"
_space_group_IT_number       1

loop_
  _space_group_symop_operation_xyz
  'x, y, z'

loop_
  _atom_site_type_symbol
  _atom_site_label
  _atom_site_symmetry_multiplicity
  _atom_site_fract_x
  _atom_site_fract_y
  _atom_site_fract_z
  _atom_site_occupancy
  Zn  Zn1       1.0  0.6210452537431195  0.5000062674454144  0.4989442277012728  1.0000
  Zn  Zn2       1.0  0.378467757509391  0.49696145422809224  0.4987572696462551  1.0000
  Zn  Zn3       1.0  0.37757853103025246  0.5024448130728274  0.9662071322415855  1.0000
  Zn  Zn4       1.0  0.6203957455783496  0.49885508629672165  0.9637065559812257  1.0000
  H   H1        1.0  0.1665326780804079  0.6015751527409138  0.5651571531160969  1.0000
  H   H2        1.0  0.3084661903339239  0.8577509064634087  0.4987235050869216  1.0000
  H   H3        1.0  0.768873751316242  0.5725371024178119  0.7864303955594069  1.0000
  H   H4        1.0  0.7684689137197153  0.4322772619204969  0.7869534328773256  1.0000
  H   H5        1.0  0.7735702479115998  0.43101580476450607  0.6818150736868773  1.0000
  H   H6        1.0  0.7736911654733589  0.571149087286834  0.6816377514430343  1.0000
  H   H7        1.0  0.6891314349711877  0.5006497796815808  0.1561142916075866  1.0000
  H   H8        1.0  0.8319987745511952  0.6013550275783857  0.8984139296491236  1.0000
  H   H9        1.0  0.691222116571943  0.8602228891404522  0.9656014273564963  1.0000
  H   H10       1.0  0.7907119474271197  0.428481687624746  0.3851727366273678  1.0000
  H   H11       1.0  0.8972202565318312  0.33034533772531194  0.40163542411507086  1.0000
  H   H12       1.0  0.7555213779819921  0.3309059578698736  0.4343868383140475  1.0000
  H   H13       1.0  0.7375668753428143  0.20762597121484566  0.5307235248859925  1.0000
  H   H14       1.0  0.7747892742106541  0.07208721002236021  0.5213392068380287  1.0000
  H   H15       1.0  0.757257632686681  0.1554569480824242  0.4626942203224972  1.0000
  H   H16       1.0  0.25644078378234514  0.5665130352804513  0.3366835091191547  1.0000
  H   H17       1.0  0.219955174391572  0.5035875298920445  0.2721572645748083  1.0000
  H   H18       1.0  0.2558286213339329  0.4286511733526552  0.3327191078251488  1.0000
  H   H19       1.0  0.20879367158281065  0.4314206542779218  0.0797837201846718  1.0000
  H   H20       1.0  0.10136867692593649  0.3339435032099872  0.0635843840507206  1.0000
  H   H21       1.0  0.24237114817165656  0.3334343649034963  0.030207750816181503  1.0000
  H   H22       1.0  0.2605961827811072  0.2089481287668917  0.9329212848502809  1.0000
  H   H23       1.0  0.22384299387601203  0.0735351964792557  0.9425086415078426  1.0000
  H   H24       1.0  0.24129577136042  0.1577663923268204  0.0010498646226296002  1.0000
  H   H25       1.0  0.30893411373089213  0.49625721862049943  0.6343666040571634  1.0000
  H   H26       1.0  0.2999394046742411  0.4983532669945064  0.8268909214988014  1.0000
  C   C1        1.0  0.49200349483390937  0.703245880147648  0.5014229958105787  1.0000
  C   C2        1.0  0.5026961526863049  0.49826991610005694  0.6098980150779455  1.0000
  C   C3        1.0  0.5000672315719897  0.2924724669740258  0.4986180123315976  1.0000
  C   C4        1.0  0.49891336212768767  0.500413958944975  0.38896061308592783  1.0000
  C   C5        1.0  0.5084449528477037  0.7052486309261995  0.9630810697650176  1.0000
  C   C6        1.0  0.49293504800758103  0.5010251774655144  0.854129370957111  1.0000
  C   C7        1.0  0.49800810394805944  0.2946545009437216  0.9646244619770101  1.0000
  C   C8        1.0  0.5046064814013249  0.5018758383898358  0.0747310746394518  1.0000
  C   C9        1.0  0.8728655002261477  0.4481666083921141  0.4643496653730494  1.0000
  C   C10       1.0  0.12752760341292196  0.5516785722417694  0.5332586057009507  1.0000
  C   C11       1.0  0.007508917249644801  0.5361918688933116  0.5218780586025105  1.0000
  C   C12       1.0  0.9922601858094351  0.4661071049632995  0.47688802140140046  1.0000
  C   C13       1.0  0.5967054879283182  0.1089260875924793  0.5025232727456697  1.0000
  C   C14       1.0  0.3979025741026376  0.8862031180976475  0.500202863807779  1.0000
  C   C15       1.0  0.5014198230298064  0.1769390324497664  0.5000619657691133  1.0000
  C   C16       1.0  0.49274747047962814  0.8189278828313608  0.5019429764852532  1.0000
  C   C17       1.0  0.43441273202769537  0.9921679888471006  0.5003141981677075  1.0000
  C   C18       1.0  0.556784745827116  0.003662077599806001  0.5023723144621712  1.0000
  C   C19       1.0  0.49418620687523424  0.5019550425693281  0.792465341386624  1.0000
  C   C20       1.0  0.4994607822473184  0.5003058150996936  0.6715515405291298  1.0000
  C   C21       1.0  0.5989395007120705  0.5024727757916096  0.7616531433584726  1.0000
  C   C22       1.0  0.3918246452921608  0.5004226484765937  0.701388029811554  1.0000
  C   C23       1.0  0.6015863976845139  0.5016007300958307  0.7039004525262201  1.0000
  C   C24       1.0  0.389236174848591  0.5011169222174985  0.7611368417997966  1.0000
  C   C25       1.0  0.7308445533779918  0.5021272219523922  0.7669622489082428  1.0000
  C   C26       1.0  0.7339515090511528  0.5013006044456603  0.7007942283543754  1.0000
  C   C27       1.0  0.4026445534149943  0.5006490630704975  0.2917730024632732  1.0000
  C   C28       1.0  0.5998094646018259  0.5009288320001772  0.1718026961634038  1.0000
  C   C29       1.0  0.4985178699377428  0.5007292429652425  0.3273975097681046  1.0000
  C   C30       1.0  0.5045916023008914  0.5017803713222762  0.1364411568104629  1.0000
  C   C31       1.0  0.5639937792968864  0.5007942509820325  0.2284614640893282  1.0000
  C   C32       1.0  0.44162196420387545  0.5009934248543574  0.2354350376159431  1.0000
  C   C33       1.0  0.1253565868421802  0.45142060790017524  0.0009114117378957002  1.0000
  C   C34       1.0  0.8711781486687825  0.5524589486597692  0.9305793701626754  1.0000
  C   C35       1.0  0.9910197388403998  0.5381272104800487  0.9427774219547661  1.0000
  C   C36       1.0  0.005990694631797999  0.46827433180465766  0.9877328995699415  1.0000
  C   C37       1.0  0.40188800043997464  0.11083630015292562  0.9611930113513196  1.0000
  C   C38       1.0  0.6016272201598554  0.8884499445361415  0.9640311229963388  1.0000
  C   C39       1.0  0.49686932573113296  0.17905773910784012  0.9634039507718485  1.0000
  C   C40       1.0  0.5070724849688447  0.8209488509457971  0.9624520628731263  1.0000
  C   C41       1.0  0.564680695377362  0.9943543259780299  0.9635942651783579  1.0000
  C   C42       1.0  0.44222674313855487  0.005609836333633203  0.9615407519960257  1.0000
  C   C43       1.0  0.8272721100755331  0.3799400884310772  0.4187499425586694  1.0000
  C   C44       1.0  0.7233790877560579  0.13781527639132207  0.5047965349157835  1.0000
  C   C45       1.0  0.27670845475649486  0.49999747575458303  0.30899298870150466  1.0000
  C   C46       1.0  0.1712420287326211  0.3830887640784938  0.0462554179564805  1.0000
  C   C47       1.0  0.2751123830471158  0.1395504120961917  0.9589493204584302  1.0000
  S   S1        1.0  0.872799581149124  0.5746747265640549  0.546068929349623  1.0000
  S   S2        1.0  0.12562795007576  0.42486461447120405  0.452811405642656  1.0000
  S   S3        1.0  0.36665328888473436  0.11295491920039072  0.4984724997565948  1.0000
  S   S4        1.0  0.6264204198099605  0.8835801369420013  0.5038410103353854  1.0000
  S   S5        1.0  0.6326850433610645  0.5015009566015252  0.2924543421899699  1.0000
  S   S6        1.0  0.3713558169008451  0.5026358897828872  0.17179218133158264  1.0000
  S   S7        1.0  0.12574928790326106  0.5786466979340262  0.9198600113228468  1.0000
  S   S8        1.0  0.8723515516259965  0.4264389106287041  0.011080069947695401  1.0000
  S   S9        1.0  0.6319051122527738  0.11528472995546221  0.9650469722239094  1.0000
  S   S10       1.0  0.3731470453996337  0.8853563563918809  0.9603314089270399  1.0000
  N   N1        1.0  0.8024047788500184  0.5018393171769306  0.4986828216770505  1.0000
  N   N2        1.0  0.1975138500702869  0.49695189769796855  0.49960670647364236  1.0000
  N   N3        1.0  0.19600210837705836  0.5060342887191567  0.9673015344064525  1.0000
  N   N4        1.0  0.8010619087891939  0.4974218869300912  0.9637532558988868  1.0000
  O   O1        1.0  0.5919132028564889  0.6583282538986026  0.5018617089717026  1.0000
  O   O2        1.0  0.39284230507135476  0.6577267196140254  0.5003401220860013  1.0000
  O   O3        1.0  0.4029747262773641  0.4971672403935231  0.5842140081200569  1.0000
  O   O4        1.0  0.6009433950015081  0.497437973448406  0.5850728287943099  1.0000
  O   O5        1.0  0.39977263840740557  0.3367272795883877  0.4985615768408849  1.0000
  O   O6        1.0  0.5984573723729554  0.3399135022759836  0.49733435729842074  1.0000
  O   O7        1.0  0.5985181298328328  0.5036964187818  0.41283067238190807  1.0000
  O   O8        1.0  0.39987006448736645  0.496806888256046  0.41369957879092567  1.0000
  O   O9        1.0  0.40869676557930024  0.6600240623975041  0.9618545180570948  1.0000
  O   O10       1.0  0.6076388976011344  0.6599958362596112  0.9649674425055323  1.0000
  O   O11       1.0  0.5903249672460332  0.5029920824795511  0.8793841064284679  1.0000
  O   O12       1.0  0.3922699588580443  0.4977817118422223  0.8791380094701113  1.0000
  O   O13       1.0  0.598193332623275  0.3387904766962037  0.9636087170855846  1.0000
  O   O14       1.0  0.39958962448096  0.3422720993710797  0.9668454985752107  1.0000
  O   O15       1.0  0.4044216644010774  0.5064987287556733  0.05140152401324371  1.0000
  O   O16       1.0  0.6031384404614641  0.4972304202930929  0.0499300620934164  1.0000
  O   O17       1.0  0.28734749025634443  0.49903278138946655  0.6752264373254064  1.0000
  O   O18       1.0  0.2826629355026853  0.5002244512712223  0.7857554417897604  1.0000
