data_image0
_chemical_formula_structural       Cu4Mo4H8C8N4O16
_chemical_formula_sum              "Cu4 Mo4 H8 C8 N4 O16"
_cell_length_a       5.198790468264637
_cell_length_b       8.193775757130595
_cell_length_c       11.992539609322685
_cell_angle_alpha    89.99976177889847
_cell_angle_beta     89.99926695775844
_cell_angle_gamma    103.01613324400802

_space_group_name_H-M_alt    "P 1"
_space_group_IT_number       1

loop_
  _space_group_symop_operation_xyz
  'x, y, z'

loop_
  _atom_site_type_symbol
  _atom_site_label
  _atom_site_symmetry_multiplicity
  _atom_site_fract_x
  _atom_site_fract_y
  _atom_site_fract_z
  _atom_site_occupancy
  Cu  Cu1       1.0  0.5050568840505818  0.6785836146248841  0.0709884229815145  1.0000
  Cu  Cu2       1.0  0.005065600288439503  0.17857969459248577  0.42899309974374933  1.0000
  Cu  Cu3       1.0  0.4949464433728251  0.3214076491718103  0.9290107313294413  1.0000
  Cu  Cu4       1.0  0.9949228219974772  0.8214240336151944  0.5710068884422554  1.0000
  Mo  Mo1       1.0  0.9034758220637045  0.41413233644468056  0.1459676492032571  1.0000
  Mo  Mo2       1.0  0.40349200965196264  0.9141282678804643  0.3540309984508169  1.0000
  Mo  Mo3       1.0  0.09653073652609838  0.585862691322234  0.8540348405002687  1.0000
  Mo  Mo4       1.0  0.5965036802295458  0.08587423238778771  0.6459681558650772  1.0000
  H   H1        1.0  0.9292308884754519  0.9043175946801085  0.19187207625921587  1.0000
  H   H2        1.0  0.42927116229817125  0.40433883574750246  0.30812812462347944  1.0000
  H   H3        1.0  0.07078206745246972  0.09567369996391052  0.808123742618072  1.0000
  H   H4        1.0  0.5707265184346824  0.5956749318037637  0.6918743650775951  1.0000
  H   H5        1.0  0.6817293568574315  0.8652331547442176  0.8610847002042376  1.0000
  H   H6        1.0  0.1816945164759005  0.3652396912285667  0.6389070114638145  1.0000
  H   H7        1.0  0.31827956268300983  0.13476313182290772  0.1389127863805015  1.0000
  H   H8        1.0  0.8183044698031094  0.6347778341494675  0.36109464437648586  1.0000
  C   C1        1.0  0.9612694937337025  0.9472234157233288  0.1062678722641692  1.0000
  C   C2        1.0  0.4612882751844936  0.44723992290402487  0.3937270242025264  1.0000
  C   C3        1.0  0.0387329633905011  0.0527653428764481  0.8937279466458604  1.0000
  C   C4        1.0  0.5387023229606883  0.5527700683318173  0.60627463167188  1.0000
  C   C5        1.0  0.8240729012010558  0.9253452288248523  0.923130293094317  1.0000
  C   C6        1.0  0.3240446021457544  0.4253486932235974  0.576862957900083  1.0000
  C   C7        1.0  0.17593943456933658  0.07464981747557431  0.0768655257792759  1.0000
  C   C8        1.0  0.675949227165816  0.574665061982465  0.4231420333669006  1.0000
  N   N1        1.0  0.787789981099003  0.8734973649637965  0.02910048400739379  1.0000
  N   N2        1.0  0.2877922732249942  0.3735117464913317  0.4708972542426792  1.0000
  N   N3        1.0  0.21221055036324538  0.1264913874790707  0.9708936672044999  1.0000
  N   N4        1.0  0.712205407452224  0.6265020210420005  0.5291085708653469  1.0000
  O   O1        1.0  0.39910171790648263  0.8165139502422178  0.22443224662644917  1.0000
  O   O2        1.0  0.8992012957239619  0.31656330449975906  0.2755692082986129  1.0000
  O   O3        1.0  0.6008885648381008  0.18347852299178413  0.7755685754223761  1.0000
  O   O4        1.0  0.10079799536760706  0.6834329512379683  0.7244282783128427  1.0000
  O   O5        1.0  0.24089557148973736  0.47445040658749355  0.09777109957122579  1.0000
  O   O6        1.0  0.7409409644696864  0.9744334564394351  0.4021740743627901  1.0000
  O   O7        1.0  0.7591114223609309  0.5255458738137478  0.9022263870188566  1.0000
  O   O8        1.0  0.25904422658028636  0.025566507775600704  0.5978267476893322  1.0000
  O   O9        1.0  0.7146515483705258  0.26607893265391175  0.0499695369283586  1.0000
  O   O10       1.0  0.21469691027531476  0.7661227325145249  0.4500689413642504  1.0000
  O   O11       1.0  0.28535475996633153  0.7339098382238236  0.9500362881918462  1.0000
  O   O12       1.0  0.7852944930492212  0.23387850281454803  0.54993021296535  1.0000
  O   O13       1.0  0.764159938514709  0.5926723350814741  0.16318431431454877  1.0000
  O   O14       1.0  0.2642265849682204  0.09268334543934743  0.3368143653283084  1.0000
  O   O15       1.0  0.23583742687317516  0.4073239144858862  0.8368140061539928  1.0000
  O   O16       1.0  0.7357759373314608  0.9073166742820505  0.663183955120509  1.0000
