data_image0
_chemical_formula_structural       Mn2H20C28N20
_chemical_formula_sum              "Mn2 H20 C28 N20"
_cell_length_a       7.820367355683172
_cell_length_b       8.277931148528488
_cell_length_c       11.457042973182856
_cell_angle_alpha    93.39369915539855
_cell_angle_beta     102.14005805318779
_cell_angle_gamma    101.56782193137084

_space_group_name_H-M_alt    "P 1"
_space_group_IT_number       1

loop_
  _space_group_symop_operation_xyz
  'x, y, z'

loop_
  _atom_site_type_symbol
  _atom_site_label
  _atom_site_symmetry_multiplicity
  _atom_site_fract_x
  _atom_site_fract_y
  _atom_site_fract_z
  _atom_site_occupancy
  Mn  Mn1       1.0  0.8518847215047314  0.060968829040248806  0.07636126416780796  1.0000
  Mn  Mn2       1.0  0.14812222430393274  0.9390534293682081  0.9236302459904946  1.0000
  H   H1        1.0  0.6363446510941273  0.8685062383104241  0.25742785801814694  1.0000
  H   H2        1.0  0.3636618770429508  0.1314890872960036  0.7425725320223646  1.0000
  H   H3        1.0  0.45927551217327806  0.651063618116176  0.5236616358367526  1.0000
  H   H4        1.0  0.540739471906761  0.34895250980640913  0.47634403121126206  1.0000
  H   H5        1.0  0.8443929613430895  0.1386576794485634  0.6076623506844355  1.0000
  H   H6        1.0  0.1556308894291761  0.861340670829563  0.3923266411992258  1.0000
  H   H7        1.0  0.11880867575166586  0.3766620836831934  0.011215920170343504  1.0000
  H   H8        1.0  0.881195871894519  0.6233642954642704  0.9887889245202498  1.0000
  H   H9        1.0  0.08931488781083632  0.2740420490344278  0.7035518325676404  1.0000
  H   H10       1.0  0.9106759669929475  0.7259264947081834  0.2964587786382751  1.0000
  H   H11       1.0  0.2687242721851818  0.5204047048982405  0.8272700932918936  1.0000
  H   H12       1.0  0.7312536274645537  0.4795947063254288  0.17275015776789357  1.0000
  H   H13       1.0  0.6210459750120307  0.9171721991040799  0.4748026758127323  1.0000
  H   H14       1.0  0.37895769122553713  0.08284621260369822  0.5251908302381452  1.0000
  H   H15       1.0  0.3858886440438809  0.6811299465682055  0.3427298252043868  1.0000
  H   H16       1.0  0.6141150236706778  0.3188363133462176  0.6572746524935054  1.0000
  H   H17       1.0  0.46776606565288875  0.7200637320957952  0.7297870423593761  1.0000
  H   H18       1.0  0.5322434554547257  0.2799489901892188  0.27023275620432935  1.0000
  H   H19       1.0  0.3255846830178939  0.6379586512521415  0.12022036614843759  1.0000
  H   H20       1.0  0.6744080898729693  0.3620543763057356  0.8797989058314072  1.0000
  C   C1        1.0  0.730631449553414  0.9683729826741327  0.3185288654699504  1.0000
  C   C2        1.0  0.26938475322849337  0.03163543616532392  0.681461280109829  1.0000
  C   C3        1.0  0.08021777983385195  0.3103489358456599  0.28542941829243057  1.0000
  C   C4        1.0  0.9197819702700443  0.6896552548794406  0.7145712113719254  1.0000
  C   C5        1.0  0.850119015578862  0.11977924885016479  0.5139107090826939  1.0000
  C   C6        1.0  0.1498590402788553  0.8802009038946327  0.4860981259710257  1.0000
  C   C7        1.0  0.2042312676569296  0.4487101584046441  0.3567725177426622  1.0000
  C   C8        1.0  0.7958041250149394  0.5513087768091226  0.6432062043506831  1.0000
  C   C9        1.0  0.22851048408116276  0.46266415323608373  0.4846562323987626  1.0000
  C   C10       1.0  0.771498180355536  0.5373243233865993  0.51533405763373  1.0000
  C   C11       1.0  0.9686409869906141  0.19496352292486563  0.34127548935983737  1.0000
  C   C12       1.0  0.031368114828822596  0.8050352996939126  0.6587280756433811  1.0000
  C   C13       1.0  0.11760627106701801  0.35261941661148194  0.5384906404206403  1.0000
  C   C14       1.0  0.8823808911213576  0.6473621192478803  0.4614962924637495  1.0000
  C   C15       1.0  0.1440339980807863  0.401502221114697  0.10850968974668257  1.0000
  C   C16       1.0  0.855974248285065  0.5985027857421201  0.8914952508161346  1.0000
  C   C17       1.0  0.9804848802821622  0.22251566235294726  0.4666154240186555  1.0000
  C   C18       1.0  0.019471648449943913  0.7774347091935995  0.5333940819827773  1.0000
  C   C19       1.0  0.26430189716558067  0.5053499435204643  0.7318662413027253  1.0000
  C   C20       1.0  0.7356864745682826  0.4946364535166127  0.26814054378739627  1.0000
  C   C21       1.0  0.7244956880981234  0.993945417245733  0.4395167645672301  1.0000
  C   C22       1.0  0.2755054598185183  0.006050147682053399  0.5604814330468101  1.0000
  C   C23       1.0  0.2946951218725431  0.568641019391734  0.29456301350031566  1.0000
  C   C24       1.0  0.7053325074588485  0.43138291229919196  0.7054356833337464  1.0000
  C   C25       1.0  0.37052953030876523  0.6124282411475263  0.6803422716015672  1.0000
  C   C26       1.0  0.6294744065902477  0.38756279673810934  0.3196662732135706  1.0000
  C   C27       1.0  0.2626581093462121  0.5458293527779432  0.17085577447233644  1.0000
  C   C28       1.0  0.7373388342196066  0.4541785742808672  0.8291458377282478  1.0000
  N   N1        1.0  0.5057966021044538  0.8156674648540021  0.9969750067279077  1.0000
  N   N2        1.0  0.49417679711685747  0.18435318626649183  0.0030292771024207034  1.0000
  N   N3        1.0  0.9119578438211421  0.07436744539363359  0.8989304564720154  1.0000
  N   N4        1.0  0.08808349630761123  0.9256716493744221  0.1010453734612682  1.0000
  N   N5        1.0  0.7880169090482809  0.0321351311893494  0.8127439357046099  1.0000
  N   N6        1.0  0.2120046227224962  0.9678795192522573  0.18724548684626538  1.0000
  N   N7        1.0  0.6627211450382405  0.8317276936002854  0.0347122121241057  1.0000
  N   N8        1.0  0.3372529964005437  0.16832531852580956  0.9652951254671148  1.0000
  N   N9        1.0  0.05516094381076901  0.2877029456027458  0.16437043117542766  1.0000
  N   N10       1.0  0.944811555767771  0.7122741730906483  0.8356113308092501  1.0000
  N   N11       1.0  0.8498336315980165  0.06584530126088593  0.2707140508930549  1.0000
  N   N12       1.0  0.15018261042516207  0.934151820151321  0.7292583862825592  1.0000
  N   N13       1.0  0.6689499305332305  0.9909079156492525  0.7285606757790217  1.0000
  N   N14       1.0  0.3310413611144297  0.009075318468042298  0.27145483925006175  1.0000
  N   N15       1.0  0.3530797984629857  0.5958471924438484  0.5554157285406872  1.0000
  N   N16       1.0  0.6469410537733467  0.40413779695099084  0.44458580841666157  1.0000
  N   N17       1.0  0.13311539084866553  0.3739745031306115  0.662101055548767  1.0000
  N   N18       1.0  0.8668674914188869  0.625998680969758  0.3378987757101654  1.0000
  N   N19       1.0  0.3484984209726463  0.7932167893352328  0.9602852674455844  1.0000
  N   N20       1.0  0.6514683211724587  0.2067527683506114  0.03971635768147758  1.0000
