data_image0
_chemical_formula_structural       Ni4H60C68O32
_chemical_formula_sum              "Ni4 H60 C68 O32"
_cell_length_a       10.763358411333874
_cell_length_b       16.628077892105896
_cell_length_c       15.588865757011934
_cell_angle_alpha    68.89180420914549
_cell_angle_beta     87.36969933305774
_cell_angle_gamma    87.4009012040255

_space_group_name_H-M_alt    "P 1"
_space_group_IT_number       1

loop_
  _space_group_symop_operation_xyz
  'x, y, z'

loop_
  _atom_site_type_symbol
  _atom_site_label
  _atom_site_symmetry_multiplicity
  _atom_site_fract_x
  _atom_site_fract_y
  _atom_site_fract_z
  _atom_site_occupancy
  Ni  Ni1       1.0  0.6406754599014164  0.0052744748230608976  0.5087431972108618  1.0000
  Ni  Ni2       1.0  0.35936743092872797  0.9947414623888162  0.4912579980264697  1.0000
  Ni  Ni3       1.0  0.5190279386643224  0.8190278807213784  0.4953311405125335  1.0000
  Ni  Ni4       1.0  0.4809900905960872  0.18098377763959655  0.5046670274385576  1.0000
  H   H1        1.0  0.7202354286581352  0.9225493684604372  0.6639586157904206  1.0000
  H   H2        1.0  0.27979764945956725  0.0774465877398143  0.3360573166568984  1.0000
  H   H3        1.0  0.6551389775460379  0.8579156964679909  0.6279304061572334  1.0000
  H   H4        1.0  0.3448826740701064  0.14209719996198794  0.37206979129651796  1.0000
  H   H5        1.0  0.21028483792016317  0.6881569764994636  0.45604553738087367  1.0000
  H   H6        1.0  0.7897390299740508  0.31185474189694407  0.5439415826598266  1.0000
  H   H7        1.0  0.5114130580602918  0.6584092473769729  0.598320020674791  1.0000
  H   H8        1.0  0.48863609476629943  0.34159126053844335  0.40167720047986694  1.0000
  H   H9        1.0  0.41961202742875514  0.6865499037602232  0.5178586671408923  1.0000
  H   H10       1.0  0.5804130043517686  0.31343971988827235  0.4821540247774224  1.0000
  H   H11       1.0  0.45322270347281796  0.6754021556352682  0.7722914070928297  1.0000
  H   H12       1.0  0.5467433184391837  0.3245789857456813  0.2277147484897668  1.0000
  H   H13       1.0  0.0758848347163905  0.2979669083241347  0.665699979899337  1.0000
  H   H14       1.0  0.9241355545315528  0.702039714627098  0.33428526873081676  1.0000
  H   H15       1.0  0.11016661312861226  0.6031242386642217  0.641538559529977  1.0000
  H   H16       1.0  0.8898519349024028  0.3968869722364729  0.35843859266946515  1.0000
  H   H17       1.0  0.31237001471800596  0.9187209330081739  0.7783676440544769  1.0000
  H   H18       1.0  0.6876586398022225  0.08127775713345638  0.22163452240963016  1.0000
  H   H19       1.0  0.3887917006744744  0.7086444950202517  0.03242645672995079  1.0000
  H   H20       1.0  0.6111659421668421  0.2913406200877802  0.9675738895915915  1.0000
  H   H21       1.0  0.7766761432737254  0.3768156758252701  0.01190628859246351  1.0000
  H   H22       1.0  0.223285598750266  0.6231643421209085  0.9880862590990349  1.0000
  H   H23       1.0  0.6491586973894384  0.6830797571731322  0.8458039100839729  1.0000
  H   H24       1.0  0.35079893367527143  0.31689687265504307  0.1542105205502793  1.0000
  H   H25       1.0  0.9299277652223665  0.7479122333002123  0.7095076635247752  1.0000
  H   H26       1.0  0.0700455462907073  0.2520879888696824  0.2905130149551526  1.0000
  H   H27       1.0  0.8171090634570178  0.7623453226055615  0.7918863543108831  1.0000
  H   H28       1.0  0.18285074915488053  0.23764474532462285  0.20813198330768048  1.0000
  H   H29       1.0  0.7722170474216409  0.7178970086979318  0.7086487866633392  1.0000
  H   H30       1.0  0.22775652172728658  0.28210592465303097  0.2913567563501759  1.0000
  H   H31       1.0  0.25395084065350193  0.983266065648692  0.9598242615813252  1.0000
  H   H32       1.0  0.7460786081106647  0.016740392127367398  0.04017113100101  1.0000
  H   H33       1.0  0.26102503846333747  0.6090592050280178  0.7322804372260949  1.0000
  H   H34       1.0  0.7389688930482379  0.39095332067630995  0.2677134028344669  1.0000
  H   H35       1.0  0.2514014794259865  0.5632834987247434  0.8557586467678108  1.0000
  H   H36       1.0  0.748579599580033  0.4367233201993271  0.14423759020445465  1.0000
  H   H37       1.0  0.11139286901715197  0.5960181228234661  0.7922014598649768  1.0000
  H   H38       1.0  0.888588429563917  0.4039874781127962  0.20778752948412926  1.0000
  H   H39       1.0  0.09560109777716969  0.38965462356115677  0.9398688334116658  1.0000
  H   H40       1.0  0.9043652229054044  0.6103464845247757  0.060131765386621835  1.0000
  H   H41       1.0  0.9464914297533935  0.34519772594219217  0.9412936142779744  1.0000
  H   H42       1.0  0.053486310304954494  0.6547955720841258  0.058708394137170224  1.0000
  H   H43       1.0  0.9851286322035548  0.38030765374833914  0.03338791513983351  1.0000
  H   H44       1.0  0.014839983865606086  0.6196838269205358  0.9666098256825466  1.0000
  H   H45       1.0  0.21053851669794446  0.21325384779040485  0.7727874998332496  1.0000
  H   H46       1.0  0.7894541588902725  0.7867572514930926  0.22722229809586045  1.0000
  H   H47       1.0  0.05755904784712838  0.22297746586563957  0.8200404726717853  1.0000
  H   H48       1.0  0.9424356623768871  0.7770349930662662  0.17995979260979303  1.0000
  H   H49       1.0  0.18978203380635247  0.19683569965624773  0.8927350271489163  1.0000
  H   H50       1.0  0.8102001414570951  0.8031877648354069  0.10726650430967766  1.0000
  H   H51       1.0  0.8166182961878405  0.6883575064691313  0.5177576072278356  1.0000
  H   H52       1.0  0.18340134839758093  0.3116485443469942  0.4822208130993674  1.0000
  H   H53       1.0  0.020599371226929005  0.9191416131236493  0.4641074696007196  1.0000
  H   H54       1.0  0.9794168274412485  0.08085963319425099  0.5359061824775397  1.0000
  H   H55       1.0  0.5324205280154715  0.9727939322998649  0.38911654987304456  1.0000
  H   H56       1.0  0.4676112875650488  0.027220165548506287  0.610884275123624  1.0000
  H   H57       1.0  0.6241704472921654  0.7559489591751926  0.37934815782440995  1.0000
  H   H58       1.0  0.375857609476931  0.24406123728491738  0.6206606199685896  1.0000
  H   H59       1.0  0.5070580879104439  0.8123095641959067  0.33893122570680845  1.0000
  H   H60       1.0  0.4929776225531981  0.18770326993585937  0.6610642191514203  1.0000
  C   C1        1.0  0.12474585912896428  0.7217736613760974  0.46612015059083234  1.0000
  C   C2        1.0  0.8752715087162953  0.27823615301739574  0.5338697387475052  1.0000
  C   C3        1.0  0.05296528146126888  0.5198345227547277  0.5718170005149688  1.0000
  C   C4        1.0  0.9470504795056768  0.4801708391590152  0.42816945558044495  1.0000
  C   C5        1.0  0.007961071298424785  0.5867378578671351  0.4935064154059248  1.0000
  C   C6        1.0  0.9920610649104021  0.4132726205354088  0.5064773543637247  1.0000
  C   C7        1.0  0.04439642069372952  0.4316518916938603  0.5783829437367204  1.0000
  C   C8        1.0  0.9556221726518501  0.5683567276803102  0.42159646101055165  1.0000
  C   C9        1.0  0.3912456026565679  0.8368535527168458  0.6623442251136142  1.0000
  C   C10       1.0  0.608791294734651  0.16314371932786992  0.3376653629392835  1.0000
  C   C11       1.0  0.3837006411591943  0.8004877211054549  0.7654480244429039  1.0000
  C   C12       1.0  0.6163125670822892  0.19950275139212434  0.23455239873625547  1.0000
  C   C13       1.0  0.5857504505625002  0.5591722914447246  0.9398711296459227  1.0000
  C   C14       1.0  0.4142123122782947  0.4408025365032344  0.06012590690297508  1.0000
  C   C15       1.0  0.4230056671418225  0.7151165896821322  0.8121333017131394  1.0000
  C   C16       1.0  0.5769730293883625  0.2848721452880624  0.18787488693320142  1.0000
  C   C17       1.0  0.4643233830848459  0.5883292074907801  0.9554405821646128  1.0000
  C   C18       1.0  0.5356290228846632  0.41164890933976744  0.04455671597711588  1.0000
  C   C19       1.0  0.012961050115784205  0.6779464120024554  0.4864329040230262  1.0000
  C   C20       1.0  0.9870545066795982  0.32206539283124863  0.5135517855783649  1.0000
  C   C21       1.0  0.08667506469601699  0.36453847991267446  0.6595682926532832  1.0000
  C   C22       1.0  0.9133416759120081  0.6354714610805203  0.34040873000475363  1.0000
  C   C23       1.0  0.1056785470068959  0.5365976213813752  0.6458492831789686  1.0000
  C   C24       1.0  0.8943334289924392  0.463411004729778  0.3541347442576851  1.0000
  C   C25       1.0  0.6219466533910349  0.4698069328960628  0.9858082568370323  1.0000
  C   C26       1.0  0.3780032947490141  0.5301608984910968  0.014191658751549582  1.0000
  C   C27       1.0  0.4248539105357451  0.6799321939824663  0.9083495858594902  1.0000
  C   C28       1.0  0.5751040872713986  0.3200605152609127  0.09166266681220492  1.0000
  C   C29       1.0  0.3437182730827928  0.8525086498172809  0.8151191523850374  1.0000
  C   C30       1.0  0.6562911233949434  0.14747920508983728  0.18488938560838625  1.0000
  C   C31       1.0  0.14904308891993168  0.4709403319253768  0.7221238413514187  1.0000
  C   C32       1.0  0.8509602807959026  0.5290721781719583  0.27786403901311024  1.0000
  C   C33       1.0  0.3870825758819337  0.7331514191370374  0.9575170274842649  1.0000
  C   C34       1.0  0.6128833397414368  0.2668244614154034  0.04250200709108036  1.0000
  C   C35       1.0  0.1373719929951989  0.382557615587693  0.7297270462863851  1.0000
  C   C36       1.0  0.8626323448410885  0.6174562072586623  0.27025711498223615  1.0000
  C   C37       1.0  0.747624868625323  0.4431938044577847  0.974247775786978  1.0000
  C   C38       1.0  0.2523200428906094  0.5567856517318007  0.02574981427883213  1.0000
  C   C39       1.0  0.6759148729297096  0.6157052091240302  0.8810368693682452  1.0000
  C   C40       1.0  0.32405112645299977  0.384279837494894  0.11896397495481642  1.0000
  C   C41       1.0  0.3072188155119094  0.8714671178498318  0.9677094564886631  1.0000
  C   C42       1.0  0.692781517566729  0.12851894363074473  0.03229223732828502  1.0000
  C   C43       1.0  0.7950224935784647  0.5872545016901823  0.8687473441869856  1.0000
  C   C44       1.0  0.2049358751509587  0.4127344399179477  0.13125540438789332  1.0000
  C   C45       1.0  0.8331195806103081  0.49920841668638616  0.9186855782160281  1.0000
  C   C46       1.0  0.16683238271017586  0.5007780059422018  0.08131695999084339  1.0000
  C   C47       1.0  0.8476396810304436  0.7210998226516451  0.7526139061457898  1.0000
  C   C48       1.0  0.1523321332638545  0.2788927285698789  0.24740390026524764  1.0000
  C   C49       1.0  0.20626400281627605  0.5682956492241473  0.7925611160207426  1.0000
  C   C50       1.0  0.7937228956651479  0.4317066556762086  0.20743220194837872  1.0000
  C   C51       1.0  0.997111425522945  0.3928427167632194  0.9592014955945776  1.0000
  C   C52       1.0  0.0028628923403673035  0.6071383321977065  0.04080773457324939  1.0000
  C   C53       1.0  0.34622490690096436  0.8187456875032239  0.9113833973939478  1.0000
  C   C54       1.0  0.653760773502917  0.18122687659418088  0.08863070418437502  1.0000
  C   C55       1.0  0.15712800932042364  0.23402955111245657  0.8236768674389696  1.0000
  C   C56       1.0  0.8428594824763066  0.7659758755704543  0.1763255353067664  1.0000
  C   C57       1.0  0.9041420110278153  0.7219209029283958  0.4996815962083617  1.0000
  C   C58       1.0  0.09586740512026641  0.2780819639367138  0.5003020729353269  1.0000
  C   C59       1.0  0.9062151924176971  0.8087768097634863  0.4904159562516314  1.0000
  C   C60       1.0  0.09379031357175187  0.19122470536079564  0.5095779221620519  1.0000
  C   C61       1.0  0.018336081626429687  0.8520772295629798  0.46961322493643126  1.0000
  C   C62       1.0  0.9816794519997033  0.14792543313514978  0.5303870783335327  1.0000
  C   C63       1.0  0.1283537171296771  0.8081872648422672  0.4587694659040622  1.0000
  C   C64       1.0  0.871669186270971  0.19181988045741596  0.5412264434280801  1.0000
  C   C65       1.0  0.7891257707842456  0.8540648261799288  0.5058692227500006  1.0000
  C   C66       1.0  0.21089144545781116  0.1459423189115867  0.494131293033256  1.0000
  C   C67       1.0  0.24960816530438018  0.8525657696381259  0.4456146536595398  1.0000
  C   C68       1.0  0.7504171955417646  0.147443832680814  0.5543911931826104  1.0000
  O   O1        1.0  0.3423561465356568  0.9110930280272456  0.6227411265311676  1.0000
  O   O2        1.0  0.6577158975698437  0.08890977214858249  0.3772669631834589  1.0000
  O   O3        1.0  0.6399102018163276  0.9082198207104144  0.6477546380865817  1.0000
  O   O4        1.0  0.3601197684084029  0.09179168753627917  0.3522497602263216  1.0000
  O   O5        1.0  0.508438526328348  0.6763795664220922  0.5315709014654217  1.0000
  O   O6        1.0  0.4915910547526465  0.3236223771220921  0.4684261785648687  1.0000
  O   O7        1.0  0.8852287624146697  0.6367339002538798  0.8124484921747452  1.0000
  O   O8        1.0  0.11472479626350207  0.3632537085240271  0.18756319361653348  1.0000
  O   O9        1.0  0.2027555682034787  0.48180852239423183  0.7942290059942894  1.0000
  O   O10       1.0  0.7972395016781773  0.518202121521412  0.2057590995607016  1.0000
  O   O11       1.0  0.9546145884064429  0.47883539492937627  0.9066443360664638  1.0000
  O   O12       1.0  0.04535384990332861  0.521160582023192  0.09335364974573691  1.0000
  O   O13       1.0  0.34930882019529  0.806514016946167  0.4457911016019765  1.0000
  O   O14       1.0  0.6507175275457157  0.1934936437568098  0.554215452193887  1.0000
  O   O15       1.0  0.17735489946083047  0.3221111512686505  0.8100379114250417  1.0000
  O   O16       1.0  0.8226350653128804  0.677904566840368  0.18996122972791346  1.0000
  O   O17       1.0  0.2773088079559045  0.9553397017502545  0.9155884905337431  1.0000
  O   O18       1.0  0.7226912228122585  0.04465928744932769  0.08440516127367201  1.0000
  O   O19       1.0  0.30133807558062387  0.845215269779487  0.051925804465064146  1.0000
  O   O20       1.0  0.6986618716841874  0.15477977230303708  0.9480776676233875  1.0000
  O   O21       1.0  0.44997019803219007  0.7895236808629349  0.6238497334283013  1.0000
  O   O22       1.0  0.5500465985151023  0.21046866861119892  0.37615312233544534  1.0000
  O   O23       1.0  0.5189518287285537  0.9449282378737177  0.4554283563543536  1.0000
  O   O24       1.0  0.4810835449907174  0.05509033446046629  0.5445720045331371  1.0000
  O   O25       1.0  0.2451837244367213  0.9310955227395394  0.43797146274481247  1.0000
  O   O26       1.0  0.7548509836005621  0.06891141860133128  0.5620364742624916  1.0000
  O   O27       1.0  0.7894762888013105  0.9352166409966215  0.48261925516646914  1.0000
  O   O28       1.0  0.21055273207738162  0.0647903001360817  0.5173932882919419  1.0000
  O   O29       1.0  0.6966527493901182  0.8055768595940833  0.5460004219540693  1.0000
  O   O30       1.0  0.30335420837554483  0.1944323085303878  0.4539982609662871  1.0000
  O   O31       1.0  0.5892841644637414  0.8146733171950088  0.36207572725899695  1.0000
  O   O32       1.0  0.4107456770710626  0.1853394449358632  0.6379320538014783  1.0000
