data_image0
_chemical_formula_structural       Zn2H16C48I8N4O14
_chemical_formula_sum              "Zn2 H16 C48 I8 N4 O14"
_cell_length_a       9.929731074937017
_cell_length_b       9.581069354790253
_cell_length_c       28.06394587399515
_cell_angle_alpha    109.46443092469293
_cell_angle_beta     95.92951659848599
_cell_angle_gamma    95.05729628572092

_space_group_name_H-M_alt    "P 1"
_space_group_IT_number       1

loop_
  _space_group_symop_operation_xyz
  'x, y, z'

loop_
  _atom_site_type_symbol
  _atom_site_label
  _atom_site_symmetry_multiplicity
  _atom_site_fract_x
  _atom_site_fract_y
  _atom_site_fract_z
  _atom_site_occupancy
  Zn  Zn1       1.0  0.5383163207640607  0.35452802437345804  0.48717287326417136  1.0000
  Zn  Zn2       1.0  0.48430947615180037  0.6585104823910941  0.5263127917548474  1.0000
  H   H1        1.0  0.6065528492623641  0.31247008226377204  0.3339206190912023  1.0000
  H   H2        1.0  0.3907581823846087  0.7010855648481426  0.2852538762220647  1.0000
  H   H3        1.0  0.8294981274711546  0.6117891765627093  0.9948211800543874  1.0000
  H   H4        1.0  0.146254438064652  0.4112046021997742  0.016458961013611908  1.0000
  H   H5        1.0  0.832067947329918  0.6163333551552344  0.06407099913990781  1.0000
  H   H6        1.0  0.14425597208799704  0.4035686301333428  0.9469850321859496  1.0000
  H   H7        1.0  0.6869263427085388  0.1441201086373454  0.4152492787909665  1.0000
  H   H8        1.0  0.3445828078891608  0.9142947919597261  0.593100115938384  1.0000
  H   H9        1.0  0.37578297831137764  0.6784153783689603  0.669341014373259  1.0000
  H   H10       1.0  0.43970298366067334  0.13936604767143024  0.5241311859427141  1.0000
  H   H11       1.0  0.5820866609774172  0.8542675685084548  0.4777055087514697  1.0000
  H   H12       1.0  0.6017901809526478  0.3136963425627926  0.244672615583319  1.0000
  H   H13       1.0  0.3628638037517433  0.682307271361296  0.7582387591976882  1.0000
  H   H14       1.0  0.8283459639022511  0.6168484368798846  0.15180815869423014  1.0000
  H   H15       1.0  0.1485728388720347  0.39954851356221605  0.8588871797241637  1.0000
  H   H16       1.0  0.5982224053851652  0.3138169518888958  0.7301916358240135  1.0000
  C   C1        1.0  0.7638251393755126  0.6022023782994879  0.518297486997028  1.0000
  C   C2        1.0  0.6116418676057833  0.5479158190663256  0.885890788338429  1.0000
  C   C3        1.0  0.5079642493669994  0.50728248977169  0.36041766683207027  1.0000
  C   C4        1.0  0.49010860041296667  0.49322190411336214  0.6491415282585322  1.0000
  C   C5        1.0  0.612754046342701  0.548607643629019  0.988201453337055  1.0000
  C   C6        1.0  0.36315950768267413  0.47388854342183606  0.023097391083382504  1.0000
  C   C7        1.0  0.3617884236542821  0.47191991966207786  0.9706090062834319  1.0000
  C   C8        1.0  0.6142033555545225  0.5499687763319797  0.04062768938895538  1.0000
  C   C9        1.0  0.4870407765577269  0.5100535954641855  0.9542794651803845  1.0000
  C   C10       1.0  0.48890168901805015  0.5121822872224513  0.05699987841564539  1.0000
  C   C11       1.0  0.7319960835137282  0.5834931901313355  0.9700983843231297  1.0000
  C   C12       1.0  0.26010542610711695  0.4256918392679907  0.4656459479195547  1.0000
  C   C13       1.0  0.2437555339817763  0.4393140042819184  0.04118481503499539  1.0000
  C   C14       1.0  0.7328079758167051  0.5836911828154996  0.9201211944311608  1.0000
  C   C15       1.0  0.24285922007364746  0.43890803773654613  0.0911243613901433  1.0000
  C   C16       1.0  0.5226892866774052  0.4973525065853793  0.4129483256390713  1.0000
  C   C17       1.0  0.4912386976932411  0.5010935833379548  0.5966634452666141  1.0000
  C   C18       1.0  0.7347323263485566  0.5871866621963308  0.07526995164543851  1.0000
  C   C19       1.0  0.24149403929490634  0.4331861831991404  0.9358215067645189  1.0000
  C   C20       1.0  0.8914606895443457  0.6067514032133304  0.4940706511537272  1.0000
  C   C21       1.0  0.1480715498498526  0.4027824693417799  0.421826485127788  1.0000
  C   C22       1.0  0.9589559866097231  0.48829138412928336  0.4729952838381735  1.0000
  C   C23       1.0  0.4880458154350151  0.5121077221054193  0.1080142408695295  1.0000
  C   C24       1.0  0.0264147840610818  0.4557798949823848  0.4273210855558531  1.0000
  C   C25       1.0  0.5089953501031772  0.9196719453335193  0.49856982121328025  1.0000
  C   C26       1.0  0.5011019655966962  0.07042861330346988  0.4978995796279689  1.0000
  C   C27       1.0  0.620682916470372  0.5511542580606134  0.1943882106549637  1.0000
  C   C28       1.0  0.3565378438462972  0.4627226563984621  0.8159076427392549  1.0000
  C   C29       1.0  0.3677918386858964  0.47184487474969233  0.1779600184788563  1.0000
  C   C30       1.0  0.6079754377427379  0.5497292273428516  0.8331354977370112  1.0000
  C   C31       1.0  0.44044639513059985  0.6173938213785846  0.2962600287747179  1.0000
  C   C32       1.0  0.5475488991608587  0.39218009076910215  0.7164354860294182  1.0000
  C   C33       1.0  0.4429983361259744  0.6146840978082153  0.34586721264418674  1.0000
  C   C34       1.0  0.48793034535137997  0.5094786199401113  0.9031884756459049  1.0000
  C   C35       1.0  0.5518613742502793  0.38914635987795515  0.6665158234465948  1.0000
  C   C36       1.0  0.5622678225333573  0.3987431816033934  0.3227368427945194  1.0000
  C   C37       1.0  0.4229423751670893  0.5980158022522062  0.6831124647321616  1.0000
  C   C38       1.0  0.5585657935496827  0.3988110366407015  0.2731778291235898  1.0000
  C   C39       1.0  0.4165864978233672  0.601024060176826  0.732661307570396  1.0000
  C   C40       1.0  0.4989888166751158  0.5103955383592053  0.2604647590243587  1.0000
  C   C41       1.0  0.480551275411159  0.49819088464145267  0.7491437344558064  1.0000
  C   C42       1.0  0.641882405583992  0.0643744973700251  0.4318249824438425  1.0000
  C   C43       1.0  0.3457104708188156  0.9375100037669669  0.5569827629771992  1.0000
  C   C44       1.0  0.6133740893381301  0.5500549396161035  0.1414760240616246  1.0000
  C   C45       1.0  0.3630331694283626  0.46896103455098637  0.8694350623396332  1.0000
  C   C46       1.0  0.7341466426653228  0.5874712189072612  0.1249220887537916  1.0000
  C   C47       1.0  0.2424024614182798  0.43112790210355456  0.8859794575676075  1.0000
  C   C48       1.0  0.36409721370026205  0.4742734189760896  0.1253161559613218  1.0000
  I   I1        1.0  0.1998611208569159  0.2821588450209305  0.3504637874286374  1.0000
  I   I2        1.0  0.9462770762214988  0.8055075404581373  0.4802381144068518  1.0000
  I   I3        1.0  0.6666356653389514  0.22885516400519632  0.6234417112153494  1.0000
  I   I4        1.0  0.3262598740017637  0.7674264740735168  0.3912674744596245  1.0000
  I   I5        1.0  0.9287354782281342  0.6368171639856612  0.9034557658010272  1.0000
  I   I6        1.0  0.0471503981470178  0.38448918029905604  0.10771129279580548  1.0000
  I   I7        1.0  0.8964123735974354  0.4567097149986239  0.3624288150626995  1.0000
  I   I8        1.0  0.953757099607927  0.30432670978841975  0.5005755085819173  1.0000
  N   N1        1.0  0.49557612593941514  0.5137002492140397  0.20936184034232497  1.0000
  N   N2        1.0  0.4812667799601513  0.501989477527232  0.8010412628829188  1.0000
  N   N3        1.0  0.4463066331717798  0.8670240540885037  0.5290203105298659  1.0000
  N   N4        1.0  0.5657758634001412  0.1364135342122452  0.4713362478775096  1.0000
  O   O1        1.0  0.7211049228207785  0.47842427011870836  0.5229880598928814  1.0000
  O   O2        1.0  0.2501456014062668  0.4255749678765782  0.7856585243370731  1.0000
  O   O3        1.0  0.7085570994671713  0.5906254059479465  0.8166733363807593  1.0000
  O   O4        1.0  0.2666692163671343  0.4343842339720538  0.1949216928583866  1.0000
  O   O5        1.0  0.6521897377081274  0.9312919149624791  0.4163155084623398  1.0000
  O   O6        1.0  0.2650728492470336  0.009214754285274266  0.542754871992379  1.0000
  O   O7        1.0  0.2770006379047558  0.5511695664204694  0.5015789778665294  1.0000
  O   O8        1.0  0.6989956355813478  0.714496451682976  0.5280845486641965  1.0000
  O   O9        1.0  0.33460476540480494  0.3217683132441991  0.46031661127398127  1.0000
  O   O10       1.0  0.5740021312898307  0.386650503297254  0.4193630318940436  1.0000
  O   O11       1.0  0.4919950643796014  0.6312956636344964  0.5934944727073556  1.0000
  O   O12       1.0  0.48244641233311814  0.601275880915452  0.4479027728199796  1.0000
  O   O13       1.0  0.48987475220003773  0.38053333364959496  0.5599938921864549  1.0000
  O   O14       1.0  0.7278973315756476  0.5819079169569579  0.22405174344977746  1.0000
