data_image0
_chemical_formula_structural       Cd2H16C24N18
_chemical_formula_sum              "Cd2 H16 C24 N18"
_cell_length_a       7.9811544747111975
_cell_length_b       8.82664356943049
_cell_length_c       10.10752711483603
_cell_angle_alpha    75.76829301507337
_cell_angle_beta     73.88779114555962
_cell_angle_gamma    82.76743113913498

_space_group_name_H-M_alt    "P 1"
_space_group_IT_number       1

loop_
  _space_group_symop_operation_xyz
  'x, y, z'

loop_
  _atom_site_type_symbol
  _atom_site_label
  _atom_site_symmetry_multiplicity
  _atom_site_fract_x
  _atom_site_fract_y
  _atom_site_fract_z
  _atom_site_occupancy
  Cd  Cd1       1.0  0.20711390187094733  0.8738109416983447  0.4587360689270384  1.0000
  Cd  Cd2       1.0  0.7928833139727798  0.12618477341364806  0.5412615888061226  1.0000
  H   H1        1.0  0.7050851544325311  0.9604453733248306  0.870040030413556  1.0000
  H   H2        1.0  0.29491077809657174  0.039549262116423685  0.12996507051857986  1.0000
  H   H3        1.0  0.8599840967462452  0.22225622872664993  0.12046611243344083  1.0000
  H   H4        1.0  0.14002221875678336  0.7777394717073562  0.8795345335312775  1.0000
  H   H5        1.0  0.9833977147053898  0.4125709528637813  0.8983860046940253  1.0000
  H   H6        1.0  0.016603388308439503  0.587424777427408  0.10161476915677534  1.0000
  H   H7        1.0  0.49742938873962567  0.7797439351544141  0.6521574275969045  1.0000
  H   H8        1.0  0.5025700344814367  0.22025876182547674  0.34783621985005925  1.0000
  H   H9        1.0  0.25042245836534954  0.26819383312665923  0.7662689638325304  1.0000
  H   H10       1.0  0.7495807973875444  0.7318089715175731  0.23373570627285287  1.0000
  H   H11       1.0  0.6127912256246687  0.5612293846050135  0.8168975572903823  1.0000
  H   H12       1.0  0.3872104264888634  0.4387792042175958  0.18309924401842895  1.0000
  H   H13       1.0  0.7104031989041102  0.9923562717905485  0.10708073930540968  1.0000
  H   H14       1.0  0.2895952114670307  0.007640673280519602  0.8929223233575673  1.0000
  H   H15       1.0  0.48606121267095387  0.29624795876824084  0.8753025682451397  1.0000
  H   H16       1.0  0.5139418556004358  0.7037583240431146  0.12469839913287466  1.0000
  C   C1        1.0  0.7689777248247934  0.057231125171263386  0.8806378603139325  1.0000
  C   C2        1.0  0.23101788157556058  0.942769330336489  0.11936304604110146  1.0000
  C   C3        1.0  0.9734184058620198  0.3952720929557642  0.6284384650794126  1.0000
  C   C4        1.0  0.026581253674819977  0.6047259895892483  0.3715620959725855  1.0000
  C   C5        1.0  0.8534908784888271  0.20336646292892618  0.019635749566283854  1.0000
  C   C6        1.0  0.14650885037163158  0.7966304486664058  0.980365057410573  1.0000
  C   C7        1.0  0.925923778680598  0.30883292178832283  0.8950033370575031  1.0000
  C   C8        1.0  0.07407869848660197  0.6911616271987313  0.10499740366723392  1.0000
  C   C9        1.0  0.24447816232090958  0.5103684043256678  0.656820344686416  1.0000
  C   C10       1.0  0.7555212755855008  0.48963321418968037  0.3431814552261941  1.0000
  C   C11       1.0  0.10923451541953706  0.5003116704124153  0.5838046801098287  1.0000
  C   C12       1.0  0.8907678026110658  0.49968525515593126  0.41619853371798143  1.0000
  C   C13       1.0  0.44335642669349784  0.6652434526519286  0.6814891480094333  1.0000
  C   C14       1.0  0.556644197884772  0.33476046272640037  0.3185089160497441  1.0000
  C   C15       1.0  0.3055814226890731  0.3805887221201018  0.7457593512062531  1.0000
  C   C16       1.0  0.6944164887571559  0.6194164427200376  0.25424396661789234  1.0000
  C   C17       1.0  0.9170635210187111  0.2822690305284894  0.7662117912889601  1.0000
  C   C18       1.0  0.08293758882489749  0.717726688202063  0.2337879942442386  1.0000
  C   C19       1.0  0.508452694072538  0.5418655436149393  0.7735560137222354  1.0000
  C   C20       1.0  0.4915477088753021  0.45814190773373287  0.22644328919755452  1.0000
  C   C21       1.0  0.7732079907613424  0.0752992800817793  0.012733737556260403  1.0000
  C   C22       1.0  0.22678920459302523  0.9246964697121386  0.9872668851296995  1.0000
  C   C23       1.0  0.43804109269192537  0.3967129631880012  0.8056706395640064  1.0000
  C   C24       1.0  0.5619593102559148  0.6032944881606639  0.1943286633557832  1.0000
  N   N1        1.0  0.31442638852883675  0.6511337898745494  0.6246155315731841  1.0000
  N   N2        1.0  0.6855730630371396  0.3488678055195109  0.3753842917042292  1.0000
  N   N3        1.0  0.1271370957351649  0.6008648933800134  0.4586092381840531  1.0000
  N   N4        1.0  0.8728639311252592  0.39913201942150767  0.5413922780594832  1.0000
  N   N5        1.0  0.8387913130518142  0.1578329417159878  0.7606912011995064  1.0000
  N   N6        1.0  0.16120820100800157  0.8421674942890363  0.23930985632036794  1.0000
  N   N7        1.0  0.4741064155432183  0.9441451272578826  0.31629636377188336  1.0000
  N   N8        1.0  0.525891668699181  0.0558576378796829  0.6837025043139847  1.0000
  N   N9        1.0  0.6008644396927351  0.9483196032911537  0.3559812313549103  1.0000
  N   N10       1.0  0.39912201821403664  0.05168200316233399  0.6440134758909084  1.0000
  N   N11       1.0  0.85772310710486  0.6800163306583331  0.8337631155023433  1.0000
  N   N12       1.0  0.14227797541960993  0.3199794343147814  0.16624062330125616  1.0000
  N   N13       1.0  0.9321578306930148  0.8643517785013725  0.6151728404559763  1.0000
  N   N14       1.0  0.06783935100178697  0.13564399441382588  0.3848297588651803  1.0000
  N   N15       1.0  0.8953295897108899  0.7711541865448196  0.7256410275584957  1.0000
  N   N16       1.0  0.10467349802407708  0.22885311692787266  0.27434684576586943  1.0000
  N   N17       1.0  0.7323937270059913  0.9529494690341946  0.3859248997289841  1.0000
  N   N18       1.0  0.26760711920270797  0.047050910373805294  0.6140719254695812  1.0000
