data_image0
_chemical_formula_structural       Fe6Cu4Te2H20C42N4O18
_chemical_formula_sum              "Fe6 Cu4 Te2 H20 C42 N4 O18"
_cell_length_a       10.049146613257424
_cell_length_b       11.098597411648255
_cell_length_c       11.973125332199261
_cell_angle_alpha    75.17707039969562
_cell_angle_beta     75.94795768763623
_cell_angle_gamma    76.706978942322

_space_group_name_H-M_alt    "P 1"
_space_group_IT_number       1

loop_
  _space_group_symop_operation_xyz
  'x, y, z'

loop_
  _atom_site_type_symbol
  _atom_site_label
  _atom_site_symmetry_multiplicity
  _atom_site_fract_x
  _atom_site_fract_y
  _atom_site_fract_z
  _atom_site_occupancy
  Fe  Fe1       1.0  0.6497491899093575  0.1755912763361067  0.24371396902088807  1.0000
  Fe  Fe2       1.0  0.350251200687211  0.8244113245943437  0.7562882110956156  1.0000
  Fe  Fe3       1.0  0.9036836446933452  0.20266496127576525  0.2674224958128164  1.0000
  Fe  Fe4       1.0  0.09631694194928293  0.7973366873891693  0.7325790393842058  1.0000
  Fe  Fe5       1.0  0.6824974168747034  0.2400102231035319  0.4371657052700614  1.0000
  Fe  Fe6       1.0  0.31749970147885165  0.7599932858358824  0.5628360963902851  1.0000
  Cu  Cu1       1.0  0.8247663854181089  0.25657325179194856  0.07293881317667679  1.0000
  Cu  Cu2       1.0  0.17523459907815925  0.743426502391699  0.9270630989962501  1.0000
  Cu  Cu3       1.0  0.7000849079722259  0.3899060035659828  0.24200030171919465  1.0000
  Cu  Cu4       1.0  0.2999181148387465  0.6100937583475599  0.7579986812719498  1.0000
  Te  Te1       1.0  0.7798301260184388  0.0281813477474984  0.3927171144763834  1.0000
  Te  Te2       1.0  0.22016739883099498  0.9718202817852698  0.6072875643821691  1.0000
  H   H1        1.0  0.0819744888175293  0.20357856383998302  0.9042956105021107  1.0000
  H   H2        1.0  0.9180277065610343  0.7964202344057795  0.09570294204928599  1.0000
  H   H3        1.0  0.17175000315185682  0.2803415780886808  0.6917655028042804  1.0000
  H   H4        1.0  0.8282417469920844  0.7196580332755573  0.3082316724268568  1.0000
  H   H5        1.0  0.7657585076590437  0.5148698353132983  0.671519779401024  1.0000
  H   H6        1.0  0.23423161930831787  0.4851279039890172  0.3284857024324027  1.0000
  H   H7        1.0  0.6929358632786207  0.42988186113628063  0.883533417393146  1.0000
  H   H8        1.0  0.3070669807707845  0.5701188831920447  0.11647121096208223  1.0000
  H   H9        1.0  0.1378718157056085  0.4044128042996889  0.5051830058556775  1.0000
  H   H10       1.0  0.8621180518022842  0.5955810793641374  0.4948142769275211  1.0000
  H   H11       1.0  0.8091283038051885  0.5491888934664717  0.014315973785556952  1.0000
  H   H12       1.0  0.19087636522836254  0.45081278070801284  0.9856813698627679  1.0000
  H   H13       1.0  0.7499140048959492  0.7681317158741975  0.903882093145775  1.0000
  H   H14       1.0  0.2500863712968666  0.2318708599318667  0.09611591993355975  1.0000
  H   H15       1.0  0.4168764590627702  0.8333997595216474  0.20001065209933705  1.0000
  H   H16       1.0  0.5831234644683648  0.1665952205796231  0.7999901312505315  1.0000
  H   H17       1.0  0.4900584809725928  0.6124482596599562  0.29858896967810733  1.0000
  H   H18       1.0  0.5099434722310009  0.38754671309657585  0.7014063842676707  1.0000
  H   H19       1.0  0.6128151416380235  0.9753384114274865  0.8911860587836389  1.0000
  H   H20       1.0  0.38718276666129736  0.0246612984996091  0.1088148300136424  1.0000
  C   C1        1.0  0.4938327423118168  0.11694047512563802  0.2955031109309517  1.0000
  C   C2        1.0  0.5061682335421908  0.8830592639833765  0.7044963010196741  1.0000
  C   C3        1.0  0.7254673009173374  0.07560767948840659  0.14340201336439415  1.0000
  C   C4        1.0  0.2745369644641827  0.9243911817609031  0.8566027774869983  1.0000
  C   C5        1.0  0.5653346171668192  0.3185878065192469  0.16190928549076491  1.0000
  C   C6        1.0  0.43466370338988003  0.6814100340509485  0.8380961473195898  1.0000
  C   C7        1.0  0.02475856957339321  0.0946539598924829  0.19131432026507875  1.0000
  C   C8        1.0  0.9752413395539893  0.9053409950843941  0.8086822960476215  1.0000
  C   C9        1.0  0.9373678478453868  0.35176987488156897  0.18032547797211862  1.0000
  C   C10       1.0  0.06263224864891015  0.6482194153984508  0.8196774841926315  1.0000
  C   C11       1.0  0.004017151316205114  0.20913109666584254  0.36536808388416386  1.0000
  C   C12       1.0  0.9959875292403455  0.7908705976081476  0.6346325933938886  1.0000
  C   C13       1.0  0.6709831651896964  0.40541582696930323  0.42325321813034833  1.0000
  C   C14       1.0  0.3290252345100484  0.594592544950764  0.576743400518467  1.0000
  C   C15       1.0  0.7514469504113634  0.20067454863602305  0.565269248555268  1.0000
  C   C16       1.0  0.2485542878197577  0.799333748493062  0.43472970485917284  1.0000
  C   C17       1.0  0.5098186356173501  0.22573501762951045  0.5039898646139067  1.0000
  C   C18       1.0  0.490177096009994  0.7742751320441669  0.49601228444564793  1.0000
  C   C19       1.0  0.015286752858251923  0.2729238974953532  0.8498730860009901  1.0000
  C   C20       1.0  0.984710944991257  0.7270767395728724  0.1501242806786109  1.0000
  C   C21       1.0  0.06462429300967192  0.3159500103929389  0.7308632203255244  1.0000
  C   C22       1.0  0.9353717499750047  0.6840486993397191  0.26913328547459525  1.0000
  C   C23       1.0  0.9778477935773467  0.40651514478808065  0.6613130221452369  1.0000
  C   C24       1.0  0.02214621685411804  0.5934835672644282  0.3386880796515329  1.0000
  C   C25       1.0  0.8406581271146508  0.44665895723263543  0.7189639325023054  1.0000
  C   C26       1.0  0.15933424861723472  0.5533378626584451  0.281042142267026  1.0000
  C   C27       1.0  0.7983723645615869  0.39899701092872397  0.8380582133428833  1.0000
  C   C28       1.0  0.201622481944547  0.6010026798662054  0.1619458191159354  1.0000
  C   C29       1.0  0.03320294756726129  0.4525696879240827  0.5371765397848237  1.0000
  C   C30       1.0  0.9667830653209321  0.5474279705950309  0.46282396611552934  1.0000
  C   C31       1.0  0.7231267070534815  0.6147840786774806  0.05308241667143676  1.0000
  C   C32       1.0  0.27687835695295604  0.38521569599084415  0.9469144705453518  1.0000
  C   C33       1.0  0.6899240297547852  0.738248402840078  0.991800424744547  1.0000
  C   C34       1.0  0.31007776200863907  0.2617522798372107  0.008196084016084605  1.0000
  C   C35       1.0  0.5797368282130436  0.8234721936077348  0.04261483764263838  1.0000
  C   C36       1.0  0.4202639429526514  0.17652848269216287  0.9573827190051677  1.0000
  C   C37       1.0  0.505831511409447  0.7750472118884845  0.1553093761026645  1.0000
  C   C38       1.0  0.49416781534123544  0.22495060993471577  0.844690841783347  1.0000
  C   C39       1.0  0.5453840183339552  0.6505679937684191  0.2110060360406934  1.0000
  C   C40       1.0  0.454617346731439  0.3494298357846759  0.7889912526635288  1.0000
  C   C41       1.0  0.5486042189978734  0.953734935301767  0.9789441339346543  1.0000
  C   C42       1.0  0.4513955258086001  0.0462657245709934  0.021052803785458683  1.0000
  N   N1        1.0  0.8839040196339527  0.3136431219866863  0.9045568029606131  1.0000
  N   N2        1.0  0.11609145249702384  0.6863584746917937  0.09544663804255296  1.0000
  N   N3        1.0  0.6537485743847287  0.570109195861562  0.1621222483318264  1.0000
  N   N4        1.0  0.34625830304595695  0.4298867911966936  0.8378735115421566  1.0000
  O   O1        1.0  0.38911130478900463  0.07829607209653489  0.3214810575349248  1.0000
  O   O2        1.0  0.6108900516341508  0.9217017423819341  0.678513730947003  1.0000
  O   O3        1.0  0.7711221726252621  0.9964775651459377  0.08853436856784212  1.0000
  O   O4        1.0  0.228882715463449  0.0035184996053346015  0.9114784884143108  1.0000
  O   O5        1.0  0.491109112520526  0.3937401259587006  0.10439173232748543  1.0000
  O   O6        1.0  0.5088867459410836  0.606259556138987  0.8956087520218504  1.0000
  O   O7        1.0  0.10849424392390726  0.0208739268040929  0.1457933581518418  1.0000
  O   O8        1.0  0.8915011589952687  0.9791181545639205  0.8542090630605943  1.0000
  O   O9        1.0  0.9898626954658667  0.44049817886825327  0.12868766679194013  1.0000
  O   O10       1.0  0.010156088935851019  0.5595045770542056  0.8713023186148663  1.0000
  O   O11       1.0  0.07664355364907041  0.21790977258481087  0.4245849564165099  1.0000
  O   O12       1.0  0.9233568283052449  0.7820928132710138  0.5754147234776926  1.0000
  O   O13       1.0  0.6632579400612713  0.5050660527129978  0.44510697714427044  1.0000
  O   O14       1.0  0.33675935379653044  0.49492907097801714  0.5548818259756416  1.0000
  O   O15       1.0  0.7944495526558059  0.17727772079759058  0.6522756455053199  1.0000
  O   O16       1.0  0.20555904885149812  0.8227297089067065  0.3477219950388816  1.0000
  O   O17       1.0  0.39574698576285544  0.21505269244688915  0.5524925662684554  1.0000
  O   O18       1.0  0.6042453035390665  0.7849640600818759  0.4475078589274801  1.0000
