data_image0
_chemical_formula_structural       Cd4H48C56N16O16
_chemical_formula_sum              "Cd4 H48 C56 N16 O16"
_cell_length_a       11.147946895011186
_cell_length_b       12.205149716079973
_cell_length_c       13.464962909958803
_cell_angle_alpha    91.51476897412215
_cell_angle_beta     89.96915802591255
_cell_angle_gamma    117.18852415452459

_space_group_name_H-M_alt    "P 1"
_space_group_IT_number       1

loop_
  _space_group_symop_operation_xyz
  'x, y, z'

loop_
  _atom_site_type_symbol
  _atom_site_label
  _atom_site_symmetry_multiplicity
  _atom_site_fract_x
  _atom_site_fract_y
  _atom_site_fract_z
  _atom_site_occupancy
  Cd  Cd1       1.0  0.09832098976532676  0.5577164342867462  0.3807581000315352  1.0000
  Cd  Cd2       1.0  0.5409627535101932  0.44231321245540295  0.11922558503631109  1.0000
  Cd  Cd3       1.0  0.9016805612712488  0.4422827837609873  0.6192428611399804  1.0000
  Cd  Cd4       1.0  0.4590365826867071  0.5576887490780467  0.8807717188310419  1.0000
  H   H1        1.0  0.010021584501956166  0.269858159083995  0.3986627244480374  1.0000
  H   H2        1.0  0.7405533863468535  0.7301764594207756  0.10106351782102511  1.0000
  H   H3        1.0  0.9899808846141838  0.7301428937265443  0.6013367883320342  1.0000
  H   H4        1.0  0.25945267109412373  0.2698245938292132  0.8989359941591105  1.0000
  H   H5        1.0  0.7954835416763046  0.5460450211030263  0.3350301200068344  1.0000
  H   H6        1.0  0.24943174483673403  0.4538894663237303  0.16516247341698428  1.0000
  H   H7        1.0  0.20451485362558228  0.45395326690515253  0.6649693376849584  1.0000
  H   H8        1.0  0.7505671167733041  0.5461097555039345  0.8348392311129516  1.0000
  H   H9        1.0  0.6926581060606481  0.6894138119911518  0.32658418222613517  1.0000
  H   H10       1.0  0.0032388780620990864  0.31047985427637315  0.17353400763293786  1.0000
  H   H11       1.0  0.30734031569087245  0.3105863229985318  0.6734160555496018  1.0000
  H   H12       1.0  0.9967604462218984  0.6895202931517446  0.8264684582182085  1.0000
  H   H13       1.0  0.17774261802991728  0.8359348562930651  0.3888707107028964  1.0000
  H   H14       1.0  0.34194797069961413  0.16416500762043282  0.11099133364453452  1.0000
  H   H15       1.0  0.8222553182321876  0.1640625143337076  0.6111294711846185  1.0000
  H   H16       1.0  0.6580522698468627  0.8358369704609673  0.8890089410567015  1.0000
  H   H17       1.0  0.3738782309232106  0.7328347986043156  0.074843946901872  1.0000
  H   H18       1.0  0.640775535856953  0.2670288638104807  0.4250473080039683  1.0000
  H   H19       1.0  0.6261184231155141  0.26716718314715143  0.9251570713577664  1.0000
  H   H20       1.0  0.3592161947343016  0.732974034663215  0.5749529872598629  1.0000
  H   H21       1.0  0.5458203045022855  0.8345498492286371  0.0833380476774437  1.0000
  H   H22       1.0  0.711150136727035  0.165441789643765  0.4166148086667718  1.0000
  H   H23       1.0  0.4541771937183936  0.165448438669678  0.9166614102143313  1.0000
  H   H24       1.0  0.28884295180230857  0.8345620304307173  0.5833855049598141  1.0000
  H   H25       1.0  0.5014565901806166  0.4266751436999528  0.39732675098539966  1.0000
  H   H26       1.0  0.07534855776199835  0.5736218404389037  0.10224939427995851  1.0000
  H   H27       1.0  0.4985436065520544  0.5733231609660407  0.6026756773402866  1.0000
  H   H28       1.0  0.9246516371535803  0.4263764601175667  0.8977522912872614  1.0000
  H   H29       1.0  0.3922920026208701  0.567342604222489  0.4021808291109039  1.0000
  H   H30       1.0  0.8254719673074999  0.4328459255409386  0.0975999269069234  1.0000
  H   H31       1.0  0.6077117998008106  0.4326575273168487  0.5978186647064518  1.0000
  H   H32       1.0  0.1745277950179229  0.5671533046156371  0.9024032629399628  1.0000
  H   H33       1.0  0.5308086310982602  0.8491678591612626  0.2708853837872951  1.0000
  H   H34       1.0  0.6817185258529719  0.15067825830871578  0.229070829268835  1.0000
  H   H35       1.0  0.4691947278307182  0.15083317732105433  0.7291111577589291  1.0000
  H   H36       1.0  0.3182803375741583  0.849320967628479  0.770931618019567  1.0000
  H   H37       1.0  0.42100522832165393  0.8942213552010472  0.2102973052045698  1.0000
  H   H38       1.0  0.5267132892397797  0.10546823113312342  0.2896017978720167  1.0000
  H   H39       1.0  0.5789977016513603  0.10578061910041467  0.7897022261382531  1.0000
  H   H40       1.0  0.473282005043771  0.8945328249080409  0.7103984592663933  1.0000
  H   H41       1.0  0.8429366292904134  0.918233943459569  0.3532273833829151  1.0000
  H   H42       1.0  0.9246461013604659  0.08165138486076981  0.1464017590203284  1.0000
  H   H43       1.0  0.15706448552182198  0.0817661959692231  0.6467735965513343  1.0000
  H   H44       1.0  0.07535365914787222  0.9183478411862825  0.8536006880680844  1.0000
  H   H45       1.0  0.353920718841323  0.198055723845883  0.3914135888696038  1.0000
  H   H46       1.0  0.15636039696065046  0.8023477985695637  0.1082569479180222  1.0000
  H   H47       1.0  0.6460799086644043  0.8019416471104819  0.6085865924179572  1.0000
  H   H48       1.0  0.8436438416853703  0.1976514115887157  0.8917425271366071  1.0000
  C   C1        1.0  0.17068878135030732  0.21803720308322036  0.3954467787433416  1.0000
  C   C2        1.0  0.953037503049572  0.7820890820040278  0.1043450012145684  1.0000
  C   C3        1.0  0.8293114062969098  0.7819610810351636  0.6045519357900133  1.0000
  C   C4        1.0  0.04696357986176026  0.2179091981146968  0.8956529703603451  1.0000
  C   C5        1.0  0.11877007782307197  0.3029095927601162  0.39932258737456294  1.0000
  C   C6        1.0  0.8162462862543405  0.6971219203161284  0.1003813268115721  1.0000
  C   C7        1.0  0.8812292127429302  0.6970886912484034  0.6006761273587884  1.0000
  C   C8        1.0  0.1837552839634924  0.30287912827502345  0.8996174434100226  1.0000
  C   C9        1.0  0.8575752314639613  0.6451209552279595  0.3469029172924323  1.0000
  C   C10       1.0  0.2125213551827088  0.35484573213152976  0.1532178115075808  1.0000
  C   C11       1.0  0.14242452722728413  0.35487826670957656  0.6530987870375142  1.0000
  C   C12       1.0  0.7874779672842038  0.6451544111870647  0.8467839115850992  1.0000
  C   C13       1.0  0.8001312206015568  0.7258028713286393  0.34302844451361386  1.0000
  C   C14       1.0  0.07433061731747159  0.27407845501852535  0.1570284503402846  1.0000
  C   C15       1.0  0.19986763919138886  0.27419634638950896  0.6569725172578558  1.0000
  C   C16       1.0  0.9256691641892233  0.7259226056814683  0.8429725485566806  1.0000
  C   C17       1.0  0.020914469418961808  0.8929575323243385  0.3736614052631921  1.0000
  C   C18       1.0  0.12807859178670358  0.10712330175391573  0.1262199420373662  1.0000
  C   C19       1.0  0.9790843411089014  0.10703799964983321  0.6263394818573288  1.0000
  C   C20       1.0  0.8719216433084968  0.8928786639989216  0.873778104388471  1.0000
  C   C21       1.0  0.3223012627279401  0.7220335540109915  0.280744112691103  1.0000
  C   C22       1.0  0.6003009712759351  0.2777035613486377  0.21914824645413938  1.0000
  C   C23       1.0  0.6777025944100997  0.2779702756008859  0.7192576840526002  1.0000
  C   C24       1.0  0.399695617143891  0.7222946976731637  0.780846012328368  1.0000
  C   C25       1.0  0.07033781037898024  0.8063426837485824  0.3762960624667713  1.0000
  C   C26       1.0  0.2641726483236582  0.19378088993938997  0.12366538945311589  1.0000
  C   C27       1.0  0.9296619218626389  0.1936546912074419  0.6237048617792382  1.0000
  C   C28       1.0  0.7358280284471517  0.8062201667609445  0.8763348664853935  1.0000
  C   C29       1.0  0.46218727730916936  0.7633835976510214  0.12436736744640342  1.0000
  C   C30       1.0  0.6986428219083435  0.23652777700842628  0.375550575885093  1.0000
  C   C31       1.0  0.5378084477474445  0.23661652468051392  0.8756306426538885  1.0000
  C   C32       1.0  0.30135336945642166  0.7634732791425948  0.6244496810533419  1.0000
  C   C33       1.0  0.39233851878048387  0.3890434961454544  0.4004554128907145  1.0000
  C   C34       1.0  0.0038386787934925064  0.6112157232774609  0.0991643959120978  1.0000
  C   C35       1.0  0.6076652361932062  0.610952953759437  0.5995447490341661  1.0000
  C   C36       1.0  0.9961642301811648  0.3887844163710597  0.9008365836221799  1.0000
  C   C37       1.0  0.3321711357339722  0.4674640405421897  0.4027266894597973  1.0000
  C   C38       1.0  0.865210562585382  0.5326956463730286  0.0969593007769944  1.0000
  C   C39       1.0  0.6678317467910589  0.5325342521248262  0.5972735099905364  1.0000
  C   C40       1.0  0.13479011781961248  0.4673054185463459  0.9030424406784475  1.0000
  C   C41       1.0  0.4406758639434755  0.8149179148893  0.22287301276080027  1.0000
  C   C42       1.0  0.6256980300777498  0.18486025858630478  0.2770627809160757  1.0000
  C   C43       1.0  0.5593266051726644  0.18508313792123943  0.7771265000192713  1.0000
  C   C44       1.0  0.3743000101657896  0.8151444958569769  0.722939778548728  1.0000
  C   C45       1.0  0.8824363078794729  0.8515572976021629  0.3563580290345953  1.0000
  C   C46       1.0  0.030878353876069287  0.14838472415630832  0.1434759616181935  1.0000
  C   C47       1.0  0.11756393448409597  0.14844468458875332  0.6436429884251069  1.0000
  C   C48       1.0  0.9691214258135333  0.8516163324341621  0.8565242945202981  1.0000
  C   C49       1.0  0.3112025671792793  0.2624004951680092  0.396184546529085  1.0000
  C   C50       1.0  0.04929432426800417  0.7378583855311193  0.1035056828257268  1.0000
  C   C51       1.0  0.6887971860606895  0.7375987144409565  0.6038149295254698  1.0000
  C   C52       1.0  0.9507067604604132  0.26213989869712145  0.8964930315076457  1.0000
  C   C53       1.0  0.4928658843877897  0.6553794373472428  0.1358044250427994  1.0000
  C   C54       1.0  0.8373058901774754  0.34462374562257747  0.3640987445102652  1.0000
  C   C55       1.0  0.5071311757914643  0.3446197678226143  0.8641943088532429  1.0000
  C   C56       1.0  0.16268670458373435  0.6553755042027093  0.6359081607288246  1.0000
  N   N1        1.0  0.19743474695338392  0.42475772704158044  0.4026026997997647  1.0000
  N   N2        1.0  0.7730826513657901  0.5752726420995131  0.09709987304313468  1.0000
  N   N3        1.0  0.8025650081036841  0.5752414866769016  0.5973975190132563  1.0000
  N   N4        1.0  0.22691982320161935  0.4247284230395891  0.9029018680123357  1.0000
  N   N5        1.0  0.11934645502457639  0.016757789823827796  0.38695989028394007  1.0000
  N   N6        1.0  0.10282306352447511  0.983433668753264  0.11279580196162438  1.0000
  N   N7        1.0  0.8806537608893591  0.9832423453855837  0.6130403470918182  1.0000
  N   N8        1.0  0.8971798646314468  0.016568301438674403  0.8872029866227252  1.0000
  N   N9        1.0  0.9902942346387106  0.685014607645556  0.36325503417623395  1.0000
  N   N10       1.0  0.30546636058446097  0.3150901936236252  0.13680054416578  1.0000
  N   N11       1.0  0.00970462333714289  0.31498460596306904  0.6367451848367764  1.0000
  N   N12       1.0  0.694533857146567  0.6849099456953099  0.8632004359684515  1.0000
  N   N13       1.0  0.07249231729574747  0.09369075998297659  0.3866699643232749  1.0000
  N   N14       1.0  0.9790780868171323  0.9063173162020847  0.11335254694457571  1.0000
  N   N15       1.0  0.9275096873293336  0.9063093631175932  0.6133280443771199  1.0000
  N   N16       1.0  0.020923936989213094  0.0936846374419034  0.886643270805898  1.0000
  O   O1        1.0  0.49263458306035074  0.5943712667983689  0.055805657306422105  1.0000
  O   O2        1.0  0.8979561510752487  0.4056081264147763  0.4441086623344929  1.0000
  O   O3        1.0  0.5073629307074087  0.4056288434243244  0.9441901241184993  1.0000
  O   O4        1.0  0.10204050114639068  0.5943938512271743  0.5558916131666862  1.0000
  O   O5        1.0  0.23061946498471292  0.6284616663846807  0.23423077587440125  1.0000
  O   O6        1.0  0.6021342262843632  0.37130113854414765  0.2656526493054301  1.0000
  O   O7        1.0  0.7693825733583637  0.3715403201354875  0.7657709839437957  1.0000
  O   O8        1.0  0.39786192772821477  0.6286980459682354  0.7343423709982702  1.0000
  O   O9        1.0  0.31624848363375685  0.7421318063192006  0.3735310577382336  1.0000
  O   O10       1.0  0.5743593285199892  0.2577000007220178  0.1263734021065801  1.0000
  O   O11       1.0  0.6837535528922273  0.2578701760914441  0.6264699593214972  1.0000
  O   O12       1.0  0.4256377052096312  0.7422973574663346  0.8736245517055252  1.0000
  O   O13       1.0  0.5197914270289558  0.6269550256430563  0.21922437532983002  1.0000
  O   O14       1.0  0.8927323495640066  0.3730886253719206  0.2806565950507718  1.0000
  O   O15       1.0  0.48020471143654214  0.37304233654495544  0.7807743214407239  1.0000
  O   O16       1.0  0.10726693918490332  0.6269096545270757  0.7193413769241062  1.0000
