data_image0
_chemical_formula_structural       Cd2H40C40N8O8
_chemical_formula_sum              "Cd2 H40 C40 N8 O8"
_cell_length_a       7.837898351814881
_cell_length_b       10.347729121463795
_cell_length_c       13.594177194675982
_cell_angle_alpha    91.84132366990262
_cell_angle_beta     91.00387507391406
_cell_angle_gamma    99.01715662404348

_space_group_name_H-M_alt    "P 1"
_space_group_IT_number       1

loop_
  _space_group_symop_operation_xyz
  'x, y, z'

loop_
  _atom_site_type_symbol
  _atom_site_label
  _atom_site_symmetry_multiplicity
  _atom_site_fract_x
  _atom_site_fract_y
  _atom_site_fract_z
  _atom_site_occupancy
  Cd  Cd1       1.0  0.5470638046190429  0.42033029101222047  0.27390705097122486  1.0000
  Cd  Cd2       1.0  0.4529297376817922  0.5796686082127424  0.7260830507205397  1.0000
  H   H1        1.0  0.036863537654774306  0.8319641974253925  0.38928534989400987  1.0000
  H   H2        1.0  0.9631282201094534  0.16802295407537576  0.6107225066844463  1.0000
  H   H3        1.0  0.06548164906740077  0.6958436047360053  0.6847797797675099  1.0000
  H   H4        1.0  0.9344931227577434  0.3041534248074456  0.31522076775601693  1.0000
  H   H5        1.0  0.27417958775400547  0.8888851965963269  0.7308256645962599  1.0000
  H   H6        1.0  0.7258057712037597  0.11110790260983089  0.2691786462613024  1.0000
  H   H7        1.0  0.3652079245960849  0.061325600537308816  0.6102709210452841  1.0000
  H   H8        1.0  0.6347923615554194  0.9386750631301197  0.38974302344306  1.0000
  H   H9        1.0  0.23967270029906726  0.1822189569968558  0.20047056162187718  1.0000
  H   H10       1.0  0.7603467800228574  0.8177589240351326  0.799536822530932  1.0000
  H   H11       1.0  0.4595324949865756  0.21248619062085797  0.48665015330813327  1.0000
  H   H12       1.0  0.5404589613155153  0.7875273673900197  0.5133575950124721  1.0000
  H   H13       1.0  0.6267746219909044  0.3797958698104224  0.5368220105746032  1.0000
  H   H14       1.0  0.3732082964570722  0.6202000530373014  0.46316544079141403  1.0000
  H   H15       1.0  0.8504367041694465  0.6584989314861147  0.3390413251117579  1.0000
  H   H16       1.0  0.14955345041040857  0.34150606634387504  0.660961523813711  1.0000
  H   H17       1.0  0.6411319736431765  0.16274563303292675  0.7165811472759812  1.0000
  H   H18       1.0  0.35887107202565005  0.8372648830562072  0.28341423347522005  1.0000
  H   H19       1.0  0.8332930022132319  0.14734575601942623  0.860619553089158  1.0000
  H   H20       1.0  0.1667205745782638  0.8526737054911209  0.13937657619462837  1.0000
  H   H21       1.0  0.8833269409423252  0.30427378626419  0.8086794865398089  1.0000
  H   H22       1.0  0.11667729143400149  0.695742719289889  0.19131402791462895  1.0000
  H   H23       1.0  0.711274258266599  0.3994348082057685  0.9371398313566103  1.0000
  H   H24       1.0  0.28873193290702653  0.6005710404113032  0.06285244518232959  1.0000
  H   H25       1.0  0.8745900220792251  0.3246353728929066  0.9927805949266355  1.0000
  H   H26       1.0  0.1254197635732837  0.6753780179286438  0.007218062884007296  1.0000
  H   H27       1.0  0.6706004966691522  0.1281261000100145  0.025423846059076993  1.0000
  H   H28       1.0  0.3294229682158303  0.8718684798139407  0.9745653632904592  1.0000
  H   H29       1.0  0.38438344283844833  0.2636706714696828  0.9381007582325012  1.0000
  H   H30       1.0  0.6156251793781209  0.7363282305093363  0.06189416875329097  1.0000
  H   H31       1.0  0.358312298933086  0.1057557583168744  0.9853828546589796  1.0000
  H   H32       1.0  0.6417043882609619  0.8942460791978417  0.014614651659762475  1.0000
  H   H33       1.0  0.356013617865976  0.10421777279226058  0.8004468766055266  1.0000
  H   H34       1.0  0.6440066959143708  0.8957762412173266  0.19955179364870895  1.0000
  H   H35       1.0  0.5225634142030559  0.025220485041693115  0.8484620399587967  1.0000
  H   H36       1.0  0.477450439161018  0.9747871191455602  0.15153642646553317  1.0000
  H   H37       1.0  0.09933129330072178  0.9834617365961337  0.29371951095645693  1.0000
  H   H38       1.0  0.9006944970793213  0.016527448870299104  0.7062797921927241  1.0000
  H   H39       1.0  0.833103753204412  0.5361195036499068  0.6348509324038359  1.0000
  H   H40       1.0  0.16686856691124768  0.463869882962257  0.36514546901302947  1.0000
  C   C1        1.0  0.2087381912941453  0.9584044282764592  0.4900612624083178  1.0000
  C   C2        1.0  0.7912612414782456  0.04158889555812811  0.5099434389095734  1.0000
  C   C3        1.0  0.09013187566798558  0.8464926750742806  0.4641437435764145  1.0000
  C   C4        1.0  0.9098698570789097  0.15349881426110562  0.5358594511645336  1.0000
  C   C5        1.0  0.03245388193845859  0.7518175009815449  0.5329869455802551  1.0000
  C   C6        1.0  0.967535893125934  0.2481778175053221  0.46701391677603965  1.0000
  C   C7        1.0  0.10146466920473067  0.7684690991194999  0.6294218737678107  1.0000
  C   C8        1.0  0.898520024829132  0.2315330443988372  0.37057773359460805  1.0000
  C   C9        1.0  0.22082964946593356  0.879541827846083  0.6559452003406249  1.0000
  C   C10       1.0  0.7791485418315673  0.1204617658489511  0.34406167289262857  1.0000
  C   C11       1.0  0.27307279659257233  0.9747574703446489  0.5879597528518942  1.0000
  C   C12       1.0  0.7269210979703119  0.025248324505376698  0.4120476574620469  1.0000
  C   C13       1.0  0.2674366790332883  0.16015943698302954  0.2760870917133857  1.0000
  C   C14       1.0  0.7325598376327916  0.8398327064270319  0.723920415941272  1.0000
  C   C15       1.0  0.37750085874848344  0.17289613280062352  0.4245612109674823  1.0000
  C   C16       1.0  0.6225033800998502  0.8270961735165655  0.575445776442649  1.0000
  C   C17       1.0  0.26141976011773943  0.05729298996151751  0.4182526023619316  1.0000
  C   C18       1.0  0.7385850493062948  0.9427022908968751  0.5817538185112595  1.0000
  C   C19       1.0  0.7067769477332532  0.4621536202712164  0.5054943631440237  1.0000
  C   C20       1.0  0.2932064445783809  0.5378399630662399  0.4945003448232583  1.0000
  C   C21       1.0  0.8287341008339763  0.6091846906280052  0.40786212829729607  1.0000
  C   C22       1.0  0.17125357091599366  0.3908109908425814  0.5921313308373682  1.0000
  C   C23       1.0  0.9025250456549684  0.6417954359310868  0.500658672885386  1.0000
  C   C24       1.0  0.09746186607706869  0.35819792599098593  0.49934127413126816  1.0000
  C   C25       1.0  0.6155331315269167  0.21160851539828937  0.7870606231456136  1.0000
  C   C26       1.0  0.38447930411317083  0.7884049970298436  0.21293663921205308  1.0000
  C   C27       1.0  0.784683024362124  0.24043403606274438  0.84865864211401  1.0000
  C   C28       1.0  0.21532363022129175  0.7595823891852901  0.15133714300186799  1.0000
  C   C29       1.0  0.7541771128792972  0.30433857372837997  0.9485437031558702  1.0000
  C   C30       1.0  0.2458287977398896  0.6956678491163331  0.05145596117388609  1.0000
  C   C31       1.0  0.615911304417409  0.21650451030739495  0.006349637858761497  1.0000
  C   C32       1.0  0.3840994666696745  0.7834940690704285  0.9936519591257633  1.0000
  C   C33       1.0  0.4482276188529398  0.17722975183328063  0.9454795292979767  1.0000
  C   C34       1.0  0.5517841328147172  0.8227721655284769  0.05451490214365859  1.0000
  C   C35       1.0  0.47877690703970893  0.12114819443182509  0.8427468309176901  1.0000
  C   C36       1.0  0.5212382329799112  0.8788586136534131  0.15724868254952173  1.0000
  C   C37       1.0  0.556885161615007  0.3404192628254137  0.7587003513668265  1.0000
  C   C38       1.0  0.4431136885098184  0.6595900524184231  0.2412978002247498  1.0000
  C   C39       1.0  0.5868907687470397  0.2871603760949951  0.10323315496890467  1.0000
  C   C40       1.0  0.41311602735868286  0.7128380208729437  0.8967705351950953  1.0000
  N   N1        1.0  0.19543024043095156  0.051835093962949906  0.3225494810823406  1.0000
  N   N2        1.0  0.8045713028737113  0.9481570503651257  0.6774596350036645  1.0000
  N   N3        1.0  0.3796691572002828  0.23528050442347848  0.3366680906902246  1.0000
  N   N4        1.0  0.6203197211778857  0.7647123733672956  0.66334145921671  1.0000
  N   N5        1.0  0.8219452560957947  0.5461965204647257  0.5605660296162823  1.0000
  N   N6        1.0  0.17803627898459234  0.4537948844335417  0.4394321978450647  1.0000
  N   N7        1.0  0.7082505678300066  0.49761911337918013  0.4121142595976081  1.0000
  N   N8        1.0  0.29174213777639574  0.5023757524866284  0.5878778195148797  1.0000
  O   O1        1.0  0.6687183715796082  0.4294116338038591  0.7229228134830803  1.0000
  O   O2        1.0  0.3312807230103942  0.5706011898262986  0.2770828925852555  1.0000
  O   O3        1.0  0.40074215856525086  0.35563867854818193  0.7710145491519639  1.0000
  O   O4        1.0  0.599252876518051  0.6443620760557635  0.22897789882880196  1.0000
  O   O5        1.0  0.4429737573477582  0.32672707796233874  0.11745311303641158  1.0000
  O   O6        1.0  0.5570247387821539  0.6732689980800616  0.8825546523625645  1.0000
  O   O7        1.0  0.7109216705529205  0.30703820370892737  0.16755839900959296  1.0000
  O   O8        1.0  0.28908319724491355  0.6929615342956269  0.8324379434947602  1.0000
