data_image0
_chemical_formula_structural       Dy4H32C28N8O36
_chemical_formula_sum              "Dy4 H32 C28 N8 O36"
_cell_length_a       7.408704068
_cell_length_b       12.461745766279817
_cell_length_c       13.019
_cell_angle_alpha    90.0
_cell_angle_beta     90.0
_cell_angle_gamma    94.13928068799966

_space_group_name_H-M_alt    "P 1"
_space_group_IT_number       1

loop_
  _space_group_symop_operation_xyz
  'x, y, z'

loop_
  _atom_site_type_symbol
  _atom_site_label
  _atom_site_symmetry_multiplicity
  _atom_site_fract_x
  _atom_site_fract_y
  _atom_site_fract_z
  _atom_site_occupancy
  Dy  Dy1       1.0  0.9019320556658742  0.8311328973851602  0.8319548352408005  1.0000
  Dy  Dy2       1.0  0.598065119104362  0.6688655303143205  0.3319609801059967  1.0000
  Dy  Dy3       1.0  0.09806644564723403  0.1688655180448677  0.1680382517858519  1.0000
  Dy  Dy4       1.0  0.4019295282824444  0.3311344942245853  0.668044396651048  1.0000
  H   H1        1.0  0.669863558367318  0.7893467533614924  0.076512789000688  1.0000
  H   H2        1.0  0.8301335187204871  0.7106508697835494  0.5765120208925438  1.0000
  H   H3        1.0  0.3301325364656478  0.2106540757318598  0.9234849066748578  1.0000
  H   H4        1.0  0.16988493600119633  0.2893451319831541  0.4234802980259644  1.0000
  H   H5        1.0  0.7664265841753137  0.41849462458210235  0.9854727705660975  1.0000
  H   H6        1.0  0.7335854285649149  0.08150860590512109  0.485476611106847  1.0000
  H   H7        1.0  0.23360403621025233  0.5815126409467766  0.014531838082802997  1.0000
  H   H8        1.0  0.2664078690581634  0.9184914186337919  0.5145326061909543  1.0000
  H   H9        1.0  0.20733377392647875  0.7045708518697964  0.907486750134417  1.0000
  H   H10       1.0  0.2926625024814841  0.7954267712752454  0.4074852139181218  1.0000
  H   H11       1.0  0.7926748595097453  0.2954331954413263  0.0925132498655827  1.0000
  H   H12       1.0  0.7073183542207745  0.2045708396003363  0.5925132498655827  1.0000
  H   H13       1.0  0.18888491047991354  0.8135284416526005  0.9647807051232817  1.0000
  H   H14       1.0  0.3111051055215982  0.6864732042646438  0.4647860818803266  1.0000
  H   H15       1.0  0.8111141769278023  0.186474801104076  0.03521929487671829  1.0000
  H   H16       1.0  0.6888845335400475  0.3135300384920257  0.5352208310930208  1.0000
  H   H17       1.0  0.24710082185798402  0.8689083375183841  0.7065588754896692  1.0000
  H   H18       1.0  0.252897958712559  0.6310876765177724  0.2065634841385702  1.0000
  H   H19       1.0  0.7529001836177046  0.1310884688027585  0.2934426607266332  1.0000
  H   H20       1.0  0.7470947528159115  0.3689075206944921  0.7934472693755266  1.0000
  H   H21       1.0  0.2228599105807804  0.7441243573185403  0.735949765727014  1.0000
  H   H22       1.0  0.27714436672709303  0.7558724612720551  0.23595207005146074  1.0000
  H   H23       1.0  0.7771396474487489  0.2558716444481632  0.2640540748137354  1.0000
  H   H24       1.0  0.7228619401210638  0.2441235404946482  0.7640533067055841  1.0000
  H   H25       1.0  0.5218047629460969  0.8891308134033054  0.7778270220447039  1.0000
  H   H26       1.0  0.9781928025538777  0.610870832513946  0.277832398801749  1.0000
  H   H27       1.0  0.4781970239890684  0.1108724293533712  0.22217451417159845  1.0000
  H   H28       1.0  0.021798754575741004  0.38912597380720365  0.7221783547123408  1.0000
  H   H29       1.0  0.5029219145395345  0.7636645710371397  0.8080274982717554  1.0000
  H   H30       1.0  0.9970758463253164  0.7363386839889898  0.30802749827175546  1.0000
  H   H31       1.0  0.4970796770307687  0.23633706261065154  0.1919709655119419  1.0000
  H   H32       1.0  0.002914849452750402  0.2636621451043624  0.6919740379445398  1.0000
  C   C1        1.0  0.6927656017910095  0.7062837482755597  0.057188724172363  1.0000
  C   C2        1.0  0.8072293618639534  0.7937187021961306  0.557188724172363  1.0000
  C   C3        1.0  0.3072386893067431  0.2937178853722315  0.9428097396113344  1.0000
  C   C4        1.0  0.1927710753074905  0.20628454056054574  0.44280436285428937  1.0000
  C   C5        1.0  0.6911376918511183  0.5291409741374338  0.10556878408480228  1.0000
  C   C6        1.0  0.8088636298927342  0.9708582581164862  0.6055726246255446  1.0000
  C   C7        1.0  0.3088754614980972  0.4708558321837089  0.8944289115907507  1.0000
  C   C8        1.0  0.19112465940519036  0.0291449846401903  0.3944273753744553  1.0000
  C   C9        1.0  0.7445054266043627  0.5009429500747942  0.006959827943774099  1.0000
  C   C10       1.0  0.7555031323702865  0.9990603049513422  0.5069644365926749  1.0000
  C   C11       1.0  0.25551226444819974  0.499057879018558  0.9930386358399231  1.0000
  C   C12       1.0  0.244494507591277  0.000942133250895  0.4930417082725214  1.0000
  C   C13       1.0  0.7774962571159278  0.5846327030705822  0.9368215684768443  1.0000
  C   C14       1.0  0.7225054553576628  0.9153697474011082  0.4368231046931399  1.0000
  C   C15       1.0  0.2225086999685004  0.4153632986961213  0.0631768953068601  1.0000
  C   C16       1.0  0.27748872140733744  0.08463751812777079  0.5631738228742619  1.0000
  C   C17       1.0  0.858422326353079  0.567920498213546  0.8305745448959243  1.0000
  C   C18       1.0  0.641573498653436  0.9320779294859349  0.33057761732852237  1.0000
  C   C19       1.0  0.141563245627033  0.432071480780948  0.16942699132037825  1.0000
  C   C20       1.0  0.3584284836466054  0.0679269223796268  0.6694246869959314  1.0000
  C   C21       1.0  0.6571028385251341  0.4493702058257725  0.1929641293494129  1.0000
  C   C22       1.0  0.8428948951183771  0.0506265882259171  0.6929695061064577  1.0000
  C   C23       1.0  0.342899516714283  0.5506266004953702  0.8070258852446413  1.0000
  C   C24       1.0  0.15710630572218787  0.9493718272041107  0.307027421460944  1.0000
  C   C25       1.0  0.09745372286846532  0.0100786534875823  0.9786158691143712  1.0000
  C   C26       1.0  0.4025416649665986  0.4899165314552221  0.478637376142558  1.0000
  C   C27       1.0  0.9025432511064083  0.9899294165957427  0.0213641600737375  1.0000
  C   C28       1.0  0.5974593227187273  0.510069011103738  0.5213848989937802  1.0000
  N   N1        1.0  0.7492415817824067  0.68683284009996  0.9615776941393364  1.0000
  N   N2        1.0  0.7507570404339888  0.8131663921539669  0.4615776941393363  1.0000
  N   N3        1.0  0.25075817161199154  0.3131647707756287  0.0384200015362168  1.0000
  N   N4        1.0  0.24924329905501713  0.1868360460482705  0.5384169291036187  1.0000
  N   N5        1.0  0.6674170339703595  0.6318093618517153  0.1308264843690026  1.0000
  N   N6        1.0  0.832584678503224  0.8681930886199679  0.6308272524771465  1.0000
  N   N7        1.0  0.3325924608174162  0.3681906626871907  0.8691735156309974  1.0000
  N   N8        1.0  0.1674132545056395  0.1318117632455866  0.3691742837391487  1.0000
  O   O1        1.0  0.8871726530595866  0.6519586232824679  0.7762324295260754  1.0000
  O   O2        1.0  0.612821626818331  0.8480381953081348  0.2762362700668248  1.0000
  O   O3        1.0  0.11281677284682698  0.348031746603148  0.2237614256087284  1.0000
  O   O4        1.0  0.387178810353113  0.1519650474485417  0.7237644980413265  1.0000
  O   O5        1.0  0.8971955636020397  0.47386808401235914  0.8075305322989479  1.0000
  O   O6        1.0  0.6027933077899945  0.026133537365978992  0.3075328366233946  1.0000
  O   O7        1.0  0.10278926249931432  0.5261399860709659  0.19246869959290075  1.0000
  O   O8        1.0  0.3972102018482744  0.9738616598462855  0.6924671633766052  1.0000
  O   O9        1.0  0.6274070935775455  0.4883283409878771  0.2798824794531071  1.0000
  O   O10       1.0  0.8725896810319755  0.011671671281583  0.7798817113449559  1.0000
  O   O11       1.0  0.37258147097731614  0.5116660516699483  0.7201175205468926  1.0000
  O   O12       1.0  0.12741365103178742  0.9883331805839788  0.220115216222446  1.0000
  O   O13       1.0  0.6587892231228026  0.3492305327208527  0.173033259082878  1.0000
  O   O14       1.0  0.8411966556944892  0.1507686749941612  0.673036331515476  1.0000
  O   O15       1.0  0.3412091006158064  0.6507775373624725  0.8269698133497199  1.0000
  O   O16       1.0  0.15879016836691312  0.8492224994458937  0.3269659728089706  1.0000
  O   O17       1.0  0.14221426650776442  0.9499824840251421  0.9058437668023627  1.0000
  O   O18       1.0  0.357797345713344  0.5500191618921093  0.405852215992013  1.0000
  O   O19       1.0  0.8577933102120455  0.0500239769492978  0.0941339580612919  1.0000
  O   O20       1.0  0.6422109946755797  0.44998247175568906  0.594153160765039  1.0000
  O   O21       1.0  0.19607636351250332  0.084570740109136  0.0205538059758794  1.0000
  O   O22       1.0  0.3039394839336751  0.4154373177047361  0.5205684000307257  1.0000
  O   O23       1.0  0.8039292773489708  0.9154308935386553  0.9794262232122293  1.0000
  O   O24       1.0  0.6960773457673427  0.5845675341608256  0.47944004915892435  1.0000
  O   O25       1.0  0.12039752039353861  0.7454100353159205  0.9484130885628728  1.0000
  O   O26       1.0  0.3795974062506957  0.7545875878291212  0.4484138566710171  1.0000
  O   O27       1.0  0.8796069660690833  0.254593207440756  0.051584607112680196  1.0000
  O   O28       1.0  0.6203902969526143  0.2454108276009066  0.5515853752208315  1.0000
  O   O29       1.0  0.15633310547681845  0.8079512702647236  0.7215216222444096  1.0000
  O   O30       1.0  0.34367078110131644  0.6920423301081087  0.22152699900146183  1.0000
  O   O31       1.0  0.8436689567152912  0.1920431223930947  0.2784745372148407  1.0000
  O   O32       1.0  0.6563280931511672  0.3079480397775072  0.7784799139718854  1.0000
  O   O33       1.0  0.5870843418831911  0.8285720005981432  0.8045633305169344  1.0000
  O   O34       1.0  0.9129145733805119  0.6714296453191081  0.3045679391658354  1.0000
  O   O35       1.0  0.412916095288253  0.1714312421585333  0.19544127813195894  1.0000
  O   O36       1.0  0.08707978095898741  0.3285679655564806  0.6954443505645569  1.0000
