data_image0
_chemical_formula_structural       Cu2H30C28N6Cl2O4
_chemical_formula_sum              "Cu2 H30 C28 N6 Cl2 O4"
_cell_length_a       7.763343134746821
_cell_length_b       8.630297046066424
_cell_length_c       11.073762789034902
_cell_angle_alpha    87.32229016380788
_cell_angle_beta     74.36394011586191
_cell_angle_gamma    87.72015625287524

_space_group_name_H-M_alt    "P 1"
_space_group_IT_number       1

loop_
  _space_group_symop_operation_xyz
  'x, y, z'

loop_
  _atom_site_type_symbol
  _atom_site_label
  _atom_site_symmetry_multiplicity
  _atom_site_fract_x
  _atom_site_fract_y
  _atom_site_fract_z
  _atom_site_occupancy
  Cu  Cu1       1.0  0.6080284791480679  0.9310686717761244  0.3379703659454663  1.0000
  Cu  Cu2       1.0  0.3919722464995345  0.06893255722857107  0.6620284989365502  1.0000
  H   H1        1.0  0.9072022337826198  0.631981662694926  0.23959628462679222  1.0000
  H   H2        1.0  0.09279721617589591  0.36801723032401396  0.7604046957256828  1.0000
  H   H3        1.0  0.281034787137969  0.9916716199788662  0.27835201196970877  1.0000
  H   H4        1.0  0.7189564737672356  0.008331891172623802  0.7216539649826643  1.0000
  H   H5        1.0  0.03007549310496669  0.8457607210534304  0.24326093828658918  1.0000
  H   H6        1.0  0.9699212619374722  0.15423814162144106  0.7567441574286421  1.0000
  H   H7        1.0  0.2544398799536722  0.43449746113979854  0.3932291516820926  1.0000
  H   H8        1.0  0.745567579635768  0.565502615780886  0.6067666875977693  1.0000
  H   H9        1.0  0.4914652339184756  0.5976539589222153  0.4197334913387892  1.0000
  H   H10       1.0  0.5085367576099955  0.40234958918389907  0.5802650665503037  1.0000
  H   H11       1.0  0.9231902959995182  0.04206591769173679  0.4257760201550057  1.0000
  H   H12       1.0  0.0768091392466843  0.9579329500007032  0.5742276729137856  1.0000
  H   H13       1.0  0.0746499001409973  0.2872682182685011  0.4135860280476536  1.0000
  H   H14       1.0  0.9253468190169658  0.7127318048132305  0.5864190387730233  1.0000
  H   H15       1.0  0.7311981837152216  0.4773191991945324  0.18825350441431976  1.0000
  H   H16       1.0  0.2688095009892919  0.5226739321693472  0.8117406997552692  1.0000
  H   H17       1.0  0.5982371810178577  0.2164996633380269  0.20765235105199054  1.0000
  H   H18       1.0  0.40176909426786983  0.7834957905518606  0.7923420445323476  1.0000
  H   H19       1.0  0.842320370960124  0.8598853487939095  0.9038063613000846  1.0000
  H   H20       1.0  0.1576789452686853  0.14011820273680087  0.0961926949966738  1.0000
  H   H21       1.0  0.6074811370138138  0.8971382959226444  0.9384172096484136  1.0000
  H   H22       1.0  0.392518399425974  0.10285830160908918  0.06158111577684623  1.0000
  H   H23       1.0  0.7004880339589334  0.6419461458889585  0.8365321358185797  1.0000
  H   H24       1.0  0.29951265090008417  0.3580562350804256  0.16346760440766417  1.0000
  H   H25       1.0  0.7990022072696165  0.5807306269243283  0.9575927139016971  1.0000
  H   H26       1.0  0.20100919350036153  0.4192717656731729  0.04240231997757599  1.0000
  H   H27       1.0  0.3981249080077235  0.6553436622822845  0.9925041328411411  1.0000
  H   H28       1.0  0.6018854274759348  0.34464942344616384  0.007494094114633819  1.0000
  H   H29       1.0  0.4949565710818504  0.5966939232625278  0.11393110668443285  1.0000
  H   H30       1.0  0.5050520939834727  0.4033095909555938  0.8860689179018096  1.0000
  C   C1        1.0  0.26909544163495985  0.8681223822254792  0.30197853349827153  1.0000
  C   C2        1.0  0.7309023949618665  0.13188459314292794  0.6980270149900819  1.0000
  C   C3        1.0  0.13018565012710331  0.7871998308773339  0.28313275869276583  1.0000
  C   C4        1.0  0.8698070919658464  0.21279903693442748  0.7168730846339602  1.0000
  C   C5        1.0  0.11774470660871121  0.6262754090825667  0.3133963980426061  1.0000
  C   C6        1.0  0.8822532931424405  0.3737269584270777  0.6866056490688452  1.0000
  C   C7        1.0  0.2502601391027427  0.5567085295092652  0.3653315381831845  1.0000
  C   C8        1.0  0.7497432569404199  0.44329268762866275  0.634667732529934  1.0000
  C   C9        1.0  0.38603709646982765  0.64787112452111  0.3807978046052938  1.0000
  C   C10       1.0  0.6139648901545485  0.35213241514283306  0.6192016575225737  1.0000
  C   C11       1.0  0.8872372707129587  0.14102197348717738  0.3719213186455336  1.0000
  C   C12       1.0  0.11276217924555716  0.8589769195317627  0.6280796617069484  1.0000
  C   C13       1.0  0.9713872961793941  0.2813412066506443  0.3647058666774611  1.0000
  C   C14       1.0  0.028614833982885602  0.7186576913858643  0.635293711028588  1.0000
  C   C15       1.0  0.9156247463630438  0.408318345043888  0.29870770490538234  1.0000
  C   C16       1.0  0.08437605595761971  0.5916805715892578  0.7012903135269613  1.0000
  C   C17       1.0  0.77768484960464  0.3826865995949476  0.24118137645226068  1.0000
  C   C18       1.0  0.22232404057575653  0.617309969066369  0.758817013023709  1.0000
  C   C19       1.0  0.7032347779899482  0.238905359156277  0.2521355733237058  1.0000
  C   C20       1.0  0.29677014493363896  0.7610900711194047  0.7478617841807707  1.0000
  C   C21       1.0  0.7095665220040602  0.8438675374743311  0.09796829861836906  1.0000
  C   C22       1.0  0.2904356032541245  0.15613135212001336  0.9020321833264475  1.0000
  C   C23       1.0  0.7113650461205908  0.8213080328528476  0.9624372283860442  1.0000
  C   C24       1.0  0.28863567952700464  0.17869319615184048  0.03756163649597974  1.0000
  C   C25       1.0  0.688086900847054  0.6513662006731592  0.9373423113172806  1.0000
  C   C26       1.0  0.31191916068755904  0.3486349961558444  0.0626582694657145  1.0000
  C   C27       1.0  0.509623361569318  0.5851381855653414  0.012892472066617693  1.0000
  C   C28       1.0  0.490388179390223  0.4148583374605435  0.987109940195552  1.0000
  N   N1        1.0  0.3980408274587717  0.800197971279303  0.34962399812378936  1.0000
  N   N2        1.0  0.6019558297384435  0.19980438950047127  0.6503792024302584  1.0000
  N   N3        1.0  0.9775542874002384  0.5568026868090427  0.28543696467193075  1.0000
  N   N4        1.0  0.0224491656995696  0.4431961841886788  0.7145650765465917  1.0000
  N   N5        1.0  0.75567814124382  0.11789113868222499  0.3173060003141758  1.0000
  N   N6        1.0  0.24432536245276998  0.8821065972351362  0.6826933570825845  1.0000
  Cl  Cl1       1.0  0.6709582637515795  0.8299203912397388  0.5149292660813103  1.0000
  Cl  Cl2       1.0  0.32903712110490363  0.1700808614984766  0.48506878713849505  1.0000
  O   O1        1.0  0.6142189579211673  0.9591299950927231  0.15311983630581957  1.0000
  O   O2        1.0  0.3857844691023615  0.04087005319618699  0.8468803675406208  1.0000
  O   O3        1.0  0.7964053150160667  0.7510276712862662  0.15219103747168827  1.0000
  O   O4        1.0  0.20359409905797318  0.24897238213953438  0.8478099139862465  1.0000
