data_image0
_chemical_formula_structural       Zn4H32C56Cl8O16
_chemical_formula_sum              "Zn4 H32 C56 Cl8 O16"
_cell_length_a       7.140547691420805
_cell_length_b       10.347059753
_cell_length_c       19.091
_cell_angle_alpha    90.0
_cell_angle_beta     95.70267390851552
_cell_angle_gamma    90.0

_space_group_name_H-M_alt    "P 1"
_space_group_IT_number       1

loop_
  _space_group_symop_operation_xyz
  'x, y, z'

loop_
  _atom_site_type_symbol
  _atom_site_label
  _atom_site_symmetry_multiplicity
  _atom_site_fract_x
  _atom_site_fract_y
  _atom_site_fract_z
  _atom_site_occupancy
  Zn  Zn1       1.0  0.750073680313406  0.9616200386892686  0.512776126358972  1.0000
  Zn  Zn2       1.0  0.249923695133127  0.4616267919604057  0.9872273903663569  1.0000
  Zn  Zn3       1.0  0.2499321396423539  0.0383886833054063  0.4872303232469903  1.0000
  Zn  Zn4       1.0  0.7500708654769994  0.5383867623249046  0.012769736059453902  1.0000
  H   H1        1.0  0.9150610942058819  0.2133040740738039  0.21184916364312306  1.0000
  H   H2        1.0  0.0849517628409018  0.7133040860095649  0.2881544046585702  1.0000
  H   H3        1.0  0.08493065156782359  0.7866727548026375  0.7881457629394077  1.0000
  H   H4        1.0  0.9150582793694753  0.2866737093250081  0.711851154256074  1.0000
  H   H5        1.0  0.6456854720644074  0.5890185371968073  0.5987220453254594  1.0000
  H   H6        1.0  0.3543104959639151  0.089020458177302  0.9012798476711978  1.0000
  H   H7        1.0  0.3543527185100643  0.41099308417224734  0.40128770258298363  1.0000
  H   H8        1.0  0.6456531014456957  0.9109901967336215  0.0987135089526845  1.0000
  H   H9        1.0  0.6591403901021664  0.3483124758175933  0.1540882731050672  1.0000
  H   H10       1.0  0.3408823188720547  0.8482960579651719  0.3459182803848364  1.0000
  H   H11       1.0  0.3408485408351396  0.6516662859751037  0.8459044536341835  1.0000
  H   H12       1.0  0.6591277233383224  0.151674005704372  0.6540935642141577  1.0000
  H   H13       1.0  0.9473388233144533  0.6895398470982457  0.6461827231662838  1.0000
  H   H14       1.0  0.0526669966413067  0.1895446674531271  0.853819012176416  1.0000
  H   H15       1.0  0.0526979598418151  0.3104737071870645  0.3538191153291379  1.0000
  H   H16       1.0  0.9473078601139449  0.810465020999672  0.14617423910108585  1.0000
  H   H17       1.0  0.3444402720937489  0.3533825151574916  0.20226286531970322  1.0000
  H   H18       1.0  0.655590881389692  0.8533554662656614  0.297745573436778  1.0000
  H   H19       1.0  0.6555556959345736  0.6466039783002273  0.7977337896066601  1.0000
  H   H20       1.0  0.3444219756570917  0.1466194296945247  0.7022621853211461  1.0000
  H   H21       1.0  0.2495465070542409  0.5688185958618419  0.6432413432299883  1.0000
  H   H22       1.0  0.7504508683922921  0.0688234162167234  0.8567595544601901  1.0000
  H   H23       1.0  0.7504860538474105  0.431190126132833  0.35675929072863255  1.0000
  H   H24       1.0  0.2495225809447632  0.9311785405710538  0.1432320730886332  1.0000
  H   H25       1.0  0.2993747411764929  0.225835170162469  0.3100254078221241  1.0000
  H   H26       1.0  0.7006367084520801  0.7258177858519232  0.1899770605579221  1.0000
  H   H27       1.0  0.7006170045972198  0.7741571220440236  0.6899705663744629  1.0000
  H   H28       1.0  0.2993634818308593  0.2741803051033358  0.8100239417474171  1.0000
  H   H29       1.0  0.2447950631948856  0.3490643802412379  0.590365575213113  1.0000
  H   H30       1.0  0.7552037196698506  0.8490711573838895  0.9096317081354358  1.0000
  H   H31       1.0  0.7552262383611321  0.6509385430046635  0.4096367355129686  1.0000
  H   H32       1.0  0.2447767667582212  0.1509307994038807  0.0903601809512935  1.0000
  C   C1        1.0  0.7517865082686299  0.1439752002561008  0.2927193090684241  1.0000
  C   C2        1.0  0.24822353394174707  0.643969413443088  0.207284154618101  1.0000
  C   C3        1.0  0.2482038300868794  0.8560180584085231  0.7072792318557293  1.0000
  C   C4        1.0  0.7517851008504266  0.3560209458471491  0.7927187329538158  1.0000
  C   C5        1.0  0.7759800272089095  0.4117962108766804  0.5696736856490219  1.0000
  C   C6        1.0  0.2240145334012169  0.9117971892705654  0.9303239645838133  1.0000
  C   C7        1.0  0.224039866928905  0.5882134775761187  0.43033590606789573  1.0000
  C   C8        1.0  0.7759673604450654  0.0882134656403579  0.069665881582381  1.0000
  C   C9        1.0  0.7793254602816829  0.2175825842068093  0.2332163854438321  1.0000
  C   C10       1.0  0.2206859893468973  0.717578730310052  0.2667871305502771  1.0000
  C   C11       1.0  0.2206592484010059  0.7823961775858876  0.7667803748289117  1.0000
  C   C12       1.0  0.7793198306088627  0.2824096960639224  0.7332151285994472  1.0000
  C   C13       1.0  0.7771608510827193  0.535869138901262  0.5983671971875708  1.0000
  C   C14       1.0  0.2228379317820171  0.0358729927980121  0.9016337528101916  1.0000
  C   C15       1.0  0.2228745246553387  0.4641328178865081  0.40164087468462384  1.0000
  C   C16       1.0  0.7771284804640146  0.9641318633641448  0.09835761320073293  1.0000
  C   C17       1.0  0.6345612385737809  0.2937829753151533  0.2010758787409799  1.0000
  C   C18       1.0  0.3654628778186435  0.7937675239208631  0.2989286318283888  1.0000
  C   C19       1.0  0.3654319146181422  0.706196752935675  0.7989170049210161  1.0000
  C   C20       1.0  0.6345457569735231  0.20621123787184104  0.7010784461997659  1.0000
  C   C21       1.0  0.9471994889121831  0.5918744209652758  0.6249518362667389  1.0000
  C   C22       1.0  0.052802108788967  0.09188504006893082  0.8750497421532089  1.0000
  C   C23       1.0  0.05283025715306169  0.4081372004037789  0.37505078830483285  1.0000
  C   C24       1.0  0.947174155384495  0.9081227154676128  0.12494513285295743  1.0000
  C   C25       1.0  0.4596599708467863  0.2962387454185986  0.227989737544128  1.0000
  C   C26       1.0  0.5403627381274347  0.7962213611080529  0.2720183873668632  1.0000
  C   C27       1.0  0.5403289600905197  0.7037400163740984  0.7720045606162103  1.0000
  C   C28       1.0  0.4596473040829423  0.20376030005903092  0.7279897905829245  1.0000
  C   C29       1.0  0.1164019300450505  0.5251201916007702  0.622690825259177  1.0000
  C   C30       1.0  0.8835870008922483  0.0251308107044252  0.8773092347784868  1.0000
  C   C31       1.0  0.8836264086019838  0.4748894968520219  0.3773065089345238  1.0000
  C   C32       1.0  0.1163822261901828  0.9748798442064981  0.12268747391789252  1.0000
  C   C33       1.0  0.4340238482466034  0.22511419239892663  0.28794890299212034  1.0000
  C   C34       1.0  0.565991823636594  0.725097774546505  0.2120573889598774  1.0000
  C   C35       1.0  0.5659608604360855  0.7748752004331863  0.7120478572806235  1.0000
  C   C36       1.0  0.4340196259919864  0.274888718911221  0.7879476984553193  1.0000
  C   C37       1.0  0.11426265437377478  0.4021383948027903  0.5931974578018497  1.0000
  C   C38       1.0  0.8857319062363443  0.9021393731966755  0.9068012400450484  1.0000
  C   C39       1.0  0.8857600546004392  0.5978790253150308  0.4068043814247844  1.0000
  C   C40       1.0  0.1142499876099379  0.097871281714248  0.0931938441914468  1.0000
  C   C41       1.0  0.5784531044217687  0.14883358526594753  0.3225142345988843  1.0000
  C   C42       1.0  0.42155693778860837  0.6488239326204237  0.1774908005087354  1.0000
  C   C43       1.0  0.421542863606561  0.8511596733986693  0.6774871345907414  1.0000
  C   C44       1.0  0.5784474747489483  0.351165460211682  0.8225108825263804  1.0000
  C   C45       1.0  0.9448012482912276  0.3430317486057746  0.5668793612120312  1.0000
  C   C46       1.0  0.0551961271553054  0.8430356263740394  0.9331173460219163  1.0000
  C   C47       1.0  0.0552228681011968  0.6569740740145136  0.4331246255503133  1.0000
  C   C48       1.0  0.9447815444363599  0.1569711627043731  0.066876533677771  1.0000
  C   C49       1.0  0.5374043450609705  0.0831714535861749  0.3890358790815966  1.0000
  C   C50       1.0  0.4626099194040164  0.5831733984381842  0.1109682653347051  1.0000
  C   C51       1.0  0.46257895620350803  0.9168314696597264  0.6109692097960393  1.0000
  C   C52       1.0  0.5374071598973842  0.4168362900146079  0.8890312694334951  1.0000
  C   C53       1.0  0.9548685107100567  0.2092304530639524  0.5383791786462524  1.0000
  C   C54       1.0  0.0451288647364692  0.7092304649997133  0.9616164809736318  1.0000
  C   C55       1.0  0.0451443463367269  0.7907792353888397  0.46162648488355273  1.0000
  C   C56       1.0  0.9548530291098061  0.2907821228274656  0.0383786032628564  1.0000
  Cl  Cl1       1.0  0.9414178149269148  0.05026355432510601  0.32607580749082393  1.0000
  Cl  Cl2       1.0  0.0585851901924315  0.5502664656352465  0.1739232042015644  1.0000
  Cl  Cl3       1.0  0.0585753382650012  0.9497316372557734  0.6739275523117599  1.0000
  Cl  Cl4       1.0  0.9414206297633285  0.4497277594875015  0.8260759121059849  1.0000
  Cl  Cl5       1.0  0.5640397345865509  0.3475818334727663  0.5339810669342313  1.0000
  Cl  Cl6       1.0  0.435957640859982  0.8475837783247826  0.9660145926856529  1.0000
  Cl  Cl7       1.0  0.4359703076238191  0.6524278549800329  0.46603444431396923  1.0000
  Cl  Cl8       1.0  0.5640341049137305  0.15243364179303853  0.033972476791440394  1.0000
  O   O1        1.0  0.6487691253510945  0.9954779662902382  0.41518728766126867  1.0000
  O   O2        1.0  0.3512310649318451  0.4954769878963532  0.0848126670300147  1.0000
  O   O3        1.0  0.3512141759133911  0.0045268898719186  0.5848193726374546  1.0000
  O   O4        1.0  0.6487705327692979  0.5045259353495481  0.9151821018985514  1.0000
  O   O5        1.0  0.8315153421515689  0.1276575212216216  0.5541576789692257  1.0000
  O   O6        1.0  0.1684834407131675  0.6276594660736379  0.9458411758004176  1.0000
  O   O7        1.0  0.1684862555495812  0.8723531336893018  0.445847042292904  1.0000
  O   O8        1.0  0.8315139347333655  0.3723511888372855  0.05415762666164169  1.0000
  O   O9        1.0  0.3892482454795356  0.12036269527088451  0.4156116975730342  1.0000
  O   O10       1.0  0.6107547596398177  0.6203627072066453  0.0843904569615219  1.0000
  O   O11       1.0  0.610743500294177  0.8796469931819075  0.5843895146938466  1.0000
  O   O12       1.0  0.3892383935520982  0.3796508470786648  0.9156081885777922  1.0000
  O   O13       1.0  0.0899748384137808  0.1865660435023884  0.5016106938937172  1.0000
  O   O14       1.0  0.9100225370327519  0.6865660554381421  0.9983833943050797  1.0000
  O   O15       1.0  0.9100323889601825  0.8134378462016372  0.4983931889846787  1.0000
  O   O16       1.0  0.0899692087409605  0.3134455659309054  0.0016115322774510007  1.0000
