data_image0
_chemical_formula_structural       Al2H9C16S2NO12
_chemical_formula_sum              "Al2 H9 C16 S2 N1 O12"
_cell_length_a       6.709643084613036
_cell_length_b       11.224876320232376
_cell_length_c       12.734718247408313
_cell_angle_alpha    74.94888650066515
_cell_angle_beta     74.44217675675459
_cell_angle_gamma    71.45170887354807

_space_group_name_H-M_alt    "P 1"
_space_group_IT_number       1

loop_
  _space_group_symop_operation_xyz
  'x, y, z'

loop_
  _atom_site_type_symbol
  _atom_site_label
  _atom_site_symmetry_multiplicity
  _atom_site_fract_x
  _atom_site_fract_y
  _atom_site_fract_z
  _atom_site_occupancy
  Al  Al1       1.0  0.5000457429020531  0.4996914079577762  0.501042887443738  1.0000
  Al  Al2       1.0  0.0013764558275539615  0.49734708697666014  0.5040104653596131  1.0000
  H   H1        1.0  0.25386887223677956  0.6068417473202173  0.3745422327866664  1.0000
  H   H2        1.0  0.7693371845006711  0.3558627451237014  0.6064987906946586  1.0000
  H   H3        1.0  0.7578725904294644  0.10708864179493817  0.5209346591487504  1.0000
  H   H4        1.0  0.2520179173624725  0.8896520606043976  0.4781532363672982  1.0000
  H   H5        1.0  0.6547736623249137  0.44125754880389667  0.1609556407493073  1.0000
  H   H6        1.0  0.9343080746593204  0.7739302110039998  0.5311729160392886  1.0000
  H   H7        1.0  0.07852188453146176  0.22313101979116812  0.4665318298225999  1.0000
  H   H8        1.0  0.4815105568140865  0.5704024377546872  0.8846638254785406  1.0000
  H   H9        1.0  0.4650386356670993  0.5535612539664355  0.7558988934649521  1.0000
  C   C1        1.0  0.8385478883580006  0.5131314175741295  0.30421603847889866  1.0000
  C   C2        1.0  0.635891467753744  0.726654571856649  0.5039601112803141  1.0000
  C   C3        1.0  0.1652989762072892  0.4819686159133951  0.7007097254933967  1.0000
  C   C4        1.0  0.3707751693060217  0.2696019887190814  0.4985580494693168  1.0000
  C   C5        1.0  0.5703190781714513  0.8656338629211007  0.5024634507571764  1.0000
  C   C6        1.0  0.4390341323466558  0.1311281762618108  0.4972607301032285  1.0000
  C   C7        1.0  0.7142868866585561  0.9282199207419025  0.515622499767787  1.0000
  C   C8        1.0  0.2959651977652912  0.06857748086117967  0.48300231264062193  1.0000
  C   C9        1.0  0.6458317704676303  0.0598837654681006  0.5125694798034673  1.0000
  C   C10       1.0  0.3640036892850704  0.9369385516350303  0.48645266049336305  1.0000
  C   C11       1.0  0.21398232493325517  0.5217983494594023  0.8785360664286516  1.0000
  C   C12       1.0  0.8037953208184874  0.46878614833070736  0.12486028196875767  1.0000
  C   C13       1.0  0.10533064184090785  0.483661296829304  0.8177296302377357  1.0000
  C   C14       1.0  0.9077610699095615  0.5062734760947905  0.1859380234273474  1.0000
  C   C15       1.0  0.9165766152052015  0.471866020065846  0.013917938851186381  1.0000
  C   C16       1.0  0.10299647847283214  0.5134570344885744  0.9917274253468168  1.0000
  S   S1        1.0  0.8750466367566787  0.4390063463002035  0.897672686861256  1.0000
  S   S2        1.0  0.14239438643460295  0.5456333569709172  0.10863739635172465  1.0000
  N   N1        1.0  0.39049104898595766  0.5657479780581055  0.8347422938791385  1.0000
  O   O1        1.0  0.6511426138455364  0.4997397997047698  0.35065749802723206  1.0000
  O   O2        1.0  0.8270603673311215  0.6650681586577462  0.5212642864810278  1.0000
  O   O3        1.0  0.03537697336847867  0.4607425340342103  0.6541521987619278  1.0000
  O   O4        1.0  0.4981767424200428  0.3231562310155169  0.5143888694848472  1.0000
  O   O5        1.0  0.34886644691892604  0.5021573435709143  0.6496016525752568  1.0000
  O   O6        1.0  0.17670636397813413  0.3296650627550263  0.4846688968113427  1.0000
  O   O7        1.0  0.9698923714875107  0.5319835494298812  0.3507786142870304  1.0000
  O   O8        1.0  0.508179938237255  0.6737503607830035  0.48770446918643284  1.0000
  O   O9        1.0  0.24090699389739004  0.5633722361999034  0.45154773809017723  1.0000
  O   O10       1.0  0.7595775424608817  0.43404924680434215  0.5511492334541118  1.0000
  O   O11       1.0  0.9161705537255856  0.8655466137620137  0.5314231649177685  1.0000
  O   O12       1.0  0.09483660320726987  0.13179527223170598  0.4657905334781774  1.0000
