data_image0
_chemical_formula_structural       Zn2H30C32N2Cl2O10
_chemical_formula_sum              "Zn2 H30 C32 N2 Cl2 O10"
_cell_length_a       5.661044177079549
_cell_length_b       10.324372690023987
_cell_length_c       14.173274223816488
_cell_angle_alpha    96.97445167665745
_cell_angle_beta     99.76183288394873
_cell_angle_gamma    101.7818270948853

_space_group_name_H-M_alt    "P 1"
_space_group_IT_number       1

loop_
  _space_group_symop_operation_xyz
  'x, y, z'

loop_
  _atom_site_type_symbol
  _atom_site_label
  _atom_site_symmetry_multiplicity
  _atom_site_fract_x
  _atom_site_fract_y
  _atom_site_fract_z
  _atom_site_occupancy
  Zn  Zn1       1.0  0.1849586170480535  0.6592469546213165  0.34969103128980805  1.0000
  Zn  Zn2       1.0  0.8150293446017614  0.34075958750197083  0.6503132233218878  1.0000
  H   H1        1.0  0.7196812732924089  0.7341281613585409  0.2625896527993632  1.0000
  H   H2        1.0  0.28028771320692414  0.2658798487070939  0.7374126278171715  1.0000
  H   H3        1.0  0.4172606438780166  0.6734468231028572  0.1083993197230129  1.0000
  H   H4        1.0  0.5827206163716242  0.3265639568453054  0.8916005816815726  1.0000
  H   H5        1.0  0.8136688638492658  0.377358843269576  0.01883752280638621  1.0000
  H   H6        1.0  0.1863354912162266  0.6226554182780006  0.9811686215404195  1.0000
  H   H7        1.0  0.09433938634826693  0.44722696162256886  0.1784543855200198  1.0000
  H   H8        1.0  0.9056523651210144  0.5527906519699286  0.8215490094299938  1.0000
  H   H9        1.0  0.15308680957964071  0.17375487488336458  0.3859975988782267  1.0000
  H   H10       1.0  0.8468998269292457  0.8262264294045353  0.6139923327966059  1.0000
  H   H11       1.0  0.5244529559969494  0.2713175021493798  0.1962428821045705  1.0000
  H   H12       1.0  0.47557062480335344  0.7286922407455166  0.8037656908445143  1.0000
  H   H13       1.0  0.3310679778901431  0.24710427687634248  0.023230365258697788  1.0000
  H   H14       1.0  0.6689869245592205  0.7529179030637038  0.9767809083993341  1.0000
  H   H15       1.0  0.6356124969734297  0.052908917926416214  0.0827692903784794  1.0000
  H   H16       1.0  0.364429491875754  0.9470853363229426  0.9172131619766191  1.0000
  H   H17       1.0  0.8362376617887933  0.06817958211095741  0.2549036083511993  1.0000
  H   H18       1.0  0.1637744894909617  0.9318092620050111  0.7450825184847216  1.0000
  H   H19       1.0  0.6311147377225481  0.3495358353167006  0.350289184558754  1.0000
  H   H20       1.0  0.3688882821300084  0.6504692785753933  0.6497259322624346  1.0000
  H   H21       1.0  0.5759309182676233  0.0706795013709751  0.3182204077998563  1.0000
  H   H22       1.0  0.42407187996995105  0.9293165981598649  0.6817762554314584  1.0000
  H   H23       1.0  0.5571262638993062  0.32681675130633187  0.46324671052497723  1.0000
  H   H24       1.0  0.442827594603564  0.6731692294212124  0.5367680335194009  1.0000
  H   H25       1.0  0.5492901434972666  0.09981467648215407  0.4397226650963617  1.0000
  H   H26       1.0  0.4507329554472578  0.9001931244523362  0.5602729993166591  1.0000
  H   H27       1.0  0.9424837783936725  0.6614321327972732  0.5020934598356206  1.0000
  H   H28       1.0  0.05746446386665844  0.3385409278389488  0.4978985599445735  1.0000
  H   H29       1.0  0.9811993770726349  0.7970100196171404  0.4442721901843214  1.0000
  H   H30       1.0  0.018736305899466333  0.20296023695854612  0.555729241131985  1.0000
  C   C1        1.0  0.7317369579768781  0.6542732716080123  0.206928800465441  1.0000
  C   C2        1.0  0.2682380352772143  0.34573965959931746  0.7930750630720168  1.0000
  C   C3        1.0  0.5630958830224984  0.6192952983182067  0.11938876750792819  1.0000
  C   C4        1.0  0.43688555180654026  0.38070839897570613  0.8806076985401035  1.0000
  C   C5        1.0  0.5861633504431366  0.5189370505971879  0.04758854168817809  1.0000
  C   C6        1.0  0.4138272435357777  0.48107451731716105  0.9524128226428488  1.0000
  C   C7        1.0  0.7822443297200153  0.45632381647114784  0.06993660466643091  1.0000
  C   C8        1.0  0.2177513641076274  0.5436835761964074  0.9300647665736576  1.0000
  C   C9        1.0  0.9417320124587009  0.4950009318897912  0.15933695920210056  1.0000
  C   C10       1.0  0.05824794427496027  0.5050108884522758  0.8406636437076358  1.0000
  C   C11       1.0  0.3369178359531587  0.4369750282421306  0.385300651192189  1.0000
  C   C12       1.0  0.663053545317517  0.5630126456806791  0.6147014206883554  1.0000
  C   C13       1.0  0.4757372826705435  0.3266097822454411  0.3871634804723243  1.0000
  C   C14       1.0  0.5242455570900333  0.6733867253847236  0.612843038538628  1.0000
  C   C15       1.0  0.273746070087782  0.9380392493849217  0.3556622072571898  1.0000
  C   C16       1.0  0.7262498997348247  0.06195491135853361  0.6443464830944166  1.0000
  C   C17       1.0  0.44143461956930713  0.0762480489015758  0.364846227766364  1.0000
  C   C18       1.0  0.5585788951750955  0.9237447269844167  0.6351558708878642  1.0000
  C   C19       1.0  0.3048276877884605  0.187647707027331  0.3462319095950406  1.0000
  C   C20       1.0  0.6951708194609765  0.8123434224549373  0.6537647040837342  1.0000
  C   C21       1.0  0.19108122233287622  0.17533311921349792  0.2396741165165182  1.0000
  C   C22       1.0  0.8089490317293625  0.8246603139493445  0.760322217121761  1.0000
  C   C23       1.0  0.32915706131474565  0.22350981264628444  0.1726998393789643  1.0000
  C   C24       1.0  0.6708652541798231  0.7764969523697829  0.8273027321819413  1.0000
  C   C25       1.0  0.22178772928901225  0.21144474770095914  0.07493012371347871  1.0000
  C   C26       1.0  0.7782749942562007  0.788571189875711  0.925076940913641  1.0000
  C   C27       1.0  0.9713167302759658  0.15260076618214677  0.04341923611766418  1.0000
  C   C28       1.0  0.028742416125951055  0.847410286790968  0.9565701981464869  1.0000
  C   C29       1.0  0.8301100806109288  0.10113293088591752  0.10767616629981089  1.0000
  C   C30       1.0  0.1699387329810164  0.8988824338012475  0.8923107706473842  1.0000
  C   C31       1.0  0.9424579910255415  0.11199803923163644  0.20471879368407286  1.0000
  C   C32       1.0  0.05755969439408683  0.8880018308644541  0.7952673036261259  1.0000
  N   N1        1.0  0.9187110017161475  0.5931318812900203  0.2266514564640971  1.0000
  N   N2        1.0  0.08127826984944876  0.4068767019099014  0.7733453129435831  1.0000
  Cl  Cl1       1.0  0.8350069105379988  0.1439590556322443  0.9221339811510206  1.0000
  Cl  Cl2       1.0  0.1650658573246844  0.8560648585166817  0.07785618155416776  1.0000
  O   O1        1.0  0.41155698846053224  0.5362175584406899  0.341811647107626  1.0000
  O   O2        1.0  0.5884124675105158  0.4637741621549269  0.6581998136923772  1.0000
  O   O3        1.0  0.15248034848220018  0.4318727143960642  0.4251076620033913  1.0000
  O   O4        1.0  0.8474777981677236  0.5681132710517289  0.5748890518052434  1.0000
  O   O5        1.0  0.058682004553148315  0.9271496150791164  0.3706940634161525  1.0000
  O   O6        1.0  0.9413020787747329  0.0728408799932296  0.629295080766191  1.0000
  O   O7        1.0  0.37504993745046294  0.8382920100413359  0.3362036044238295  1.0000
  O   O8        1.0  0.6249786732913591  0.16170738783011276  0.6638199492968866  1.0000
  O   O9        1.0  0.03951109859642092  0.7172224009834238  0.46116380078717606  1.0000
  O   O10       1.0  0.9604351487591601  0.2827537558521982  0.5388269342499328  1.0000
