data_image0
_chemical_formula_structural       Cu2H30C26N6O10
_chemical_formula_sum              "Cu2 H30 C26 N6 O10"
_cell_length_a       8.004043154040508
_cell_length_b       9.071712879809407
_cell_length_c       10.363159944652445
_cell_angle_alpha    105.02878506019529
_cell_angle_beta     89.99976255131725
_cell_angle_gamma    90.00033554328957

_space_group_name_H-M_alt    "P 1"
_space_group_IT_number       1

loop_
  _space_group_symop_operation_xyz
  'x, y, z'

loop_
  _atom_site_type_symbol
  _atom_site_label
  _atom_site_symmetry_multiplicity
  _atom_site_fract_x
  _atom_site_fract_y
  _atom_site_fract_z
  _atom_site_occupancy
  Cu  Cu1       1.0  0.4812721507548331  0.3896174738942548  0.3298221786153235  1.0000
  Cu  Cu2       1.0  0.5187255797778859  0.3896221273094865  0.8298203164180649  1.0000
  H   H1        1.0  0.3221907047285982  0.35790325596749273  0.0565051903239748  1.0000
  H   H2        1.0  0.6778133328137984  0.3578982687838206  0.5565112023523184  1.0000
  H   H3        1.0  0.2700445958624015  0.4811850378875348  0.1911688381701921  1.0000
  H   H4        1.0  0.7299632633542855  0.48118828430826  0.6911756413853638  1.0000
  H   H5        1.0  0.6676382709314622  0.21547166102205748  0.010127735149716002  1.0000
  H   H6        1.0  0.3323563282290323  0.21545838275428508  0.5101184146117959  1.0000
  H   H7        1.0  0.753810685217118  0.9433381351835232  0.9854359331367705  1.0000
  H   H8        1.0  0.2461948735544439  0.9433256257983229  0.4854299409103718  1.0000
  H   H9        1.0  0.7557934560579935  0.7613435900025392  0.758902035066413  1.0000
  H   H10       1.0  0.24421089919241717  0.7613390771794073  0.25889598208170383  1.0000
  H   H11       1.0  0.5718947216484052  0.1306552652785555  0.6042148512974918  1.0000
  H   H12       1.0  0.42810628372522797  0.1306469713423297  0.10421313564960143  1.0000
  H   H13       1.0  0.5308597586294679  0.6424015599458883  0.5722830585209948  1.0000
  H   H14       1.0  0.46914234252326986  0.6423958315479013  0.07227023326704092  1.0000
  H   H15       1.0  0.7811185974345706  0.9917339185538196  0.42812318462020477  1.0000
  H   H16       1.0  0.21888385540643898  0.9917338224840005  0.9281172879991786  1.0000
  H   H17       1.0  0.6745492279404032  0.5636341733025674  0.17643978972694196  1.0000
  H   H18       1.0  0.325446770079786  0.5636311519633778  0.6764309503654006  1.0000
  H   H19       1.0  0.9086651607231955  0.5953410964425883  0.4825170269798633  1.0000
  H   H20       1.0  0.09133309337391181  0.5953425679916721  0.9825282967289367  1.0000
  H   H21       1.0  0.06535878741945568  0.6740543283705945  0.6040462023301956  1.0000
  H   H22       1.0  0.9346296051743577  0.6740516956154464  0.1040509859949239  1.0000
  H   H23       1.0  0.011330525781048099  0.4801027812814382  0.575104925316893  1.0000
  H   H24       1.0  0.9886567329699856  0.4801004093579308  0.07510767184894007  1.0000
  H   H25       1.0  0.9128532333989056  0.0334639411970272  0.18947581331798352  1.0000
  H   H26       1.0  0.0871466485316574  0.033466672590321885  0.6894709849265155  1.0000
  H   H27       1.0  0.0477518537044048  0.1669566711870374  0.2946376678308127  1.0000
  H   H28       1.0  0.9522458354082274  0.16695643972345658  0.7946333200020917  1.0000
  H   H29       1.0  0.9725450111505936  0.20199787079494055  0.1418085094973591  1.0000
  H   H30       1.0  0.027455011967816696  0.20200031570767857  0.6418057298688779  1.0000
  C   C1        1.0  0.6646732226316914  0.13114258805659768  0.9133990676671643  1.0000
  C   C2        1.0  0.33532606501202616  0.13112819962990588  0.41339236059702955  1.0000
  C   C3        1.0  0.7138887275228782  0.980233164036932  0.8982574454547958  1.0000
  C   C4        1.0  0.28610381978970884  0.9802219929161996  0.39824971098236267  1.0000
  C   C5        1.0  0.7134152303199527  0.8787348631981685  0.7716642934073619  1.0000
  C   C6        1.0  0.28658983766187873  0.8787248517612766  0.27165489766496626  1.0000
  C   C7        1.0  0.664094390371872  0.9318664159693955  0.6617258407057564  1.0000
  C   C8        1.0  0.3359103949113872  0.931855470365072  0.16171800397456346  1.0000
  C   C9        1.0  0.613925597971253  0.08418552723287578  0.6854879737201074  1.0000
  C   C10       1.0  0.38606964728673887  0.0841747845324434  0.1854829232743569  1.0000
  C   C11       1.0  0.5897528573903796  0.687545944215536  0.49607111691700123  1.0000
  C   C12       1.0  0.410250934373309  0.6875387091858867  0.9960648921808399  1.0000
  C   C13       1.0  0.6620754608769629  0.8324146785447651  0.5244234411086524  1.0000
  C   C14       1.0  0.3379306740410398  0.8324071903610459  0.024413508666690138  1.0000
  C   C15       1.0  0.7290907952342209  0.87714776235633  0.41520691992868564  1.0000
  C   C16       1.0  0.27090971506941486  0.8771421951912828  0.9151995869323813  1.0000
  C   C17       1.0  0.6677414135041246  0.6442362644819681  0.27494132673751187  1.0000
  C   C18       1.0  0.33226581869927674  0.6442309913193043  0.7749319415675018  1.0000
  C   C19       1.0  0.1595287385557072  0.5330137260321237  0.41903500245143027  1.0000
  C   C20       1.0  0.8404669540458868  0.5330152225531393  0.9190371945435203  1.0000
  C   C21       1.0  0.027020541623180294  0.5725632562342965  0.5260232448516078  1.0000
  C   C22       1.0  0.9729713557615441  0.5725642292004524  0.026027784420186603  1.0000
  C   C23       1.0  0.7908190127437821  0.23443305678152626  0.3034228026648337  1.0000
  C   C24       1.0  0.2091790779835847  0.23443516710668896  0.8034213101724604  1.0000
  C   C25       1.0  0.9411717269533141  0.15597452726576927  0.22669152241635263  1.0000
  C   C26       1.0  0.0588300151529708  0.1559771304257964  0.7266867521713181  1.0000
  N   N1        1.0  0.6131809539202777  0.180173352743644  0.807947709147534  1.0000
  N   N2        1.0  0.38682174678442044  0.18016146400712063  0.3079433543530214  1.0000
  N   N3        1.0  0.5923678216144451  0.5948783948183731  0.37205547241669024  1.0000
  N   N4        1.0  0.4076347923764486  0.594871172203348  0.8720463637604894  1.0000
  N   N5        1.0  0.7326102984470566  0.783565213753846  0.29148085261837764  1.0000
  N   N6        1.0  0.26739652256688357  0.7835618971701875  0.7914759848542446  1.0000
  O   O1        1.0  0.2942428609769506  0.4733444454596806  0.4529874152810933  1.0000
  O   O2        1.0  0.7057484961697041  0.47334994580401707  0.9529851690500521  1.0000
  O   O3        1.0  0.13440308754443459  0.5597638361696651  0.3072433658879845  1.0000
  O   O4        1.0  0.8656034008483503  0.5597631476441193  0.8072469007525812  1.0000
  O   O5        1.0  0.6886510415634675  0.2968381326521339  0.2368824686600348  1.0000
  O   O6        1.0  0.3113540830264511  0.29683160728622227  0.7368747867122353  1.0000
  O   O7        1.0  0.7713859903206313  0.23155230827883594  0.4234225326698748  1.0000
  O   O8        1.0  0.2286039170656906  0.23156709365699862  0.9234200728939399  1.0000
  O   O9        1.0  0.36865474984168856  0.43266074881086064  0.1362019765589011  1.0000
  O   O10       1.0  0.6313555900805382  0.432658999508682  0.636205992424884  1.0000
