data_image0
_chemical_formula_structural       Cu12H36C84N24
_chemical_formula_sum              "Cu12 H36 C84 N24"
_cell_length_a       28.64745405629543
_cell_length_b       28.679904142889963
_cell_length_c       28.64874256983172
_cell_angle_alpha    90.0336619168464
_cell_angle_beta     89.9771928633324
_cell_angle_gamma    89.88873760075366

_space_group_name_H-M_alt    "P 1"
_space_group_IT_number       1

loop_
  _space_group_symop_operation_xyz
  'x, y, z'

loop_
  _atom_site_type_symbol
  _atom_site_label
  _atom_site_symmetry_multiplicity
  _atom_site_fract_x
  _atom_site_fract_y
  _atom_site_fract_z
  _atom_site_occupancy
  Cu  Cu1       1.0  0.37498518813243464  0.5810565510018575  0.66896435967233  1.0000
  Cu  Cu2       1.0  0.3293186663572741  0.6258111397630727  0.5787471460652469  1.0000
  Cu  Cu3       1.0  0.42068096152638657  0.6712539154953843  0.6241191168026248  1.0000
  Cu  Cu4       1.0  0.6252064270278057  0.9193551305767327  0.1691472103111522  1.0000
  Cu  Cu5       1.0  0.6708308655970043  0.8744867612545304  0.0788984032835529  1.0000
  Cu  Cu6       1.0  0.5796473232525515  0.8293604902805924  0.12432194148789931  1.0000
  Cu  Cu7       1.0  0.8748790936255163  0.41885603591199316  0.8310792388209904  1.0000
  Cu  Cu8       1.0  0.828939024287337  0.37399363002450053  0.9210063880207144  1.0000
  Cu  Cu9       1.0  0.920436738670155  0.32832623254007126  0.8756637442175474  1.0000
  Cu  Cu10      1.0  0.12472237305068032  0.0805617463493533  0.3310171720063195  1.0000
  Cu  Cu11      1.0  0.1706102677838857  0.12557405346583286  0.4211458550036795  1.0000
  Cu  Cu12      1.0  0.07893278301443732  0.17067464080411546  0.3758377772763239  1.0000
  H   H1        1.0  0.3063939005867908  0.49576939695745637  0.6863879543745242  1.0000
  H   H2        1.0  0.24369647427152333  0.5562265379911507  0.5627163704473118  1.0000
  H   H3        1.0  0.5060593762992696  0.6874279872206372  0.6936966851928688  1.0000
  H   H4        1.0  0.44356070114668006  0.5639802844227758  0.7543875328404681  1.0000
  H   H5        1.0  0.313051650695826  0.6951355156481043  0.4937206217813213  1.0000
  H   H6        1.0  0.43693438408377017  0.756177650396303  0.5550461767427208  1.0000
  H   H7        1.0  0.6936257939825197  0.0044476585367832005  0.1865114404004728  1.0000
  H   H8        1.0  0.7563725274500471  0.943762581317884  0.0627935828786903  1.0000
  H   H9        1.0  0.49400756140909163  0.813503901269719  0.19395048878461546  1.0000
  H   H10       1.0  0.5566484278939114  0.9369828927365446  0.2544752481143036  1.0000
  H   H11       1.0  0.687075863625239  0.8055807885581243  0.993611825479789  1.0000
  H   H12       1.0  0.5631483767897478  0.7445674948578895  0.055000133004256206  1.0000
  H   H13       1.0  0.8062308128916343  0.5043324164139449  0.8137260088748803  1.0000
  H   H14       1.0  0.7431952233092574  0.44369518475122754  0.9370847088469959  1.0000
  H   H15       1.0  0.006207993018492202  0.3122366985247567  0.8061507883521273  1.0000
  H   H16       1.0  0.943801923553373  0.4361689696533658  0.7459688938043456  1.0000
  H   H17       1.0  0.8123498844900895  0.30466570910124346  0.0057974982672278  1.0000
  H   H18       1.0  0.9363944699463645  0.24317839739405395  0.9446032585495345  1.0000
  H   H19       1.0  0.19357716453484392  0.995433413594469  0.3135774056075817  1.0000
  H   H20       1.0  0.256506862140931  0.05632729215140129  0.4368956976168334  1.0000
  H   H21       1.0  0.9931073994034849  0.18651745986179688  0.3062592819421326  1.0000
  H   H22       1.0  0.055985465061546315  0.0628498580430303  0.24582012399353909  1.0000
  H   H23       1.0  0.18697806588509283  0.1948306104338613  0.5060056352599105  1.0000
  H   H24       1.0  0.0626577796771741  0.25583593701241364  0.4450864127429028  1.0000
  H   H25       1.0  0.8130286034200865  0.12430074668820619  0.0641940115947435  1.0000
  H   H26       1.0  0.936293939085907  0.18528863515297184  0.1251802374322395  1.0000
  H   H27       1.0  0.8746271487895286  0.06275565084835928  0.1870261813809719  1.0000
  H   H28       1.0  0.18674070539926652  0.3754799979894656  0.5641612517092724  1.0000
  H   H29       1.0  0.06363218077709833  0.31438389602357825  0.6254077510047934  1.0000
  H   H30       1.0  0.1250756141393623  0.43693633438098084  0.6872788670853254  1.0000
  H   H31       1.0  0.3754304956078229  0.937280665560429  0.3130565408667962  1.0000
  H   H32       1.0  0.43715913375275767  0.814610997380278  0.3746986318030068  1.0000
  H   H33       1.0  0.3134036291405806  0.8754445711390912  0.4355481243067771  1.0000
  H   H34       1.0  0.68659808032497  0.6251917659102869  0.9355036613265568  1.0000
  H   H35       1.0  0.5633761547246723  0.6865016209143702  0.8744623340787498  1.0000
  H   H36       1.0  0.624541250265203  0.5631776573924936  0.8131047093118938  1.0000
  C   C1        1.0  0.2970265635917004  0.5165337947851681  0.6561594181714979  1.0000
  C   C2        1.0  0.25970621899342916  0.5104906644962525  0.6247343535438503  1.0000
  C   C3        1.0  0.264988268180396  0.5474326270924549  0.5927570011193097  1.0000
  C   C4        1.0  0.484812690791749  0.6574398029964073  0.702554112504842  1.0000
  C   C5        1.0  0.4900814974733052  0.6256025522717436  0.7396136250355596  1.0000
  C   C6        1.0  0.45288302987468404  0.5941382893328819  0.733568338310633  1.0000
  C   C7        1.0  0.343225487155614  0.7040397327579766  0.5147283517760428  1.0000
  C   C8        1.0  0.37499940955831323  0.7410145293195284  0.5090065642767527  1.0000
  C   C9        1.0  0.4067698213838398  0.735222695288513  0.5460530658109164  1.0000
  C   C10       1.0  0.7030316874458222  0.9836603613027819  0.1562842009857661  1.0000
  C   C11       1.0  0.7402904532147617  0.9895968260941571  0.1247919157720929  1.0000
  C   C12       1.0  0.7350796264024027  0.9526308907753317  0.0928411582511828  1.0000
  C   C13       1.0  0.515269509314166  0.8435020759616164  0.2027067711428785  1.0000
  C   C14       1.0  0.5099898311002137  0.8754863819609465  0.2396757147026705  1.0000
  C   C15       1.0  0.5472898399067675  0.9068116404199171  0.2336660390305525  1.0000
  C   C16       1.0  0.6569006107335796  0.796620454735759  0.0146250196500972  1.0000
  C   C17       1.0  0.6250732923351807  0.7597135665459119  0.0088457584041706  1.0000
  C   C18       1.0  0.5933537304738435  0.765440867189177  0.0459847668625315  1.0000
  C   C19       1.0  0.7967655846907323  0.48352356450813244  0.8438724047838307  1.0000
  C   C20       1.0  0.7593376853139163  0.4895431634932945  0.8752241211179738  1.0000
  C   C21       1.0  0.764568876297311  0.45251738788073226  0.9071168326221155  1.0000
  C   C22       1.0  0.9849483279199449  0.3423368887706529  0.7974132348050915  1.0000
  C   C23       1.0  0.9903548553701358  0.3743875155143215  0.7605628203439068  1.0000
  C   C24       1.0  0.9530718425094875  0.4058903976226417  0.7666780535673966  1.0000
  C   C25       1.0  0.8425709227374726  0.2956263122824864  0.9848295583930023  1.0000
  C   C26       1.0  0.8743139406132485  0.2585066105832609  0.9905671049035903  1.0000
  C   C27       1.0  0.9061992125725881  0.2642152943703664  0.9535926632227429  1.0000
  C   C28       1.0  0.20296971287233842  0.016311129377577095  0.3437073625220535  1.0000
  C   C29       1.0  0.24040666578766687  0.010439597443919996  0.3750055985795768  1.0000
  C   C30       1.0  0.2351372778763618  0.0474300489231751  0.40695408594067567  1.0000
  C   C31       1.0  0.014433575351382904  0.15647566763416876  0.2974962894422006  1.0000
  C   C32       1.0  0.009177266721557902  0.12446044079613468  0.2605616766419701  1.0000
  C   C33       1.0  0.046553133634105806  0.09306489557978637  0.2666037901899401  1.0000
  C   C34       1.0  0.15668643009132674  0.20373334352636613  0.4851113729065659  1.0000
  C   C35       1.0  0.12483345627506993  0.24076733617923193  0.4908985051648074  1.0000
  C   C36       1.0  0.0929268642533856  0.2348872238371413  0.4539708222203985  1.0000
  C   C37       1.0  0.8398120671501703  0.08950122483361868  0.1256087607121685  1.0000
  C   C38       1.0  0.839980926140541  0.12423374514546735  0.0909758595213859  1.0000
  C   C39       1.0  0.874674289209324  0.15886197729854248  0.09064149419432249  1.0000
  C   C40       1.0  0.9093862755784131  0.15854027378863114  0.1253593007140594  1.0000
  C   C41       1.0  0.9095922709825004  0.12403523123964527  0.16025673196904933  1.0000
  C   C42       1.0  0.8746856529951972  0.08960139459681929  0.1601616816827942  1.0000
  C   C43       1.0  0.16004865090275902  0.4103727115280193  0.6257178455153535  1.0000
  C   C44       1.0  0.15985254189122605  0.37557374141316296  0.5910418711825117  1.0000
  C   C45       1.0  0.1252008416331165  0.34086999925722244  0.590723157946158  1.0000
  C   C46       1.0  0.0905314826264458  0.3411501287731227  0.6255197999834649  1.0000
  C   C47       1.0  0.09029160804135472  0.37565552457381557  0.6604530262447882  1.0000
  C   C48       1.0  0.12515153189658434  0.4101607621200998  0.6603201343645608  1.0000
  C   C49       1.0  0.340318530215491  0.9104683531558064  0.3743184059698805  1.0000
  C   C50       1.0  0.37534375999592845  0.9104230567651325  0.3399028689327963  1.0000
  C   C51       1.0  0.4103146565748831  0.8759338747204879  0.33983695133591846  1.0000
  C   C52       1.0  0.4101122262708473  0.8413300534722975  0.37460704670967  1.0000
  C   C53       1.0  0.3752660724556094  0.8409486568301574  0.4092152535208413  1.0000
  C   C54       1.0  0.3404593209853388  0.8756089303140442  0.40884674598105153  1.0000
  C   C55       1.0  0.6597048413125108  0.5899937350360461  0.8743010257441313  1.0000
  C   C56       1.0  0.6596459549842069  0.6249972605902129  0.9087245327734763  1.0000
  C   C57       1.0  0.6249956870447876  0.6598136062070095  0.908966663800598  1.0000
  C   C58       1.0  0.590222320933016  0.6595690747236914  0.8743327833420196  1.0000
  C   C59       1.0  0.5898965645037109  0.6248541050446474  0.839622894136525  1.0000
  C   C60       1.0  0.6247042236371954  0.5901620585265163  0.8398507239139263  1.0000
  C   C61       1.0  0.7748152742543156  0.024408319126209194  0.1252153490722989  1.0000
  C   C62       1.0  0.8047958724647091  0.0545276358297357  0.1255675953781648  1.0000
  C   C63       1.0  0.22511933581608198  0.47560796728686233  0.6252383543891823  1.0000
  C   C64       1.0  0.19511360154622542  0.4454547119900453  0.6256470244068097  1.0000
  C   C65       1.0  0.2750657716613675  0.9756057488979692  0.3745264078298973  1.0000
  C   C66       1.0  0.3051640833831329  0.9454696857271896  0.3742960425922419  1.0000
  C   C67       1.0  0.7247240884522554  0.5245067986139275  0.8747992706354282  1.0000
  C   C68       1.0  0.6947106349210161  0.5547518242311185  0.8744268996054032  1.0000
  C   C69       1.0  0.9746227876826838  0.12405968154564559  0.2256041249726692  1.0000
  C   C70       1.0  0.9446495642594214  0.12398950471494886  0.1953608843223549  1.0000
  C   C71       1.0  0.524664572347973  0.6252453181791963  0.7745076151859109  1.0000
  C   C72       1.0  0.5547644202293966  0.6249242573305195  0.8046157399133945  1.0000
  C   C73       1.0  0.025064684426226305  0.3749472920305265  0.7257097302161953  1.0000
  C   C74       1.0  0.0551903272840875  0.3754970559622491  0.695588212093476  1.0000
  C   C75       1.0  0.47545088710339206  0.8759280142635716  0.2746176895546313  1.0000
  C   C76       1.0  0.44544602499093605  0.8759992902938973  0.3048277670966826  1.0000
  C   C77       1.0  0.8743273114901272  0.22383020658050867  0.0253420754747324  1.0000
  C   C78       1.0  0.8745823048135863  0.19386244443349904  0.05554007438374949  1.0000
  C   C79       1.0  0.3750744530228688  0.7757497968355266  0.4742845967838178  1.0000
  C   C80       1.0  0.37519074196431024  0.8058710823908793  0.4442404543930891  1.0000
  C   C81       1.0  0.6250499076928621  0.725039156490851  0.9740482294750734  1.0000
  C   C82       1.0  0.6250571044039364  0.6949337853117824  0.9439606346426146  1.0000
  C   C83       1.0  0.12493276633605184  0.27561859165483327  0.525570943855918  1.0000
  C   C84       1.0  0.12514990498829093  0.30581219237856055  0.5555916830991025  1.0000
  N   N1        1.0  0.3024474154089702  0.5732197729004511  0.6044339198704307  1.0000
  N   N2        1.0  0.32231526651694525  0.5540267627180027  0.6436907175336514  1.0000
  N   N3        1.0  0.4276344757712495  0.6064620215202936  0.6959175393212506  1.0000
  N   N4        1.0  0.4474450668573553  0.6456274332069325  0.6766843699931826  1.0000
  N   N5        1.0  0.3946755334450813  0.697777681619577  0.571617412832161  1.0000
  N   N6        1.0  0.3553247490868686  0.6784031496059979  0.5521945297097588  1.0000
  N   N7        1.0  0.6976534810447744  0.9268897154836252  0.1046120864195998  1.0000
  N   N8        1.0  0.6778011442563854  0.9461366752213605  0.1438446663497857  1.0000
  N   N9        1.0  0.572600900177683  0.8942564663958518  0.1961148650504754  1.0000
  N   N10       1.0  0.5527626600269999  0.8550909980792198  0.17690232924043411  1.0000
  N   N11       1.0  0.6055504915463743  0.8027832233293779  0.07168206985885209  1.0000
  N   N12       1.0  0.6448804257115129  0.8221240909963469  0.052220828727214993  1.0000
  N   N13       1.0  0.8021178434329029  0.4267011481446587  0.8954631437457792  1.0000
  N   N14       1.0  0.8220829825487785  0.4459492169072659  0.856315058569372  1.0000
  N   N15       1.0  0.927661586403822  0.39340948158316985  0.8041603761181904  1.0000
  N   N16       1.0  0.9474417885792192  0.3540685321387257  0.8232339692257895  1.0000
  N   N17       1.0  0.8942007261325247  0.3017548874839873  0.9280564126634445  1.0000
  N   N18       1.0  0.8548050085498885  0.3212555540384797  0.9474363339190077  1.0000
  N   N19       1.0  0.19751618853300815  0.07311459987052157  0.3953612848842027  1.0000
  N   N20       1.0  0.17757580307354465  0.053815443849458695  0.35623503639546067  1.0000
  N   N21       1.0  0.07187072659395712  0.10561225900818977  0.30411184809546643  1.0000
  N   N22       1.0  0.05195973293146491  0.1448590399356817  0.3232977893398258  1.0000
  N   N23       1.0  0.10501805039928773  0.19736528314899715  0.4283799058079367  1.0000
  N   N24       1.0  0.14449800607174276  0.17804329117471698  0.4477250191210373  1.0000
