data_image0
_chemical_formula_structural       Cu2H20C40N4O12F24
_chemical_formula_sum              "Cu2 H20 C40 N4 O12 F24"
_cell_length_a       8.49390294821222
_cell_length_b       11.114455840946476
_cell_length_c       12.710182821545708
_cell_angle_alpha    89.99928431209688
_cell_angle_beta     90.00174247920799
_cell_angle_gamma    101.67126290582446

_space_group_name_H-M_alt    "P 1"
_space_group_IT_number       1

loop_
  _space_group_symop_operation_xyz
  'x, y, z'

loop_
  _atom_site_type_symbol
  _atom_site_label
  _atom_site_symmetry_multiplicity
  _atom_site_fract_x
  _atom_site_fract_y
  _atom_site_fract_z
  _atom_site_occupancy
  Cu  Cu1       1.0  0.9999974305184409  0.99999593147772  3.0719426505000007e-06  1.0000
  Cu  Cu2       1.0  7.025081714647682e-06  0.5000007679231615  0.4999987234920411  1.0000
  H   H1        1.0  0.030423208989596197  0.2538904399089432  0.7304943105524586  1.0000
  H   H2        1.0  0.03041749273647556  0.7538874251921116  0.7694996648416392  1.0000
  H   H3        1.0  0.9695888326352389  0.746105455062015  0.2695132602934223  1.0000
  H   H4        1.0  0.9695806839491965  0.2461094417315833  0.23049531752663907  1.0000
  H   H5        1.0  0.09142152630643352  0.21097834882950653  0.5464270004200387  1.0000
  H   H6        1.0  0.09141704542168581  0.7109749017070257  0.9535718273237493  1.0000
  H   H7        1.0  0.9085902664292436  0.7890166274307544  0.4535797836576164  1.0000
  H   H8        1.0  0.9085855186550449  0.2890164307744172  0.046422368348522994  1.0000
  H   H9        1.0  0.871788217668005  0.8287798030603141  0.6052520705956468  1.0000
  H   H10       1.0  0.8717768419583294  0.32877892091847366  0.8947471051051252  1.0000
  H   H11       1.0  0.12820995922393763  0.1712170638280526  0.39475235302157324  1.0000
  H   H12       1.0  0.12820672337856112  0.6712161617816933  0.1052447300420312  1.0000
  H   H13       1.0  0.8171379427589401  0.8906321155813616  0.7864476280158711  1.0000
  H   H14       1.0  0.8171275606012786  0.39063071676331157  0.7135489766856509  1.0000
  H   H15       1.0  0.18285930689415864  0.10936567445036623  0.2135575823576445  1.0000
  H   H16       1.0  0.18286288086351027  0.6093680186281105  0.2864428585111085  1.0000
  H   H17       1.0  0.4938692666729878  0.1504471620811927  0.8995191678395855  1.0000
  H   H18       1.0  0.4938808876797367  0.6504627926135669  0.6004916189114553  1.0000
  H   H19       1.0  0.5061202478279796  0.8495524964064813  0.1004860424453824  1.0000
  H   H20       1.0  0.5061306799470556  0.34954873827301475  0.39950178997057156  1.0000
  C   C1        1.0  0.997934706021347  0.16246523755106068  0.6970212170110415  1.0000
  C   C2        1.0  0.9979304525081149  0.6624619722843333  0.802976041048737  1.0000
  C   C3        1.0  0.0020782627907748514  0.8375297342853684  0.3029832067663065  1.0000
  C   C4        1.0  0.0020695787068377024  0.33753304834380055  0.197019728119173  1.0000
  C   C5        1.0  0.0306327175985501  0.13489182744944367  0.5946723706561698  1.0000
  C   C6        1.0  0.030625133013018113  0.6348850665841255  0.9053244863583741  1.0000
  C   C7        1.0  0.969378147915471  0.8651040719512365  0.4053359869485291  1.0000
  C   C8        1.0  0.9693724775937725  0.3651053649290644  0.0946657754149669  1.0000
  C   C9        1.0  0.9849805507705724  0.014835085509489004  0.5548854654771631  1.0000
  C   C10       1.0  0.9849740946156942  0.5148344667064891  0.9451123610264389  1.0000
  C   C11       1.0  0.015023936342288323  0.9851589986301759  0.4451221053021611  1.0000
  C   C12       1.0  0.015017884223013318  0.48515690568366676  0.0548779006847369  1.0000
  C   C13       1.0  0.9079506174106415  0.9254211315109231  0.6266206006826636  1.0000
  C   C14       1.0  0.9079436908872298  0.4254185497118285  0.8733798219468341  1.0000
  C   C15       1.0  0.0920548650697484  0.07457662750393013  0.37338146269139827  1.0000
  C   C16       1.0  0.092052133542424  0.5745783260772015  0.1266151603975842  1.0000
  C   C17       1.0  0.8763994140662063  0.9561006132708201  0.7285376086611777  1.0000
  C   C18       1.0  0.876393416864026  0.45609693472537316  0.771457118373192  1.0000
  C   C19       1.0  0.12360061737220461  0.043894407319037  0.2714683885264151  1.0000
  C   C20       1.0  0.12360308589813229  0.5438980992125266  0.22853550367594982  1.0000
  C   C21       1.0  0.2889046411357299  0.0037848503133588  0.879833679021047  1.0000
  C   C22       1.0  0.2889226858854457  0.5037947946247242  0.6201777117852814  1.0000
  C   C23       1.0  0.7110864790225477  0.9962120431651086  0.120172318066075  1.0000
  C   C24       1.0  0.7110895602629411  0.49621489437834737  0.37982199127966254  1.0000
  C   C25       1.0  0.370924255514133  0.1141372470461661  0.9237459403875691  1.0000
  C   C26       1.0  0.37093524742283535  0.6141502983322411  0.5762659019380223  1.0000
  C   C27       1.0  0.6290666157893696  0.8858587277157074  0.0762608434728094  1.0000
  C   C28       1.0  0.6290791020580357  0.38585846310068916  0.4237314408410597  1.0000
  C   C29       1.0  0.297655485864766  0.1791575124432612  0.9968264033357599  1.0000
  C   C30       1.0  0.29766271826185436  0.679164675315768  0.5031785224260403  1.0000
  C   C31       1.0  0.7023335309094635  0.82084030861418  0.0031795937249868  1.0000
  C   C32       1.0  0.7023510652088945  0.3208376506948696  0.49681724684108275  1.0000
  C   C33       1.0  0.6254238296135669  0.05409491600961051  0.2080353011282341  1.0000
  C   C34       1.0  0.6254138924297764  0.5540899135068287  0.29195582364749134  1.0000
  C   C35       1.0  0.3745711359121914  0.9459074809060083  0.7919651885724548  1.0000
  C   C36       1.0  0.3745877686696772  0.4459198153725623  0.7080485999345427  1.0000
  C   C37       1.0  0.6034097434431163  0.6999682952518497  0.9576273667525257  1.0000
  C   C38       1.0  0.6034253105179348  0.19996989099765022  0.5423654262001989  1.0000
  C   C39       1.0  0.3965764915114179  0.3000322952533594  0.042376269952647795  1.0000
  C   C40       1.0  0.39658476379112534  0.8000361276217874  0.45762404884317937  1.0000
  N   N1        1.0  0.919651499948813  0.0744192169690265  0.7640490536383879  1.0000
  N   N2        1.0  0.9196457424662725  0.5744173676807874  0.7359452237273062  1.0000
  N   N3        1.0  0.08035726212958143  0.9255776100194667  0.2359569436276985  1.0000
  N   N4        1.0  0.08035100915066816  0.4255785849737139  0.2640466115485793  1.0000
  O   O1        1.0  0.8878635581222056  0.10354723891106944  0.8605389231241104  1.0000
  O   O2        1.0  0.8878551899055083  0.6035433468311879  0.6394520311335441  1.0000
  O   O3        1.0  0.1121428517001776  0.8964495969427521  0.1394670741181159  1.0000
  O   O4        1.0  0.11213760383248683  0.39645537969195743  0.3605405908578234  1.0000
  O   O5        1.0  0.1476585206332572  0.9447418171842373  0.8989723734587756  1.0000
  O   O6        1.0  0.14767610913210663  0.44475401172143597  0.6010344730591726  1.0000
  O   O7        1.0  0.8523381630097119  0.05524953742519761  0.1010312634027812  1.0000
  O   O8        1.0  0.8523389870849912  0.5552575058318183  0.39896837710758604  1.0000
  O   O9        1.0  0.1556302303779802  0.1525951012125972  0.0328075061099753  1.0000
  O   O10       1.0  0.15563168344039016  0.6526025678331494  0.4671958435837098  1.0000
  O   O11       1.0  0.8443619977280576  0.8473971898234822  0.9672008513258136  1.0000
  O   O12       1.0  0.8443792499272721  0.3473979296331962  0.5327952050401024  1.0000
  F   F1        1.0  0.6793038030549781  0.023466666391343  0.3034461290375603  1.0000
  F   F2        1.0  0.6792768035541886  0.5234495514734689  0.19654799570430012  1.0000
  F   F3        1.0  0.3206880636332415  0.9765329832427839  0.6965559341882966  1.0000
  F   F4        1.0  0.3207091825111875  0.4765501203210363  0.8034548542326406  1.0000
  F   F5        1.0  0.657208424360782  0.1786605932655547  0.2016093838243833  1.0000
  F   F6        1.0  0.657201368909554  0.6786564525468676  0.2983731520012753  1.0000
  F   F7        1.0  0.34279477407821457  0.8213417726184604  0.798391892730571  1.0000
  F   F8        1.0  0.34281044769234376  0.3213559970356883  0.7016249775027034  1.0000
  F   F9        1.0  0.46330140843711126  0.015316342652937498  0.20597174614674432  1.0000
  F   F10       1.0  0.4632899559450436  0.5153140896836561  0.2940267488979345  1.0000
  F   F11       1.0  0.5366948696631014  0.984695245834736  0.7940279567461346  1.0000
  F   F12       1.0  0.5367131986784274  0.4847011514275508  0.7059910497716758  1.0000
  F   F13       1.0  0.4463337797582909  0.6792858843130886  0.9871408075537076  1.0000
  F   F14       1.0  0.44634923318394487  0.1792876965496717  0.5128458844978567  1.0000
  F   F15       1.0  0.5536518449580257  0.3207211460676832  0.012858895256293598  1.0000
  F   F16       1.0  0.5536618366301626  0.8207219969213995  0.4871443773062225  1.0000
  F   F17       1.0  0.6648413170526128  0.6023768149948197  0.9892755897449277  1.0000
  F   F18       1.0  0.6648491229528447  0.10237683233220451  0.5107234501230025  1.0000
  F   F19       1.0  0.3351372951409317  0.397617366681139  0.010727260147447702  1.0000
  F   F20       1.0  0.33515389457097183  0.8976292128861726  0.4892652380780476  1.0000
  F   F21       1.0  0.6088386384957545  0.7031421769160034  0.8504188755978676  1.0000
  F   F22       1.0  0.6088515845693152  0.20314207812140245  0.6495724189434141  1.0000
  F   F23       1.0  0.39115044644152874  0.2968602421541036  0.1495839743554015  1.0000
  F   F24       1.0  0.39115656696145623  0.7968611887956532  0.3504154825540908  1.0000
