data_image0
_chemical_formula_structural       Al4H24C44Br2O20F2
_chemical_formula_sum              "Al4 H24 C44 Br2 O20 F2"
_cell_length_a       6.6398620548437775
_cell_length_b       15.857117448594968
_cell_length_c       17.2672419387841
_cell_angle_alpha    78.52704531474475
_cell_angle_beta     86.69873006521209
_cell_angle_gamma    86.32836233720494

_space_group_name_H-M_alt    "P 1"
_space_group_IT_number       1

loop_
  _space_group_symop_operation_xyz
  'x, y, z'

loop_
  _atom_site_type_symbol
  _atom_site_label
  _atom_site_symmetry_multiplicity
  _atom_site_fract_x
  _atom_site_fract_y
  _atom_site_fract_z
  _atom_site_occupancy
  Al  Al1       1.0  0.8896026489954848  0.4995092693815907  0.49806136585692684  1.0000
  Al  Al2       1.0  0.38932782402962834  0.4976372871223446  0.49793806082104203  1.0000
  Al  Al3       1.0  0.3371611714827907  0.0033462856406885  0.00046577978932309884  1.0000
  Al  Al4       1.0  0.8394824796477921  0.9969901145681562  0.9991894840573181  1.0000
  H   H1        1.0  0.8764502982371879  0.8010828270563194  0.8672060871276986  1.0000
  H   H2        1.0  0.43604801190345915  0.9195493478386041  0.7895507216246218  1.0000
  H   H3        1.0  0.763407903190938  0.6878048028277635  0.8036262520502363  1.0000
  H   H4        1.0  0.48286695234858  0.8365635721778945  0.6821383915347995  1.0000
  H   H5        1.0  0.8163846274517182  0.5977699021806374  0.7004491275104954  1.0000
  H   H6        1.0  0.9446424157108878  0.7910111110581753  0.3652393314303596  1.0000
  H   H7        1.0  0.26919828243953253  0.8764109045877362  0.272468284072481  1.0000
  H   H8        1.0  0.4760331291643495  0.7125411771780608  0.2753817556561131  1.0000
  H   H9        1.0  0.28937450467937254  0.7040645311001584  0.13255711800167802  1.0000
  H   H10       1.0  0.9648485883471877  0.618575739155908  0.2254888128765558  1.0000
  H   H11       1.0  0.75772230896024  0.7821914536048027  0.22302815702467874  1.0000
  H   H12       1.0  0.2618660779778139  0.2239699450798867  0.7921094983268376  1.0000
  H   H13       1.0  0.46235169046477853  0.3805328441955851  0.7808932579420046  1.0000
  H   H14       1.0  0.797695616017897  0.28112000341223375  0.8568265975558519  1.0000
  H   H15       1.0  0.9732796501304365  0.2680483312307871  0.7039386875019532  1.0000
  H   H16       1.0  0.2510756083723464  0.1167978501923272  0.19879521453491122  1.0000
  H   H17       1.0  0.012784948305082389  0.2940970277742708  0.1975499432364742  1.0000
  H   H18       1.0  0.22922959271195245  0.20644877528771133  0.3026790818409993  1.0000
  H   H19       1.0  0.992305670828472  0.3848048541676263  0.3007987164368444  1.0000
  H   H20       1.0  0.3864537120309564  0.31125408969892726  0.36929862143832554  1.0000
  H   H21       1.0  0.6160009862282864  0.6011009400341223  0.5204825741220491  1.0000
  H   H22       1.0  0.1487958587029965  0.3873082061881804  0.5372536198182871  1.0000
  H   H23       1.0  0.5885011650383873  0.8923901753619178  0.04378722341824927  1.0000
  H   H24       1.0  0.05630432689552121  0.09942715125784221  0.0289869032167331  1.0000
  C   C1        1.0  0.6341601446457618  0.38285836859403594  0.6137799865872895  1.0000
  C   C2        1.0  0.6739619937435323  0.4081164176364069  0.40123864286982786  1.0000
  C   C3        1.0  0.1467817424996625  0.6123443036185208  0.38332922943440906  1.0000
  C   C4        1.0  0.10675344094956071  0.5944747340939786  0.5930342319592015  1.0000
  C   C5        1.0  0.15196957687379606  0.8651057686823194  0.8346485454108645  1.0000
  C   C6        1.0  0.09310696128880383  0.6537727040657729  0.6509750387460687  1.0000
  C   C7        1.0  0.8950386813122151  0.6948411592277425  0.7624739655793036  1.0000
  C   C8        1.0  0.923614132875457  0.6451803347976011  0.7058292890322377  1.0000
  C   C9        1.0  0.23115366909575394  0.715247183817226  0.6548120356099079  1.0000
  C   C10       1.0  0.20974454569594053  0.7670799971218828  0.7139863236703264  1.0000
  C   C11       1.0  0.036304856536531836  0.7563937832297613  0.7684091035253006  1.0000
  C   C12       1.0  0.009854226739932394  0.8076712457512586  0.8269777627301806  1.0000
  C   C13       1.0  0.32499064046798043  0.8744160250222919  0.7821785023523234  1.0000
  C   C14       1.0  0.35104669982947456  0.8278218715471725  0.7227861157301589  1.0000
  C   C15       1.0  0.20220922937840413  0.8182376268026913  0.26294474556818415  1.0000
  C   C16       1.0  0.02067448307214899  0.7726741601222501  0.31266653037730663  1.0000
  C   C17       1.0  0.13793366633819906  0.6830174051300092  0.31306171435880975  1.0000
  C   C18       1.0  0.3171564700262692  0.7287636645448642  0.2629145336433894  1.0000
  C   C19       1.0  0.2134471041507666  0.7223401000220876  0.18520187603751026  1.0000
  C   C20       1.0  0.0318756426052218  0.6767921358683965  0.23490216321020094  1.0000
  C   C21       1.0  0.9169461250752345  0.7661832050145282  0.2350330391828449  1.0000
  C   C22       1.0  0.09586084808753982  0.8120436353756659  0.18477033888750335  1.0000
  C   C23       1.0  0.5157687282845913  0.2268391538307881  0.6897115473902675  1.0000
  C   C24       1.0  0.7036881038437102  0.17407198779645938  0.7298022363204311  1.0000
  C   C25       1.0  0.6029845837727593  0.18167872520316317  0.8131757603564509  1.0000
  C   C26       1.0  0.4189269733251136  0.23528149823307132  0.7726145308169877  1.0000
  C   C27       1.0  0.531111133903579  0.3202461559458881  0.7676242972528871  1.0000
  C   C28       1.0  0.7178194330701898  0.26711946180593327  0.8076056737148678  1.0000
  C   C29       1.0  0.8162507647703663  0.258461535156485  0.7246053752381842  1.0000
  C   C30       1.0  0.6316008894417349  0.31197879273872076  0.6843166582114294  1.0000
  C   C31       1.0  0.5541352690279737  0.148578296312877  0.1578171903660532  1.0000
  C   C32       1.0  0.6862225255019253  0.3530258425237776  0.34019107065314813  1.0000
  C   C33       1.0  0.8763789196367285  0.29787614496987663  0.23509067355315239  1.0000
  C   C34       1.0  0.8652394477093138  0.34802195248989426  0.2919355745465212  1.0000
  C   C35       1.0  0.5222870557720468  0.306502932286037  0.3314573420179272  1.0000
  C   C36       1.0  0.5299245634894377  0.253011354124979  0.2747533419484043  1.0000
  C   C37       1.0  0.710293989758071  0.24934097146985576  0.22543743367197783  1.0000
  C   C38       1.0  0.7153137847591609  0.19616076378316197  0.1684099393481091  1.0000
  C   C39       1.0  0.3772250074335517  0.1539388371281589  0.2076970469713899  1.0000
  C   C40       1.0  0.3655106516264367  0.2036346280435595  0.264685177840967  1.0000
  C   C41       1.0  0.5586335499593104  0.09298771276192501  0.0973068440009541  1.0000
  C   C42       1.0  0.5988415763111163  0.11245021718202251  0.8850054096542694  1.0000
  C   C43       1.0  0.12801058314991562  0.9156166820354059  0.899030955748046  1.0000
  C   C44       1.0  0.08444487338895362  0.8823662594783458  0.1142837414596442  1.0000
  Br  Br1       1.0  0.3740122452564734  0.1984488062152323  0.6055354983518344  1.0000
  Br  Br2       1.0  0.45053142469613766  0.7393713288507939  0.5780601440700792  1.0000
  O   O1        1.0  0.5009976963981657  0.41982176490741097  0.434282544109152  1.0000
  O   O2        1.0  0.8048544040053329  0.4034349209127371  0.5802736903423168  1.0000
  O   O3        1.0  0.9410863063048539  0.5654011674250299  0.5785213212150353  1.0000
  O   O4        1.0  0.8368737018894379  0.4383777972445202  0.4164058046055601  1.0000
  O   O5        1.0  0.9772017244329871  0.592050535441487  0.4183250532403307  1.0000
  O   O6        1.0  0.4609766374260642  0.4157383572084896  0.5928896519246792  1.0000
  O   O7        1.0  0.631162947360437  0.5505805416347229  0.49625371987725947  1.0000
  O   O8        1.0  0.31864283457809245  0.577813490599155  0.4040601001088433  1.0000
  O   O9        1.0  0.2798969127782271  0.5763058590290413  0.5637526555579555  1.0000
  O   O10       1.0  0.14535972442103431  0.44503620174787534  0.5052056600404242  1.0000
  O   O11       1.0  0.768786229592024  0.07500467482137203  0.9042776015619439  1.0000
  O   O12       1.0  0.39041398076251  0.06547012649264869  0.08338098137163293  1.0000
  O   O13       1.0  0.253205546207191  0.9055355107857112  0.07967351370601956  1.0000
  O   O14       1.0  0.42968867099938984  0.09814377907338212  0.922175543276801  1.0000
  O   O15       1.0  0.2850472298224033  0.9497935759957769  0.9146119226642573  1.0000
  O   O16       1.0  0.7287363276836701  0.07722634057280692  0.06398542730499203  1.0000
  O   O17       1.0  0.5924067567751407  0.9467192159521501  0.0062933199265771105  1.0000
  O   O18       1.0  0.9554059185965471  0.9198708547889821  0.934761263924557  1.0000
  O   O19       1.0  0.9098399647013621  0.9138598681772266  0.09315005897818907  1.0000
  O   O20       1.0  0.077784828329321  0.0536437715731637  0.999032417428154  1.0000
  F   F1        1.0  0.7877832724430927  0.09988466400945131  0.7104120592239911  1.0000
  F   F2        1.0  0.8894885476394733  0.19547882367801617  0.12276014048390489  1.0000
