data_image0
_chemical_formula_structural       Cu6Mo2H24C34S6N12O2
_chemical_formula_sum              "Cu6 Mo2 H24 C34 S6 N12 O2"
_cell_length_a       9.114203842884141
_cell_length_b       11.096160970863577
_cell_length_c       15.601409295081135
_cell_angle_alpha    95.5294615676271
_cell_angle_beta     93.94452139948173
_cell_angle_gamma    113.93137951614082

_space_group_name_H-M_alt    "P 1"
_space_group_IT_number       1

loop_
  _space_group_symop_operation_xyz
  'x, y, z'

loop_
  _atom_site_type_symbol
  _atom_site_label
  _atom_site_symmetry_multiplicity
  _atom_site_fract_x
  _atom_site_fract_y
  _atom_site_fract_z
  _atom_site_occupancy
  Cu  Cu1       1.0  0.36579289298784085  0.8258710235818965  0.7349448173780715  1.0000
  Cu  Cu2       1.0  0.6342155493569948  0.17412638928716007  0.2650555143249563  1.0000
  Cu  Cu3       1.0  0.7517713679119209  0.8349862474485833  0.6635543595074652  1.0000
  Cu  Cu4       1.0  0.24823138290449256  0.16501515345924392  0.3364485718640537  1.0000
  Cu  Cu5       1.0  0.6455099844131453  0.12792252898479012  0.6546410929488077  1.0000
  Cu  Cu6       1.0  0.35448515707319916  0.8720768900318062  0.3453626648162782  1.0000
  Mo  Mo1       1.0  0.506765432182384  0.8741956855634643  0.5888329942178103  1.0000
  Mo  Mo2       1.0  0.4932393001436353  0.1257987456282024  0.4111669766619741  1.0000
  H   H1        1.0  0.3962511244235216  0.7316413148419018  0.9036431486902288  1.0000
  H   H2        1.0  0.6037524271890787  0.2683551145974334  0.0963556282613354  1.0000
  H   H3        1.0  0.5911598043431995  0.7950006815529351  0.03680070312775293  1.0000
  H   H4        1.0  0.4088459532390872  0.20499574744485466  0.9631968843698644  1.0000
  H   H5        1.0  0.8431526654207389  0.1760860705536516  0.9480107534908556  1.0000
  H   H6        1.0  0.15685069689944  0.8239143403492478  0.05198957150075501  1.0000
  H   H7        1.0  0.6424281385701394  0.09298506640841  0.816899071943702  1.0000
  H   H8        1.0  0.3575698896594091  0.9070113604872319  0.1831039599803219  1.0000
  H   H9        1.0  0.7097656950137645  0.8886824517005819  0.1607327975100077  1.0000
  H   H10       1.0  0.29023047172885436  0.1113189651221376  0.8392685768729109  1.0000
  H   H11       1.0  0.24378058098279348  0.2525911224261037  0.1612656972495827  1.0000
  H   H12       1.0  0.7562121554502282  0.7474013387001079  0.8387336349188247  1.0000
  H   H13       1.0  0.0470011528242011  0.19257960179906064  0.029790905357849302  1.0000
  H   H14       1.0  0.9530003778817214  0.8074128447944917  0.9702081536764098  1.0000
  H   H15       1.0  0.925162256984052  0.9547189773108047  0.28301422345700905  1.0000
  H   H16       1.0  0.07483060503344058  0.0452824419980189  0.7169882944380177  1.0000
  H   H17       1.0  0.6421192932945486  0.5433079529534908  0.6178181899916312  1.0000
  H   H18       1.0  0.3578811865118323  0.45669545189412736  0.3821822201722327  1.0000
  H   H19       1.0  0.7469950874964795  0.38763769104754436  0.553341166914521  1.0000
  H   H20       1.0  0.2530059049380355  0.6123667127031426  0.4466580515582593  1.0000
  H   H21       1.0  0.15199240482299106  0.7308419298016134  0.4916371626205773  1.0000
  H   H22       1.0  0.8480184171987163  0.2691624300151362  0.5083714386919453  1.0000
  H   H23       1.0  0.030066156702638257  0.8707566454816914  0.55905400210618  1.0000
  H   H24       1.0  0.9699413901998071  0.1292477295876324  0.4409512580368258  1.0000
  C   C1        1.0  0.4983295089421631  0.8291355496689617  0.9162307264475941  1.0000
  C   C2        1.0  0.5016734353960856  0.1708618715990866  0.0837700162150767  1.0000
  C   C3        1.0  0.607204911746692  0.8659669053317318  0.9908045877666112  1.0000
  C   C4        1.0  0.39279390036140427  0.1340245428003044  0.009196852412671298  1.0000
  C   C5        1.0  0.7376738619334943  0.9922341637477315  0.005009072325847809  1.0000
  C   C6        1.0  0.26232148576291797  0.007761281100428601  0.9949905747239711  1.0000
  C   C7        1.0  0.7481147949235946  0.0754963065484517  0.9411549257103007  1.0000
  C   C8        1.0  0.2518800486035035  0.9244981430442114  0.05884463169299183  1.0000
  C   C9        1.0  0.634900006010028  0.030315073022961804  0.8678767546588233  1.0000
  C   C10       1.0  0.36509795294976755  0.9696833555471543  0.1321232072724001  1.0000
  C   C11       1.0  0.8588881638445542  0.0328878010971181  0.08193869219302033  1.0000
  C   C12       1.0  0.1411093559862736  0.9671076287192479  0.9180648907532857  1.0000
  C   C13       1.0  0.8275956673172404  0.9673290471579964  0.15568263091779502  1.0000
  C   C14       1.0  0.1723968105536002  0.0326693971062397  0.8443151792978654  1.0000
  C   C15       1.0  0.039999500733969656  0.6175393001108914  0.7764147912963963  1.0000
  C   C16       1.0  0.9599914291944459  0.38245817465154636  0.22357455463645687  1.0000
  C   C17       1.0  0.12451754942452449  0.1709870902380644  0.1574811325015801  1.0000
  C   C18       1.0  0.8754863905641345  0.8290123160696437  0.8425217114605488  1.0000
  C   C19       1.0  0.012447216830935295  0.1375959060988592  0.08463171177296402  1.0000
  C   C20       1.0  0.9875552444850444  0.8624005290325915  0.9153657378991583  1.0000
  C   C21       1.0  0.9469016862595865  0.005094870140752101  0.2255051822893037  1.0000
  C   C22       1.0  0.05309606226073538  0.9949075307740145  0.7744995310259881  1.0000
  C   C23       1.0  0.7562558800298119  0.5805455853620956  0.5899204680094527  1.0000
  C   C24       1.0  0.2437462931181287  0.4194568201409155  0.4100799443915477  1.0000
  C   C25       1.0  0.8168214329166831  0.49382106865386544  0.5536353545039674  1.0000
  C   C26       1.0  0.1831795510590126  0.5061833314492574  0.44636514530642313  1.0000
  C   C27       1.0  0.9642356377406996  0.5443486875969582  0.5183129617002251  1.0000
  C   C28       1.0  0.03576862981307026  0.4556557009011542  0.4816895979420721  1.0000
  C   C29       1.0  0.0395568228912922  0.6828910081655195  0.5192335658917386  1.0000
  C   C30       1.0  0.9604501251956279  0.3171143623800816  0.4807723786247635  1.0000
  C   C31       1.0  0.9711598475357661  0.762942223231086  0.5571133886777488  1.0000
  C   C32       1.0  0.028845419897827223  0.2370641521304719  0.4428906315952049  1.0000
  C   C33       1.0  0.8323627987205455  0.40792280968072  0.7521155267146256  1.0000
  C   C34       1.0  0.1676284812524287  0.592090592538952  0.2478787759826417  1.0000
  S   S1        1.0  0.38400053427423586  0.9925167118164353  0.6577832836144637  1.0000
  S   S2        1.0  0.6159966014099396  0.007475742955335797  0.3422155916524687  1.0000
  S   S3        1.0  0.4851147455743359  0.7054326747118508  0.6659985995082209  1.0000
  S   S4        1.0  0.5148920896163459  0.29456374312248107  0.33400223727525  1.0000
  S   S5        1.0  0.7737323894634683  0.011056563648303099  0.5941024972094554  1.0000
  S   S6        1.0  0.22627245152937564  0.9889468184308473  0.40590322207216195  1.0000
  N   N1        1.0  0.5113631164533387  0.9088414542010813  0.8547036521248687  1.0000
  N   N2        1.0  0.48863661357658833  0.09115397699751782  0.1452981006986889  1.0000
  N   N3        1.0  0.160511029867564  0.7083969200894273  0.7678935631134324  1.0000
  N   N4        1.0  0.8394947007390599  0.29160152882063534  0.2320945477033547  1.0000
  N   N5        1.0  0.0943493755716744  0.105419499937824  0.2271658627480519  1.0000
  N   N6        1.0  0.9056485056595494  0.8945809266591952  0.7728323105279813  1.0000
  N   N7        1.0  0.8323836256541454  0.7138020318919517  0.5932896786068724  1.0000
  N   N8        1.0  0.16761844438875784  0.28620236069527044  0.4067127891517616  1.0000
  N   N9        1.0  0.7545618804458627  0.2972044862142482  0.7198587943262567  1.0000
  N   N10       1.0  0.24542054893950668  0.7027979706810046  0.2801356657713328  1.0000
  N   N11       1.0  0.9053283313848012  0.5270294268983592  0.7933531353652369  1.0000
  N   N12       1.0  0.0946642577830802  0.472980000932104  0.20663646188980073  1.0000
  O   O1        1.0  0.4202084529411039  0.8144564215425305  0.4825044312317672  1.0000
  O   O2        1.0  0.5798036515666639  0.1855330167944018  0.5174948642230675  1.0000
