data_image0
_chemical_formula_structural       Ho2H42C34N2O14
_chemical_formula_sum              "Ho2 H42 C34 N2 O14"
_cell_length_a       8.184295125395693
_cell_length_b       10.336586417495836
_cell_length_c       11.69659298353717
_cell_angle_alpha    108.70744383118625
_cell_angle_beta     106.14606111356393
_cell_angle_gamma    97.5298592340282

_space_group_name_H-M_alt    "P 1"
_space_group_IT_number       1

loop_
  _space_group_symop_operation_xyz
  'x, y, z'

loop_
  _atom_site_type_symbol
  _atom_site_label
  _atom_site_symmetry_multiplicity
  _atom_site_fract_x
  _atom_site_fract_y
  _atom_site_fract_z
  _atom_site_occupancy
  Ho  Ho1       1.0  0.585092391540336  0.9247851943168616  0.8470755472689505  1.0000
  Ho  Ho2       1.0  0.4149083926934766  0.0752130316960304  0.15292328748419953  1.0000
  H   H1        1.0  0.9701341591387875  0.6162042684222869  0.9209912162921086  1.0000
  H   H2        1.0  0.02986221355071452  0.38379186152403844  0.07900960772973062  1.0000
  H   H3        1.0  0.6188333079815396  0.4390903524995268  0.7113237472994526  1.0000
  H   H4        1.0  0.38116110194953745  0.5609078480996886  0.2886730074089741  1.0000
  H   H5        1.0  0.949783729391193  0.35354714754077327  0.8451451040595329  1.0000
  H   H6        1.0  0.05021100810697027  0.64644789367663  0.1548499724282024  1.0000
  H   H7        1.0  0.8141972042231986  0.2667617349816709  0.6798763983085506  1.0000
  H   H8        1.0  0.1857956117816358  0.7332354035781281  0.3201188990959736  1.0000
  H   H9        1.0  0.7280785017954301  0.2578124400650453  0.7991904678679871  1.0000
  H   H10       1.0  0.27191654816600425  0.7421836538387083  0.20080496347787147  1.0000
  H   H11       1.0  0.06413653692637679  0.6704900805315436  0.4710706020251507  1.0000
  H   H12       1.0  0.9358597725434166  0.32951445219951137  0.5289308559701809  1.0000
  H   H13       1.0  0.9652952878196646  0.6889824817455193  0.7094084153993377  1.0000
  H   H14       1.0  0.03470422460642204  0.3110199629961984  0.2905939241249769  1.0000
  H   H15       1.0  0.7434064853697608  0.5645482393881025  0.4183623592306843  1.0000
  H   H16       1.0  0.25659336287644413  0.4354510513096983  0.5816391601189749  1.0000
  H   H17       1.0  0.666597262565162  0.6506311867936179  0.5453812250857126  1.0000
  H   H18       1.0  0.33340099175480026  0.34936704186476675  0.4546188369600371  1.0000
  H   H19       1.0  0.7150754921186151  0.48689323780894983  0.5287000077832928  1.0000
  H   H20       1.0  0.2849275274740324  0.5131081662918789  0.4713027100820923  1.0000
  H   H21       1.0  0.3629263892449829  0.35188037754557666  0.0005751420427345272  1.0000
  H   H22       1.0  0.6370750199153863  0.6481199538400305  0.9994244024266691  1.0000
  H   H23       1.0  0.361748008203577  0.30231479329954425  0.7271323887824366  1.0000
  H   H24       1.0  0.6382530719874709  0.6976844747239073  0.2728650847367576  1.0000
  H   H25       1.0  0.2607943844310796  0.5325754605610343  0.9238908036259232  1.0000
  H   H26       1.0  0.7392085938964713  0.46742591685027446  0.07610762400926067  1.0000
  H   H27       1.0  0.1463510861785339  0.46009930193991294  0.7547266490948843  1.0000
  H   H28       1.0  0.8536506354451134  0.5399020821320518  0.24527325023264973  1.0000
  H   H29       1.0  0.3615841094698667  0.5637208749797866  0.814615648023647  1.0000
  H   H30       1.0  0.6384172749314347  0.4362794403921129  0.1853813223076416  1.0000
  H   H31       1.0  0.0063165069884903  0.026752985834122004  0.8515159051975018  1.0000
  H   H32       1.0  0.9936896839505992  0.9732505316697271  0.14848801118361613  1.0000
  H   H33       1.0  0.17651645369883798  0.052155281121187606  0.7141263026289337  1.0000
  H   H34       1.0  0.8234852610740049  0.9478503203568498  0.2858764878234653  1.0000
  H   H35       1.0  0.686484341303789  0.9359318026629566  0.40078315546703885  1.0000
  H   H36       1.0  0.3135203038249514  0.06406646208491651  0.5992207027155203  1.0000
  H   H37       1.0  0.5369664685295135  0.9080860375454237  0.5495026479721616  1.0000
  H   H38       1.0  0.46303749670598654  0.09191852995237332  0.450501992513658  1.0000
  H   H39       1.0  0.7819931156306696  0.1582208655269994  0.08662437195289395  1.0000
  H   H40       1.0  0.21800448215288526  0.8417794591510414  0.9133752973633448  1.0000
  H   H41       1.0  0.9335135607469455  0.13394668710482452  0.027311165731710205  1.0000
  H   H42       1.0  0.06648056147990647  0.866050476821741  0.9726878082567083  1.0000
  C   C1        1.0  0.7568245158118928  0.7076817846032953  0.8468313539312361  1.0000
  C   C2        1.0  0.24317686033639063  0.2923185254307086  0.1531647583540092  1.0000
  C   C3        1.0  0.8370674537751128  0.5894299524478442  0.8531709108373704  1.0000
  C   C4        1.0  0.16292919836558897  0.41056720883322845  0.14682683585843387  1.0000
  C   C5        1.0  0.7505795885503161  0.4554352268760553  0.7778672682085243  1.0000
  C   C6        1.0  0.24941674287408955  0.5445608763807643  0.2221292655831135  1.0000
  C   C7        1.0  0.8165753025633438  0.3283911062398559  0.7769298278406324  1.0000
  C   C8        1.0  0.18341847418815155  0.6716049836487414  0.22306535910549022  1.0000
  C   C9        1.0  0.25320856143808623  0.7740980011751478  0.6650115875740283  1.0000
  C   C10       1.0  0.7467925119021647  0.22590548425436918  0.33498877707003066  1.0000
  C   C11       1.0  0.07761056100189032  0.6953227420485961  0.5717632125426846  1.0000
  C   C12       1.0  0.9223832020480174  0.30468178265214624  0.42823775665317504  1.0000
  C   C13       1.0  0.9405237770855027  0.6601304560940378  0.6066323087155325  1.0000
  C   C14       1.0  0.05947636026714064  0.339874094020388  0.39337074052504317  1.0000
  C   C15       1.0  0.757996355292022  0.5872245289159252  0.5192201529829248  1.0000
  C   C16       1.0  0.24200286117682882  0.4127768738152327  0.48078354777533855  1.0000
  C   C17       1.0  0.44060468826710775  0.17081582586622804  0.8906850343320369  1.0000
  C   C18       1.0  0.5593942060832191  0.829180296096702  0.10931370435115179  1.0000
  C   C19       1.0  0.3809322063673549  0.30185218232966093  0.9091881925584031  1.0000
  C   C20       1.0  0.6190704594969176  0.6981481423952973  0.09080988021865727  1.0000
  C   C21       1.0  0.34282036347478595  0.3566358760041837  0.8178742674157958  1.0000
  C   C22       1.0  0.6571813416428188  0.643365497391976  0.18212391581965906  1.0000
  C   C23       1.0  0.27472591117764733  0.4848802189231948  0.8298370687986959  1.0000
  C   C24       1.0  0.7252754897296969  0.5151201071245098  0.17016161762466453  1.0000
  C   C25       1.0  0.9387447837065823  0.006644595317254699  0.750859954306236  1.0000
  C   C26       1.0  0.06126078230595775  0.9933568168138863  0.24914325235862833  1.0000
  C   C27       1.0  0.0347479585894277  0.0223691128706278  0.6731346775543798  1.0000
  C   C28       1.0  0.9652572798560188  0.9776354586423183  0.3268702073311759  1.0000
  C   C29       1.0  0.9499653525899919  0.9948407343504544  0.542962692182904  1.0000
  C   C30       1.0  0.050037667002655405  0.0051606697503672  0.4570400256824882  1.0000
  C   C31       1.0  0.7658991139547952  0.956009511630413  0.4992120072980058  1.0000
  C   C32       1.0  0.23410390563785202  0.04399189247040881  0.5007907105673866  1.0000
  C   C33       1.0  0.679331925947274  0.9417559299938746  0.5828970340346729  1.0000
  C   C34       1.0  0.32067461731796243  0.05824444414187009  0.417107778263876  1.0000
  N   N1        1.0  0.7623078968457195  0.9645450287456043  0.707382923717411  1.0000
  N   N2        1.0  0.23769577928333524  0.035454279335567704  0.2926201868774996  1.0000
  O   O1        1.0  0.8474011277612167  0.8357729523269488  0.9148957117341325  1.0000
  O   O2        1.0  0.15260313062707104  0.16422421169345114  0.08510006917592251  1.0000
  O   O3        1.0  0.5979427249019978  0.6863447698353511  0.7765195822561636  1.0000
  O   O4        1.0  0.4020605548313584  0.31364920943647695  0.22347084384929872  1.0000
  O   O5        1.0  0.28570976233285  0.8119370936383135  0.7873731503194037  1.0000
  O   O6        1.0  0.7142881080511075  0.18806847978054722  0.21262633279567214  1.0000
  O   O7        1.0  0.3762779498333018  0.8083075533534156  0.6254654039308389  1.0000
  O   O8        1.0  0.6237253890734209  0.19169068602769815  0.3745347776678187  1.0000
  O   O9        1.0  0.48486130537690303  0.1127349520946765  0.7934176474473914  1.0000
  O   O10       1.0  0.5151397913201807  0.8872643266045728  0.20658154216388888  1.0000
  O   O11       1.0  0.44503939713717955  0.1109189925604994  0.9723026552103065  1.0000
  O   O12       1.0  0.554952491133058  0.8890792160221043  0.027696184836770575  1.0000
  O   O13       1.0  0.8038890377528606  0.12424966761547303  0.0034412862308386386  1.0000
  O   O14       1.0  0.19610671686088213  0.8757401395520716  0.9965559369498748  1.0000
