data_image0
_chemical_formula_structural       Zn2H34C54N2O8
_chemical_formula_sum              "Zn2 H34 C54 N2 O8"
_cell_length_a       9.654711609105746
_cell_length_b       11.408611713533281
_cell_length_c       15.869339765752448
_cell_angle_alpha    89.96334370624115
_cell_angle_beta     77.22018108359376
_cell_angle_gamma    72.77667314865626

_space_group_name_H-M_alt    "P 1"
_space_group_IT_number       1

loop_
  _space_group_symop_operation_xyz
  'x, y, z'

loop_
  _atom_site_type_symbol
  _atom_site_label
  _atom_site_symmetry_multiplicity
  _atom_site_fract_x
  _atom_site_fract_y
  _atom_site_fract_z
  _atom_site_occupancy
  Zn  Zn1       1.0  0.16187081380452648  0.9691094976330134  0.9778259610384695  1.0000
  Zn  Zn2       1.0  0.8381395720122454  0.030886479226474303  0.02217718064963491  1.0000
  H   H1        1.0  0.1932947944100079  0.2782448996517815  0.1385103382530559  1.0000
  H   H2        1.0  0.18763993114657043  0.40331333329472585  0.2675899980128236  1.0000
  H   H3        1.0  0.7837361632271039  0.3325161277295193  0.4012953633427401  1.0000
  H   H4        1.0  0.7865969117048976  0.2128737002769582  0.2694408480066387  1.0000
  H   H5        1.0  0.05653288079103196  0.6977391187477622  0.49544576762183107  1.0000
  H   H6        1.0  0.37629306154014597  0.11019037276176387  0.9785155535876839  1.0000
  H   H7        1.0  0.6085033610205456  0.1282661373363752  0.878680524264503  1.0000
  H   H8        1.0  0.8056020531384432  0.05500789757745389  0.7477000640289477  1.0000
  H   H9        1.0  0.6082037112678338  0.8155062545056778  0.7248663770414653  1.0000
  H   H10       1.0  0.3836036343113066  0.8059588259563523  0.8344337156439465  1.0000
  H   H11       1.0  0.26703191159276685  0.6104006462013842  0.3245978766874202  1.0000
  H   H12       1.0  0.8133570006287983  0.7779573215955224  0.2101793174262099  1.0000
  H   H13       1.0  0.8039214046762028  0.6535764167773266  0.3398495708037501  1.0000
  H   H14       1.0  0.2785464540503498  0.7250097497600548  0.1906184817401595  1.0000
  H   H15       1.0  0.7178209656875651  0.9005634413418943  0.6210696339082277  1.0000
  H   H16       1.0  0.8222787134168074  0.8931800838492021  0.47442595422231904  1.0000
  H   H17       1.0  0.9982906132369819  0.0679022043951463  0.6495387939969817  1.0000
  H   H18       1.0  0.8066940705162935  0.7217643460381422  0.8614933001084851  1.0000
  H   H19       1.0  0.812345554696421  0.5966905011996174  0.7324197984126783  1.0000
  H   H20       1.0  0.21625538734132743  0.6674693330649147  0.5987066753149364  1.0000
  H   H21       1.0  0.21340481410634754  0.7871160983932481  0.73055722539619  1.0000
  H   H22       1.0  0.9434515414410142  0.3022611073305015  0.5045559926760248  1.0000
  H   H23       1.0  0.6237083217438696  0.8898158722224278  0.021476868852722864  1.0000
  H   H24       1.0  0.3915086278254734  0.8717279876506511  0.121317982809849  1.0000
  H   H25       1.0  0.19441443331915317  0.9449888550563229  0.2523015844768679  1.0000
  H   H26       1.0  0.3917995829882841  0.18449446631418445  0.27512830552038997  1.0000
  H   H27       1.0  0.6163921509744411  0.1940512042884492  0.1655557100037797  1.0000
  H   H28       1.0  0.7329679707053958  0.3895882830169696  0.6753998283797884  1.0000
  H   H29       1.0  0.18664162384033028  0.22204167300668587  0.7898191785612383  1.0000
  H   H30       1.0  0.19607481871997123  0.346423539303025  0.6601517834552696  1.0000
  H   H31       1.0  0.7214529654217402  0.27497736616821555  0.8093786615625191  1.0000
  H   H32       1.0  0.28220687384114734  0.0994339790512697  0.3789247382186218  1.0000
  H   H33       1.0  0.17773209029130757  0.10683323467243609  0.5255714275913731  1.0000
  H   H34       1.0  0.001721736391708557  0.9321129015202628  0.3504596268288509  1.0000
  C   C1        1.0  0.9972400147960128  0.15963338884390765  0.11846255606405265  1.0000
  C   C2        1.0  0.9897046427386728  0.2387558319647169  0.19556133515308727  1.0000
  C   C3        1.0  0.10228433348618893  0.2927492362037043  0.19577967831221338  1.0000
  C   C4        1.0  0.09915764172058772  0.36194072207426586  0.2684875513067837  1.0000
  C   C5        1.0  0.9853240322051492  0.376894056693871  0.3439596933244217  1.0000
  C   C6        1.0  0.8731052668344716  0.32184162019909474  0.3434019249179201  1.0000
  C   C7        1.0  0.8740904680562878  0.25508315355826017  0.2697415157898391  1.0000
  C   C8        1.0  0.9884188828193601  0.4437971480491427  0.42304357643497065  1.0000
  C   C9        1.0  0.03559427193664535  0.6087862790978278  0.4971941950017822  1.0000
  C   C10       1.0  0.023454217383616218  0.5558994430113697  0.4207797345709565  1.0000
  C   C11       1.0  0.4331595348186496  0.046657471839992595  0.9216045805255463  1.0000
  C   C12       1.0  0.5595467758317837  0.05788123663531049  0.8647733533979292  1.0000
  C   C13       1.0  0.624063851891826  0.9779534719247562  0.7894899087250096  1.0000
  C   C14       1.0  0.7474003092254405  0.9966656320322043  0.7254536280613735  1.0000
  C   C15       1.0  0.5602723577974447  0.8840553620750171  0.779439957463886  1.0000
  C   C16       1.0  0.436840268244403  0.8765428362849901  0.8404157629370772  1.0000
  C   C17       1.0  0.0344287284835759  0.6246000719187207  0.341308700719793  1.0000
  C   C18       1.0  0.16743675608814365  0.6465849340300308  0.2993425318969827  1.0000
  C   C19       1.0  0.0475322821672962  0.8371040231009557  0.1159664494511006  1.0000
  C   C20       1.0  0.04624607977968525  0.7596182701400732  0.19255499243207203  1.0000
  C   C21       1.0  0.9125764222375493  0.7392042765929855  0.23514986229140084  1.0000
  C   C22       1.0  0.9074550740156796  0.6709309129656872  0.30771213997626035  1.0000
  C   C23       1.0  0.17406748660339846  0.7111953027953533  0.2246706874000708  1.0000
  C   C24       1.0  0.783277554861975  0.9542748198427939  0.6412889435469254  1.0000
  C   C25       1.0  0.8953617456814554  0.9774616683126142  0.5716219861907278  1.0000
  C   C26       1.0  0.9005652870710822  0.9402950837132378  0.4856751713037043  1.0000
  C   C27       1.0  0.9980914263052013  0.0377408337771072  0.5844141274505006  1.0000
  C   C28       1.0  0.002756641592334715  0.8403747691888765  0.881539353427833  1.0000
  C   C29       1.0  0.010286755619525042  0.761248803073137  0.8044375418193184  1.0000
  C   C30       1.0  0.8977019352996864  0.7072646283946894  0.8042255793481985  1.0000
  C   C31       1.0  0.9008282567816512  0.6380649323152878  0.7315202932110267  1.0000
  C   C32       1.0  0.014659394724361651  0.6231061837217382  0.6560459886522024  1.0000
  C   C33       1.0  0.12688426548634632  0.6781530106310283  0.6566010135719722  1.0000
  C   C34       1.0  0.12590801626268447  0.7449131065093865  0.7302570045926658  1.0000
  C   C35       1.0  0.011558508369219681  0.5562050610344257  0.5769598038205571  1.0000
  C   C36       1.0  0.9643897250944492  0.3912121287365053  0.5028088887857011  1.0000
  C   C37       1.0  0.9765294820549714  0.4440998827648812  0.5792240198930471  1.0000
  C   C38       1.0  0.5668445073143432  0.953344145979322  0.07838936470626123  1.0000
  C   C39       1.0  0.440462851757765  0.9421165975746673  0.1352229602085089  1.0000
  C   C40       1.0  0.3759442924856912  0.0220425666350437  0.2105085079595668  1.0000
  C   C41       1.0  0.2526175077523263  0.0033301833684688995  0.2745453133433173  1.0000
  C   C42       1.0  0.43973246983754416  0.1159471477899032  0.2205551356920452  1.0000
  C   C43       1.0  0.5631597468943071  0.12346435088615235  0.159577481350297  1.0000
  C   C44       1.0  0.9655638580532724  0.37539813865279104  0.6586944305402087  1.0000
  C   C45       1.0  0.8325601424937686  0.3534067908990223  0.7006600012128885  1.0000
  C   C46       1.0  0.9524670629039278  0.16289311910460924  0.8840369893638498  1.0000
  C   C47       1.0  0.9537525048729592  0.2403779767173261  0.8074485552948616  1.0000
  C   C48       1.0  0.08741838284648651  0.26079662827943645  0.7648498001423719  1.0000
  C   C49       1.0  0.09253713967841293  0.3290682254554369  0.692287891451933  1.0000
  C   C50       1.0  0.8259314081834574  0.2888000244688412  0.7753328180683994  1.0000
  C   C51       1.0  0.21674747093453553  0.04572174213329559  0.3587102387591941  1.0000
  C   C52       1.0  0.1046592531207793  0.022540463015303693  0.4283764951709514  1.0000
  C   C53       1.0  0.09945314542461861  0.0597052778608145  0.5143249358885029  1.0000
  C   C54       1.0  0.0019232767887305434  0.9622641792068475  0.41558460812075276  1.0000
  N   N1        1.0  0.3720402055945728  0.9575816207961122  0.9101191861677691  1.0000
  N   N2        1.0  0.62796215825891  0.042421858803358185  0.0898756231694691  1.0000
  O   O1        1.0  0.1726934867361013  0.8467693056955733  0.07412607643250617  1.0000
  O   O2        1.0  0.9217262770534304  0.8899294532043952  0.09994702994039528  1.0000
  O   O3        1.0  0.8745828985349462  0.14990503530659535  0.10693866433352646  1.0000
  O   O4        1.0  0.12666998614181327  0.10605958901101077  0.07177571351614631  1.0000
  O   O5        1.0  0.8273058583351228  0.15322783650999122  0.9258773623824439  1.0000
  O   O6        1.0  0.07827230759921382  0.11006679365299729  0.9000565177865455  1.0000
  O   O7        1.0  0.1254187450842112  0.8500884059324104  0.8930638258590805  1.0000
  O   O8        1.0  0.8733285012179053  0.8939494401249063  0.9282259358933019  1.0000
