data_image0
_chemical_formula_structural       Zn2H28C34N16
_chemical_formula_sum              "Zn2 H28 C34 N16"
_cell_length_a       9.235115129283368
_cell_length_b       9.738695490731475
_cell_length_c       12.065432889387035
_cell_angle_alpha    98.39076892196611
_cell_angle_beta     107.12979813678028
_cell_angle_gamma    116.29884792486138

_space_group_name_H-M_alt    "P 1"
_space_group_IT_number       1

loop_
  _space_group_symop_operation_xyz
  'x, y, z'

loop_
  _atom_site_type_symbol
  _atom_site_label
  _atom_site_symmetry_multiplicity
  _atom_site_fract_x
  _atom_site_fract_y
  _atom_site_fract_z
  _atom_site_occupancy
  Zn  Zn1       1.0  0.500384906981239  0.9999950279286766  0.0001913788730121329  1.0000
  Zn  Zn2       1.0  0.5000161093837292  0.5000568938022879  0.5000178109520235  1.0000
  H   H1        1.0  0.0195725573572502  0.6608317088747312  0.37763343834404844  1.0000
  H   H2        1.0  0.20730798337991266  0.4778640677889285  0.697347669756539  1.0000
  H   H3        1.0  0.9811192263073706  0.33900734530811855  0.6216976518415649  1.0000
  H   H4        1.0  0.7932203970050367  0.5220767589493747  0.30279590891589686  1.0000
  H   H5        1.0  0.7986138504110302  0.48264175524080594  0.10215898314238811  1.0000
  H   H6        1.0  0.21216284856021164  0.24410971706566195  0.6613171245201457  1.0000
  H   H7        1.0  0.20032958618414662  0.5183964498040228  0.897091783988536  1.0000
  H   H8        1.0  0.7885048433910811  0.7558089420016287  0.3395869449575031  1.0000
  H   H9        1.0  0.9544602895571472  0.4504319113439196  0.20183572277377956  1.0000
  H   H10       1.0  0.22385890089760352  0.270267011977964  0.8108941243409262  1.0000
  H   H11       1.0  0.04351476644406202  0.5487236754234388  0.7964843940808707  1.0000
  H   H12       1.0  0.7757115145800527  0.7299100357923934  0.18976467730103516  1.0000
  H   H13       1.0  0.28561048584227666  0.6571053049988221  0.2761294188238281  1.0000
  H   H14       1.0  0.11638519192568002  0.9924254652959663  0.799694768246205  1.0000
  H   H15       1.0  0.7132460991984643  0.3417655303309387  0.723245731776771  1.0000
  H   H16       1.0  0.8840871308092277  0.007302880952188706  0.1999867160102298  1.0000
  H   H17       1.0  0.5038342725058128  0.8410234887465933  0.20522358029784019  1.0000
  H   H18       1.0  0.8660646330014855  0.7046542070052553  0.7101559798444228  1.0000
  H   H19       1.0  0.4957830592155617  0.1578955328393903  0.7947204072754063  1.0000
  H   H20       1.0  0.13431271000765574  0.2951128451037731  0.2894588187096616  1.0000
  H   H21       1.0  0.12117377077032623  0.8785653470365985  0.9520588438074781  1.0000
  H   H22       1.0  0.5649268125525779  0.8129411651063023  0.4509463733348652  1.0000
  H   H23       1.0  0.8799527905813208  0.12253318442839864  0.04831380196813478  1.0000
  H   H24       1.0  0.4347989838960943  0.18743409770082312  0.5497079893130348  1.0000
  H   H25       1.0  0.8850612748547634  0.6925539608954594  0.00923155373170909  1.0000
  H   H26       1.0  0.8013148319450141  0.10131449635711932  0.5245521160062836  1.0000
  H   H27       1.0  0.11539519076502096  0.308651962250316  0.990657732916695  1.0000
  H   H28       1.0  0.19830439527390106  0.8990519848542818  0.47624270040839184  1.0000
  C   C1        1.0  0.9038617475877829  0.6198650398658431  0.29309479782958897  1.0000
  C   C2        1.0  0.09622479642369088  0.3800374275909491  0.7066300539340417  1.0000
  C   C3        1.0  0.9256678231002623  0.5444547861915154  0.18228766978238292  1.0000
  C   C4        1.0  0.13567621659220921  0.24393112707400635  0.7164406441415353  1.0000
  C   C5        1.0  0.07332306684693175  0.45551915144513794  0.8168177461829985  1.0000
  C   C6        1.0  0.8643987091102189  0.7561055055226333  0.28398711778154956  1.0000
  C   C7        1.0  0.06564663576023821  0.6604737410351617  0.14902773969190256  1.0000
  C   C8        1.0  0.9805731789755684  0.0737876255342087  0.6712754641000417  1.0000
  C   C9        1.0  0.9339001672765548  0.3394897776790414  0.8504718918325977  1.0000
  C   C10       1.0  0.019474964091912628  0.9262672363636355  0.32898982813158273  1.0000
  C   C11       1.0  0.2433968978131419  0.7053400573492469  0.2050109127296622  1.0000
  C   C12       1.0  0.9952002282634568  0.9580270835015198  0.722875868207737  1.0000
  C   C13       1.0  0.7559390226993584  0.29392421502824106  0.7945016681553908  1.0000
  C   C14       1.0  0.005079279510113098  0.04185899406812149  0.2770649317751648  1.0000
  C   C15       1.0  0.3655135268797949  0.8073591876606017  0.16603114959698215  1.0000
  C   C16       1.0  0.8568183980984899  0.7980455084569017  0.6737513587687829  1.0000
  C   C17       1.0  0.6342717227164556  0.1920351802222626  0.833848187515791  1.0000
  C   C18       1.0  0.14344998493155  0.20185780195541977  0.3261300159975136  1.0000
  C   C19       1.0  0.15166432390336115  0.8276458534010727  0.02412975500772052  1.0000
  C   C20       1.0  0.6892277649366749  0.8581700716478623  0.5286517421719736  1.0000
  C   C21       1.0  0.8489975324927883  0.17299888890346438  0.9760130278269655  1.0000
  C   C22       1.0  0.3106602115568791  0.14207309057129439  0.4718079374199391  1.0000
  C   C23       1.0  0.02173542655934571  0.72543273679468  0.05707059885750711  1.0000
  C   C24       1.0  0.8220518459597984  0.0198949817262672  0.5714696964937716  1.0000
  C   C25       1.0  0.9785326125627378  0.2752154553474639  0.9427543036414718  1.0000
  C   C26       1.0  0.1778331070476112  0.9803684904015172  0.4290671216703714  1.0000
  C   C27       1.0  0.7271665341685035  0.20672646128404176  0.2854857813053826  1.0000
  C   C28       1.0  0.5481997285798387  0.5411147657509902  0.7840713693123007  1.0000
  C   C29       1.0  0.27299041822828224  0.7931426218206993  0.7147192124583058  1.0000
  C   C30       1.0  0.45183184506728946  0.4587839118017314  0.2159716507126248  1.0000
  C   C31       1.0  0.4158458037924363  0.2813841317657265  0.048573152735798396  1.0000
  C   C32       1.0  0.27240886195077957  0.6503610078163433  0.5446648309008849  1.0000
  C   C33       1.0  0.5845436484438268  0.7186157192988318  0.9515778656461009  1.0000
  C   C34       1.0  0.7273730474607448  0.34950002467466124  0.45539858663519084  1.0000
  N   N1        1.0  0.3210152456213892  0.8674470261246868  0.07656624236994251  1.0000
  N   N2        1.0  0.7050419905415595  0.7478985853348732  0.5781737631165242  1.0000
  N   N3        1.0  0.6794277479945947  0.1325912365914803  0.9236003100654957  1.0000
  N   N4        1.0  0.2950198673840561  0.2521575222356773  0.421949016664577  1.0000
  N   N5        1.0  0.6983496330915316  0.15508521211773998  0.18176923894755967  1.0000
  N   N6        1.0  0.5259075297359885  0.48690770064332156  0.682476656984704  1.0000
  N   N7        1.0  0.3023550593500701  0.844988919629003  0.8185270921138965  1.0000
  N   N8        1.0  0.4742079291562932  0.5131499371779213  0.3175677550277101  1.0000
  N   N9        1.0  0.3991105028681403  0.1631895424795786  0.9896166405877835  1.0000
  N   N10       1.0  0.30165939988600615  0.5669280264507465  0.48482131289494396  1.0000
  N   N11       1.0  0.6017085895143381  0.8369254366422254  0.010736384413732501  1.0000
  N   N12       1.0  0.6984048453825763  0.4331919984186213  0.5152632179100678  1.0000
  N   N13       1.0  0.7674591984979457  0.2553260951890551  0.4015477925187909  1.0000
  N   N14       1.0  0.5708339575190493  0.586150499291861  0.8971163478116964  1.0000
  N   N15       1.0  0.23197660963645464  0.7441942806237806  0.5985592865464469  1.0000
  N   N16       1.0  0.4289972403870267  0.4136231734683094  0.10289523497898759  1.0000
