data_image0
_chemical_formula_structural       Zn6H18C94Cl12O24
_chemical_formula_sum              "Zn6 H18 C94 Cl12 O24"
_cell_length_a       16.867620157756022
_cell_length_b       16.86762029021563
_cell_length_c       17.091743225248674
_cell_angle_alpha    67.77795836854247
_cell_angle_beta     67.77739742411794
_cell_angle_gamma    67.37706461637666

_space_group_name_H-M_alt    "P 1"
_space_group_IT_number       1

loop_
  _space_group_symop_operation_xyz
  'x, y, z'

loop_
  _atom_site_type_symbol
  _atom_site_label
  _atom_site_symmetry_multiplicity
  _atom_site_fract_x
  _atom_site_fract_y
  _atom_site_fract_z
  _atom_site_occupancy
  Zn  Zn1       1.0  0.5710302075289633  2.7920840672377896e-05  0.5105952510300613  1.0000
  Zn  Zn2       1.0  0.9959215562415266  0.9959146825587694  0.9289963008364596  1.0000
  Zn  Zn3       1.0  0.0040874536418158  0.0040850269752895  0.0710013011338546  1.0000
  Zn  Zn4       1.0  0.4289567695570611  0.9999863069672514  0.48940581801318217  1.0000
  Zn  Zn5       1.0  0.9999856797554186  0.428958940867126  0.48940853798645634  1.0000
  Zn  Zn6       1.0  2.270402900709846e-05  0.571031374713421  0.5105958323802182  1.0000
  H   H1        1.0  0.27201877796551327  0.2720173686891555  0.4697789570797184  1.0000
  H   H2        1.0  0.8092769332144556  0.9288794147812496  0.9752584730152943  1.0000
  H   H3        1.0  0.9288793101047618  0.8092719705113606  0.9752569588513469  1.0000
  H   H4        1.0  0.07112635054477322  0.19073315485334763  0.024739265453121093  1.0000
  H   H5        1.0  0.2731079062888  0.08943728874068305  0.10208376647782563  1.0000
  H   H6        1.0  0.7269111051299078  0.9105672972059221  0.8979081297158233  1.0000
  H   H7        1.0  0.9105627903406628  0.726906581788974  0.8979101910375886  1.0000
  H   H8        1.0  0.08943950541157618  0.27310715132264096  0.10208226722895836  1.0000
  H   H9        1.0  0.7279728954867578  0.7279782502846146  0.5302274474107096  1.0000
  H   H10       1.0  0.5768581336304593  0.8943982489966088  0.7505373502156941  1.0000
  H   H11       1.0  0.42315086592370227  0.1056008086819417  0.24945933543341425  1.0000
  H   H12       1.0  0.1055917753511579  0.4231480757323567  0.24946586702233015  1.0000
  H   H13       1.0  0.8943998862686373  0.576852022028383  0.7505382392439301  1.0000
  H   H14       1.0  0.659472559071588  0.8915424804526917  0.8403280671322692  1.0000
  H   H15       1.0  0.34053838827087185  0.10846301700705395  0.15966072076984972  1.0000
  H   H16       1.0  0.10845205428528  0.3405395169837177  0.15966610930037456  1.0000
  H   H17       1.0  0.8915395305203546  0.6594714097158769  0.840327437008497  1.0000
  H   H18       1.0  0.1907341165953937  0.07112105307795955  0.024742151757003207  1.0000
  C   C1        1.0  0.4472436691010985  0.9806951183029681  0.668595394868909  1.0000
  C   C2        1.0  0.5872190557300385  0.5872240812827625  0.5409212456511768  1.0000
  C   C3        1.0  0.9911758142653823  0.4013423875078244  0.9007998398162799  1.0000
  C   C4        1.0  0.262895374672631  0.04929388668409017  0.004235535769787173  1.0000
  C   C5        1.0  0.7371176595868077  0.9507027933520006  0.99576344005051  1.0000
  C   C6        1.0  0.9507036598506746  0.7371142467157411  0.9957611262886701  1.0000
  C   C7        1.0  0.049297981142828504  0.2628945543890069  0.004234059655523504  1.0000
  C   C8        1.0  0.31021860712536403  0.05923148788430406  0.04779501298562394  1.0000
  C   C9        1.0  0.41277055980450683  0.4127675537689441  0.4590810394202762  1.0000
  C   C10       1.0  0.6897963861406068  0.940771643159863  0.9521972267507125  1.0000
  C   C11       1.0  0.9407712588561736  0.6897946249436229  0.9521957632658771  1.0000
  C   C12       1.0  0.05923035347750269  0.3102186381077702  0.04779538195960236  1.0000
  C   C13       1.0  0.5413252646713077  0.924221654835946  0.8049229370195831  1.0000
  C   C14       1.0  0.45868706222980643  0.07577966332864608  0.1950710205306407  1.0000
  C   C15       1.0  0.0757744553362087  0.4586852017878371  0.1950754340053534  1.0000
  C   C16       1.0  0.9242191886156377  0.5413207288061197  0.8049245048447916  1.0000
  C   C17       1.0  0.5878579089564512  0.9233304914848544  0.855828453939246  1.0000
  C   C18       1.0  0.4121530561024116  0.07667438218658151  0.14416232179921445  1.0000
  C   C19       1.0  0.07666621005149209  0.4121543660558373  0.14416527501475676  1.0000
  C   C20       1.0  0.92332605995081  0.587855749446717  0.855830075018794  1.0000
  C   C21       1.0  0.7048088593698197  0.4483858075904049  0.5666967714274166  1.0000
  C   C22       1.0  0.9920634747207161  0.16737975843483333  0.9260128987504713  1.0000
  C   C23       1.0  0.0079401914894817  0.8326201634984045  0.07398608596527365  1.0000
  C   C24       1.0  0.8326245794959205  0.007936884420040261  0.07398667461752248  1.0000
  C   C25       1.0  0.16738376646335953  0.9920604500082388  0.9260120928316982  1.0000
  C   C26       1.0  0.2951780927418283  0.5516059420810535  0.43330707626401477  1.0000
  C   C27       1.0  0.4067702224077365  0.6718543034662402  0.5329286985465345  1.0000
  C   C28       1.0  0.593218696711908  0.32813813155561883  0.46707062113721776  1.0000
  C   C29       1.0  0.3281425397022915  0.5932198624321285  0.4670679068621837  1.0000
  C   C30       1.0  0.6718464083519893  0.40677196002831556  0.5329345623209392  1.0000
  C   C31       1.0  0.3204008333955812  0.7166707591183366  0.5162387613411425  1.0000
  C   C32       1.0  0.5516077998171411  0.2951700165430039  0.4333147572750775  1.0000
  C   C33       1.0  0.6795874209109555  0.28331994142637024  0.48376147847969975  1.0000
  C   C34       1.0  0.28332184525871906  0.6795847236150294  0.4837600340512083  1.0000
  C   C35       1.0  0.7166664424277088  0.3204021612250966  0.5162445819780501  1.0000
  C   C36       1.0  0.4132073042707844  0.5457827545116128  0.4866002382522439  1.0000
  C   C37       1.0  0.5867882636588462  0.45421034648366276  0.5133939356215792  1.0000
  C   C38       1.0  0.4542150503100331  0.5867930345977327  0.5133850401881402  1.0000
  C   C39       1.0  0.44838187508996435  0.7048152627433664  0.5666952086980787  1.0000
  C   C40       1.0  0.5457804898488237  0.4132038877155608  0.48660533830877734  1.0000
  C   C41       1.0  0.4586454471284681  0.45864389738829164  0.4744023009009696  1.0000
  C   C42       1.0  0.5413434979838457  0.5413459975728188  0.5256003234760624  1.0000
  C   C43       1.0  0.45639701179477743  0.3241794752001609  0.449364218366128  1.0000
  C   C44       1.0  0.5435919495306435  0.6758149266151248  0.5506390119442914  1.0000
  C   C45       1.0  0.6758123120826981  0.5435982819306346  0.5506375833185827  1.0000
  C   C46       1.0  0.32418461912785557  0.4563983216996019  0.4493582352701323  1.0000
  C   C47       1.0  0.40378145035387547  0.27262564799519845  0.4540668849972747  1.0000
  C   C48       1.0  0.5962061074731294  0.7273780413039644  0.545927470436027  1.0000
  C   C49       1.0  0.727371468990782  0.5962177468085554  0.5459261142326781  1.0000
  C   C50       1.0  0.2726287195901733  0.40378297183231376  0.4540592702535875  1.0000
  C   C51       1.0  0.31334792324117433  0.31334817978590473  0.45880922510512795  1.0000
  C   C52       1.0  0.686642254913899  0.6866540687287213  0.5411794117397192  1.0000
  C   C53       1.0  0.552760681077281  0.019312972460930538  0.33140312044920955  1.0000
  C   C54       1.0  0.45065879977592255  0.9947293244093841  0.951096745949712  1.0000
  C   C55       1.0  0.5493555443404219  0.005268880241366874  0.04889880229578131  1.0000
  C   C56       1.0  0.005265039843735101  0.5493549123193162  0.048900596365633854  1.0000
  C   C57       1.0  0.9947246172177202  0.4506553683239715  0.9511015437715072  1.0000
  C   C58       1.0  0.5456589471734291  0.9629921809371916  0.9269038409162748  1.0000
  C   C59       1.0  0.019309090793314006  0.5527581018731027  0.3314056297875964  1.0000
  C   C60       1.0  0.45435536178492697  0.037011120675394665  0.07308684043718475  1.0000
  C   C61       1.0  0.0370024359957526  0.4543550695295622  0.073092724109344  1.0000
  C   C62       1.0  0.9629872136784882  0.5456564867575368  0.9269083445126682  1.0000
  C   C63       1.0  0.5949795940577828  0.969425657908495  0.9750967100040951  1.0000
  C   C64       1.0  0.4050333837710554  0.03057930539225842  0.024894429720582395  1.0000
  C   C65       1.0  0.0305715079317395  0.4050323699638199  0.024899473998296184  1.0000
  C   C66       1.0  0.9806946002456983  0.44723607124278425  0.6685973054989559  1.0000
  C   C67       1.0  0.9694247884995661  0.5949772841687274  0.9750968493495052  1.0000
  C   C68       1.0  0.3062042619350507  0.013790986530253166  0.9298961046607843  1.0000
  C   C69       1.0  0.693808765826219  0.9862063285210279  0.0701020449861859  1.0000
  C   C70       1.0  0.9862041169865846  0.6938060448408192  0.07010263641542029  1.0000
  C   C71       1.0  0.013794204047187  0.30619922013406853  0.9298963491427799  1.0000
  C   C72       1.0  0.258691178093045  0.0044704277005606615  0.8817064607802721  1.0000
  C   C73       1.0  0.7413225590794638  0.9955248173501875  0.1182963066010527  1.0000
  C   C74       1.0  0.9955272607088118  0.7413189515122621  0.11829503756133887  1.0000
  C   C75       1.0  0.0044737612335624  0.2586875193942362  0.8817059605138553  1.0000
  C   C76       1.0  0.3037822613287275  0.0023354689517986536  0.7930893723843013  1.0000
  C   C77       1.0  0.6962281071154665  0.9976670969751565  0.2069095388112031  1.0000
  C   C78       1.0  0.9976648398771317  0.696225866417073  0.20691109358904922  1.0000
  C   C79       1.0  0.0023355160882659004  0.3037756612556707  0.7930914705007623  1.0000
  C   C80       1.0  0.3977304587405186  0.9806591414797833  0.7622985867426878  1.0000
  C   C81       1.0  0.6022759151512672  0.019345200755090185  0.2377023454440206  1.0000
  C   C82       1.0  0.019339311922500702  0.6022745894158348  0.23770419360288736  1.0000
  C   C83       1.0  0.9806597005312907  0.39772537996160634  0.7622983130726626  1.0000
  C   C84       1.0  0.4471482354202365  0.964258104697109  0.8216495612978391  1.0000
  C   C85       1.0  0.5528621008725523  0.03573929690671199  0.17834724681155484  1.0000
  C   C86       1.0  0.0357333766729937  0.5528601274568744  0.17835257358211  1.0000
  C   C87       1.0  0.9642576336796439  0.44714466456677826  0.8216523227291999  1.0000
  C   C88       1.0  0.564637849649415  0.8272020028196535  0.5270860411938472  1.0000
  C   C89       1.0  0.4353396838663243  0.1728051270122748  0.47290966890959407  1.0000
  C   C90       1.0  0.17280581895828107  0.4353428398024448  0.47290643497851886  1.0000
  C   C91       1.0  0.827193770066053  0.5646536435945959  0.5270872401586999  1.0000
  C   C92       1.0  0.401345929314978  0.991176561478461  0.9007984772421906  1.0000
  C   C93       1.0  0.5986651033927118  0.008820040155199993  0.09920129625490395  1.0000
  C   C94       1.0  0.008815860900362798  0.5986641389929871  0.09920413635793314  1.0000
  Cl  Cl1       1.0  0.8229940766162472  0.2644652834097198  0.5272098265877504  1.0000
  Cl  Cl2       1.0  0.2347549501996724  0.6120528321432841  0.3576191633377378  1.0000
  Cl  Cl3       1.0  0.6120592064754716  0.2347474615312563  0.3576249345409793  1.0000
  Cl  Cl4       1.0  0.38792376469434947  0.7652403044038819  0.6423837230494486  1.0000
  Cl  Cl5       1.0  0.7652353257673569  0.38793155174442956  0.6423838938874126  1.0000
  Cl  Cl6       1.0  0.2403317559588842  0.03721440272688169  0.7210378617130218  1.0000
  Cl  Cl7       1.0  0.7596766359725605  0.9627983741498198  0.27896198751092516  1.0000
  Cl  Cl8       1.0  0.9627967940501421  0.7596740824314239  0.2789620844158024  1.0000
  Cl  Cl9       1.0  0.17699023758019192  0.7355041532659783  0.47280358985546644  1.0000
  Cl  Cl10      1.0  0.037216935120902406  0.24032692827699975  0.7210384748892409  1.0000
  Cl  Cl11      1.0  0.7355074678023287  0.17698579903054665  0.47281206977602613  1.0000
  Cl  Cl12      1.0  0.2644574808506945  0.8229993281699775  0.5272033412680203  1.0000
  O   O1        1.0  0.5258069204019761  0.9903293705977346  0.6404117760985314  1.0000
  O   O2        1.0  0.5054934303334662  0.13229386573856053  0.4992878864926454  1.0000
  O   O3        1.0  0.13229028211884497  0.5054924316374355  0.49928545200472035  1.0000
  O   O4        1.0  0.8677126989593162  0.4944961127085391  0.5007146479861717  1.0000
  O   O5        1.0  0.49448812133501  0.8677147189958061  0.5007074800681083  1.0000
  O   O6        1.0  0.6133086602878066  0.8657331806282325  0.5340823413148283  1.0000
  O   O7        1.0  0.3866649271046612  0.13427320790462718  0.46592101779913975  1.0000
  O   O8        1.0  0.13427622156764576  0.38666342695830014  0.4659192191259364  1.0000
  O   O9        1.0  0.47419476129400817  0.009686527942917997  0.3595859385693673  1.0000
  O   O10       1.0  0.8657254059445306  0.6133267566220724  0.5340790159101305  1.0000
  O   O11       1.0  0.40986379152438696  0.9718029391818062  0.6208795769490437  1.0000
  O   O12       1.0  0.590140597643007  0.028201341490962727  0.3791238954090019  1.0000
  O   O13       1.0  0.028201860555711295  0.5901350127560361  0.379124826146203  1.0000
  O   O14       1.0  0.9718058675809261  0.40985101144627106  0.6208820265563162  1.0000
  O   O15       1.0  0.0096852809973313  0.47419146970019443  0.35958623384998123  1.0000
  O   O16       1.0  0.988973195816108  0.13520196581591637  0.007971128587641424  1.0000
  O   O17       1.0  0.0110318626096486  0.8648008461908604  0.9920326503423594  1.0000
  O   O18       1.0  0.8648067180488253  0.011025432120831508  0.992033164014778  1.0000
  O   O19       1.0  0.1352030050767681  0.9889734942833996  0.007969145837783739  1.0000
  O   O20       1.0  0.9903277293869691  0.5257981297403163  0.6404119557411361  1.0000
  O   O21       1.0  0.8721700692389761  0.02014943106485818  0.11727911845667191  1.0000
  O   O22       1.0  0.12783899256508138  0.9798573871319931  0.882722173900383  1.0000
  O   O23       1.0  0.9798566196432502  0.1278356095642009  0.8827234877386162  1.0000
  O   O24       1.0  0.0201444209045789  0.87216959692536  0.1172797435147289  1.0000
