data_image0
_chemical_formula_structural       Ni2H36C34N4O10
_chemical_formula_sum              "Ni2 H36 C34 N4 O10"
_cell_length_a       8.51271023698737
_cell_length_b       9.312420785101095
_cell_length_c       11.61948788721902
_cell_angle_alpha    91.60106143479499
_cell_angle_beta     101.73037435297894
_cell_angle_gamma    109.78147138752803

_space_group_name_H-M_alt    "P 1"
_space_group_IT_number       1

loop_
  _space_group_symop_operation_xyz
  'x, y, z'

loop_
  _atom_site_type_symbol
  _atom_site_label
  _atom_site_symmetry_multiplicity
  _atom_site_fract_x
  _atom_site_fract_y
  _atom_site_fract_z
  _atom_site_occupancy
  Ni  Ni1       1.0  0.7453059075069675  0.6758530246934455  0.41895315249183807  1.0000
  Ni  Ni2       1.0  0.25469453689976973  0.3241470311226707  0.581048007252619  1.0000
  H   H1        1.0  0.679531733716054  0.4178080018215836  0.3286029136024453  1.0000
  H   H2        1.0  0.3204682641981834  0.5821909064961801  0.67139814969606  1.0000
  H   H3        1.0  0.6397096978903533  0.39599750466051375  0.4586291429494764  1.0000
  H   H4        1.0  0.3602862496186106  0.6040002443891622  0.541371288689966  1.0000
  H   H5        1.0  0.3687526058875719  0.8648146872669358  0.5418708759767554  1.0000
  H   H6        1.0  0.6312418306519731  0.1351853432733563  0.45813025203108293  1.0000
  H   H7        1.0  0.5117918483281939  0.6661692914048344  0.028819909329094187  1.0000
  H   H8        1.0  0.48820739746609837  0.33383077180725  0.9711793514405401  1.0000
  H   H9        1.0  0.8743307581220279  0.9252528822543339  0.2922118763509474  1.0000
  H   H10       1.0  0.12567208620140496  0.0747471700890685  0.7077913607727025  1.0000
  H   H11       1.0  0.0988247635368111  0.0276268601482457  0.1776393503366549  1.0000
  H   H12       1.0  0.9011732809532236  0.9723731991405983  0.822359732028609  1.0000
  H   H13       1.0  0.2745345086136766  0.6549554816635633  0.2751087597510349  1.0000
  H   H14       1.0  0.7254674508002098  0.3450423096407463  0.7248891227693477  1.0000
  H   H15       1.0  0.043299410749533335  0.5693955414722112  0.38854318110224284  1.0000
  H   H16       1.0  0.9567041937692906  0.43060338993448977  0.6114566968389142  1.0000
  H   H17       1.0  0.6480129414477814  0.598714073688832  0.6502958496266444  1.0000
  H   H18       1.0  0.3519859906436267  0.40128825795830636  0.3497068667714274  1.0000
  H   H19       1.0  0.7949570315251647  0.6129445281443678  0.860611069390579  1.0000
  H   H20       1.0  0.20504461149401723  0.38705552027578694  0.1393919893287006  1.0000
  H   H21       1.0  0.27432716013449726  0.8381750505314257  0.76118843074088  1.0000
  H   H22       1.0  0.7256764443843269  0.161823880875275  0.23881144720027694  1.0000
  H   H23       1.0  0.10728245931107956  0.8271881938985501  0.5581701841105655  1.0000
  H   H24       1.0  0.8927163386448101  0.1728107161555741  0.4418298404983362  1.0000
  H   H25       1.0  0.42214708179825083  0.8332122654764476  0.15540554300780945  1.0000
  H   H26       1.0  0.5778521653419518  0.16678780339524482  0.8445928574765915  1.0000
  H   H27       1.0  0.4188258491587789  0.021835908799069194  0.1743867874159051  1.0000
  H   H28       1.0  0.5811721953312557  0.9781641504897749  0.8256122949493516  1.0000
  H   H29       1.0  0.22829623299507762  0.661667559515912  0.9535859424392825  1.0000
  H   H30       1.0  0.7717078180162459  0.33833251938914793  0.04641403194782611  1.0000
  H   H31       1.0  0.05294277118591143  0.67490687434384  0.008260987319403099  1.0000
  H   H32       1.0  0.9470596320286546  0.3250920531396203  0.9917387122173835  1.0000
  H   H33       1.0  0.17613148503197348  0.9666196701483257  8.18481352738108e-05  1.0000
  H   H34       1.0  0.8238689661042996  0.0333804139658156  0.9999150101830453  1.0000
  H   H35       1.0  0.35645825552182947  0.9431199414686873  0.9624612698828585  1.0000
  H   H36       1.0  0.6435450420236464  0.05688128667109279  0.037537762260598115  1.0000
  C   C1        1.0  0.5757906185470106  0.8326752256702576  0.4702328114450438  1.0000
  C   C2        1.0  0.4242066630558271  0.16732594323607233  0.5297713506731654  1.0000
  C   C3        1.0  0.47884970461045395  0.9247895392593933  0.5056344773666198  1.0000
  C   C4        1.0  0.5211451797675011  0.0752116444388662  0.49436588680193694  1.0000
  C   C5        1.0  0.5199176731681947  0.5538528647447265  0.045397818148245526  1.0000
  C   C6        1.0  0.48008068233291823  0.4461449147898549  0.9545995291590259  1.0000
  C   C7        1.0  0.5771099787706505  0.5286442149206891  0.17082486026730953  1.0000
  C   C8        1.0  0.42289002452722  0.47135471603548496  0.8291727618902841  1.0000
  C   C9        1.0  0.9662758306087015  0.8696162345180625  0.28588503137850557  1.0000
  C   C10       1.0  0.0337282177108023  0.130383833067782  0.7141166635790556  1.0000
  C   C11       1.0  0.09120876340678315  0.9245541080535133  0.221847447518094  1.0000
  C   C12       1.0  0.9087897275757585  0.07544709873368298  0.7781517312931143  1.0000
  C   C13       1.0  0.2054103229572632  0.8476327403755376  0.21509453091911718  1.0000
  C   C14       1.0  0.7945905719796897  0.15236847991775446  0.7849041444156057  1.0000
  C   C15       1.0  0.18737237946422172  0.7175572574604486  0.2758876846003204  1.0000
  C   C16       1.0  0.8126292702844964  0.2824428192577244  0.7241110726928215  1.0000
  C   C17       1.0  0.059643791726181075  0.6693917039954799  0.3393486463623674  1.0000
  C   C18       1.0  0.9403581636499825  0.33060607033002043  0.6606518170136938  1.0000
  C   C19       1.0  0.7866346403675379  0.6528508957362504  0.6787248120188281  1.0000
  C   C20       1.0  0.2133654930281281  0.3471514398341284  0.32127808278362124  1.0000
  C   C21       1.0  0.8702167730979016  0.6602107365534169  0.7960053425078968  1.0000
  C   C22       1.0  0.12978322885405902  0.3397881887431566  0.2039931399349229  1.0000
  C   C23       1.0  0.04924256715433734  0.7251619070336873  0.8298792289305155  1.0000
  C   C24       1.0  0.9507610373644866  0.2748370243730207  0.1701206490106415  1.0000
  C   C25       1.0  0.1351133097626516  0.7856725926532349  0.7416470773855295  1.0000
  C   C26       1.0  0.8648890921060044  0.2143263291706177  0.25835348243649053  1.0000
  C   C27       1.0  0.0428938349194752  0.7771647231439188  0.6269125978418089  1.0000
  C   C28       1.0  0.9571073629531172  0.22283418343747738  0.3730895041462929  1.0000
  C   C29       1.0  0.3380294045472071  0.901608903698758  0.1425314642943931  1.0000
  C   C30       1.0  0.6619702890854954  0.09839231267129378  0.8574670326359525  1.0000
  C   C31       1.0  0.144876314460049  0.7298581659039056  0.954547446184236  1.0000
  C   C32       1.0  0.8551277378971848  0.2701419186607623  0.04545166791764646  1.0000
  C   C33       1.0  0.2553927702286175  0.8936671983901618  0.01062298100974601  1.0000
  C   C34       1.0  0.7446088808660035  0.10633288398761918  0.9893749159981695  1.0000
  N   N1        1.0  0.9501971215639672  0.7440775124004021  0.3442877829554689  1.0000
  N   N2        1.0  0.04980603107873091  0.255920248869529  0.6557154396806482  1.0000
  N   N3        1.0  0.8713214009889184  0.7096976279232265  0.5943507596818591  1.0000
  N   N4        1.0  0.12867664080930297  0.29030242004640167  0.405650043253857  1.0000
  O   O1        1.0  0.7315956010368938  0.45042961266455  0.4168467978010356  1.0000
  O   O2        1.0  0.2684027477346831  0.5495681385720059  0.5831548509323738  1.0000
  O   O3        1.0  0.5207425246742191  0.6871184366441127  0.478393272754417  1.0000
  O   O4        1.0  0.4792540021168605  0.3128838758373292  0.5216108074053736  1.0000
  O   O5        1.0  0.7115021572956906  0.8941273036311587  0.43330407404300086  1.0000
  O   O6        1.0  0.2884927243904444  0.10587386874789219  0.5666980106960082  1.0000
  O   O7        1.0  0.5951736115304911  0.6384271279013162  0.24759143597196953  1.0000
  O   O8        1.0  0.4048251891172114  0.3615717934720166  0.7524068680664796  1.0000
  O   O9        1.0  0.6036152097719949  0.4047819540310869  0.19277818426263588  1.0000
  O   O10       1.0  0.3963876426268839  0.5952181322699345  0.80721989114965  1.0000
