data_image0
_chemical_formula_structural       Cd4H32C40S4N8Cl8
_chemical_formula_sum              "Cd4 H32 C40 S4 N8 Cl8"
_cell_length_a       6.932380171676834
_cell_length_b       10.485177944831415
_cell_length_c       17.712655782012508
_cell_angle_alpha    90.00000341018927
_cell_angle_beta     90.0001324497471
_cell_angle_gamma    103.08937152747252

_space_group_name_H-M_alt    "P 1"
_space_group_IT_number       1

loop_
  _space_group_symop_operation_xyz
  'x, y, z'

loop_
  _atom_site_type_symbol
  _atom_site_label
  _atom_site_symmetry_multiplicity
  _atom_site_fract_x
  _atom_site_fract_y
  _atom_site_fract_z
  _atom_site_occupancy
  Cd  Cd1       1.0  0.26919955319397093  0.077316862077403  0.9757256283268987  1.0000
  Cd  Cd2       1.0  0.23080291908910064  0.4226831301682878  0.47572549850784174  1.0000
  Cd  Cd3       1.0  0.7308012279436297  0.9226831365614173  0.0242745187998921  1.0000
  Cd  Cd4       1.0  0.7691989858723927  0.5773158985802098  0.5242746486194463  1.0000
  H   H1        1.0  0.23062640135025697  0.5947499452666348  0.9379825512260139  1.0000
  H   H2        1.0  0.2693709953392868  0.9052498206925531  0.43798245576894596  1.0000
  H   H3        1.0  0.7693711667948547  0.4052490557791585  0.06201703133122288  1.0000
  H   H4        1.0  0.730629785798321  0.0947501779462741  0.5620176913578517  1.0000
  H   H5        1.0  0.2633096553411036  0.6515589227179672  0.0737451434661907  1.0000
  H   H6        1.0  0.23668370350716836  0.848439481931635  0.5737441251166047  1.0000
  H   H7        1.0  0.7366864672008973  0.34844006909396796  0.9262550036584685  1.0000
  H   H8        1.0  0.7633167558476898  0.15155953758243604  0.42625545744195387  1.0000
  H   H9        1.0  0.2887913791337908  0.47336267702870327  0.1679444642464674  1.0000
  H   H10       1.0  0.21120307041182676  0.0266359840120316  0.6679439748548504  1.0000
  H   H11       1.0  0.7112050651891906  0.5266372939076974  0.8320556828783623  1.0000
  H   H12       1.0  0.7887973889447932  0.9733630355023308  0.332056172271777  1.0000
  H   H13       1.0  0.2889338097153312  0.24964700208944623  0.11798470177606649  1.0000
  H   H14       1.0  0.2110664326095417  0.2503526238574524  0.6179842209220894  1.0000
  H   H15       1.0  0.7110655258156411  0.7503529873149473  0.8820148807819947  1.0000
  H   H16       1.0  0.7889343485280591  0.7496473747813751  0.3820159262047085  1.0000
  H   H17       1.0  0.4032647133605919  0.4106306155107546  0.72997824517374  1.0000
  H   H18       1.0  0.0967365488528884  0.08937010423360188  0.22997854522974143  1.0000
  H   H19       1.0  0.5967378351593524  0.5893703714860976  0.2700207728177233  1.0000
  H   H20       1.0  0.9032613410732038  0.9106298759366496  0.770021037327666  1.0000
  H   H21       1.0  0.6473394911101452  0.303757482659833  0.6682383182799327  1.0000
  H   H22       1.0  0.8526624453860308  0.1962428389519673  0.1682382903872011  1.0000
  H   H23       1.0  0.3526612900256935  0.696242515978703  0.3317612642787822  1.0000
  H   H24       1.0  0.14733544454710318  0.8037571412194424  0.8317635504425098  1.0000
  H   H25       1.0  0.7392374996168343  0.11130110265701633  0.7343662150630479  1.0000
  H   H26       1.0  0.7607630816993803  0.3886982983062026  0.23436667571223777  1.0000
  H   H27       1.0  0.26076119235216316  0.8886969284984545  0.2656333674946865  1.0000
  H   H28       1.0  0.2392348082302362  0.6113016818646244  0.7656340359813212  1.0000
  H   H29       1.0  0.5779174890240242  0.037204496146714  0.857801610843012  1.0000
  H   H30       1.0  0.9220870747106886  0.46279602879747744  0.3578022209052349  1.0000
  H   H31       1.0  0.4220834505945136  0.9627915952284026  0.14219853628378584  1.0000
  H   H32       1.0  0.07791354795300985  0.5372078771062123  0.6422001844938663  1.0000
  C   C1        1.0  0.2306683054451568  0.390612171164129  0.9574008662743693  1.0000
  C   C2        1.0  0.2693308396209204  0.109386804725716  0.4574007593214517  1.0000
  C   C3        1.0  0.7693307083048279  0.6093868391158067  0.04259871628352839  1.0000
  C   C4        1.0  0.7306713871215534  0.8906132031472467  0.5425993878059998  1.0000
  C   C5        1.0  0.23852293323072624  0.5198162225685864  0.9796437254117194  1.0000
  C   C6        1.0  0.2614744013703075  0.9801826069239042  0.4796436256836074  1.0000
  C   C7        1.0  0.7614746349143857  0.48018277847720015  0.0203558571455176  1.0000
  C   C8        1.0  0.7385278253721664  0.019817400949065696  0.5203565214438441  1.0000
  C   C9        1.0  0.25839854403729134  0.551261698306959  0.0560126205866496  1.0000
  C   C10       1.0  0.24159614988474953  0.9487366974206567  0.5560127397194704  1.0000
  C   C11       1.0  0.7415990241095753  0.4487373027391184  0.9439875265386701  1.0000
  C   C12       1.0  0.7584043094701086  0.0512623220934145  0.44398684283908807  1.0000
  C   C13       1.0  0.27432454460277705  0.4536389664694622  0.1076169709387216  1.0000
  C   C14       1.0  0.2256727418874789  0.04636063039369989  0.6076170600219086  1.0000
  C   C15       1.0  0.7256718997202042  0.5463610044669379  0.892383176186101  1.0000
  C   C16       1.0  0.7743306086806497  0.9536384075892315  0.392383651674109  1.0000
  C   C17       1.0  0.2728355513278018  0.3288889953200709  0.0803833329848729  1.0000
  C   C18       1.0  0.22716268922531668  0.17110960376737686  0.5803828636844699  1.0000
  C   C19       1.0  0.7271637842031708  0.671110994084323  0.9196162495731883  1.0000
  C   C20       1.0  0.7728388939551892  0.8288884458566625  0.4196172834426548  1.0000
  C   C21       1.0  0.3588294193011876  0.2776725747530264  0.8254325699075693  1.0000
  C   C22       1.0  0.14117211614038894  0.22232726360462615  0.32543291547762715  1.0000
  C   C23       1.0  0.641172807434252  0.7223274331187853  0.1745653189475789  1.0000
  C   C24       1.0  0.8588260955684459  0.7776736956903818  0.6745672316480196  1.0000
  C   C25       1.0  0.44325843540092774  0.32650544105327833  0.756508444748448  1.0000
  C   C26       1.0  0.056741224801037014  0.173494317497294  0.256508711731918  1.0000
  C   C27       1.0  0.5567423457366729  0.6734945575855492  0.24349170237834267  1.0000
  C   C28       1.0  0.9432595563400881  0.8265056811421019  0.7434925645310315  1.0000
  C   C29       1.0  0.5807596553365357  0.2668035127689663  0.722141553539565  1.0000
  C   C30       1.0  0.9192397259545045  0.2331968455675479  0.2221421521254143  1.0000
  C   C31       1.0  0.4192411257975479  0.7331964858692785  0.2778574644510813  1.0000
  C   C32       1.0  0.08075993136272794  0.7668041229621777  0.7778591241370449  1.0000
  C   C33       1.0  0.6323149030090461  0.1614090996687167  0.7585454890390011  1.0000
  C   C34       1.0  0.8676843834261945  0.3385903168186672  0.25854717401053046  1.0000
  C   C35       1.0  0.36768202157585245  0.8385879431284378  0.2414546580859849  1.0000
  C   C36       1.0  0.13231527388927594  0.6614106517107672  0.7414535376838529  1.0000
  C   C37       1.0  0.5424779240239629  0.119073394929309  0.8271873278295416  1.0000
  C   C38       1.0  0.9575229141085515  0.380925121951357  0.3271885314803313  1.0000
  C   C39       1.0  0.45752108972425987  0.8809256153503353  0.1728116901602803  1.0000
  C   C40       1.0  0.04247770854635759  0.6190787839508901  0.6728110510783907  1.0000
  S   S1        1.0  0.1740258780530084  0.35457556312046995  0.8609042996902758  1.0000
  S   S2        1.0  0.3259758784965142  0.14542431155695112  0.3609036810195789  1.0000
  S   S3        1.0  0.8259752248638251  0.6454254146425242  0.1390952828686096  1.0000
  S   S4        1.0  0.6740237788171938  0.854576656972199  0.6390964661067287  1.0000
  N   N1        1.0  0.2480860845734796  0.2967826636127597  0.0069177710647708  1.0000
  N   N2        1.0  0.251913465420536  0.20321684861004743  0.506916760922536  1.0000
  N   N3        1.0  0.7519146965623662  0.7032173350257763  0.9930818114939441  1.0000
  N   N4        1.0  0.7480873157170648  0.7967831500287728  0.4930833862042618  1.0000
  N   N5        1.0  0.406346500475756  0.1746999238485003  0.8599333446347686  1.0000
  N   N6        1.0  0.09365525002601059  0.32529994983549665  0.3599342155970291  1.0000
  N   N7        1.0  0.5936521914914792  0.8252981073066792  0.1400656733548828  1.0000
  N   N8        1.0  0.906342481419145  0.6747039375984584  0.6400653669603784  1.0000
  Cl  Cl1       1.0  0.06963954541646443  0.9907326644212445  0.0977781605077794  1.0000
  Cl  Cl2       1.0  0.4303615130495828  0.5092667901321092  0.597778434089875  1.0000
  Cl  Cl3       1.0  0.9303609139419109  0.009266355093409102  0.9022225511869237  1.0000
  Cl  Cl4       1.0  0.5696407136946534  0.49073321774114487  0.4022222776056594  1.0000
  Cl  Cl5       1.0  0.37810770643582003  0.8574527191568108  0.9503528744170068  1.0000
  Cl  Cl6       1.0  0.12189265857445969  0.6425470779371094  0.4503531993845016  1.0000
  Cl  Cl7       1.0  0.6218916290969076  0.1425472702478672  0.0496472727091302  1.0000
  Cl  Cl8       1.0  0.8781092463870266  0.3574519508113951  0.5496469477427866  1.0000
