data_image0
_chemical_formula_structural       Fe2H42C62S4N22O2
_chemical_formula_sum              "Fe2 H42 C62 S4 N22 O2"
_cell_length_a       11.733205574915418
_cell_length_b       12.660761884864037
_cell_length_c       12.894
_cell_angle_alpha    84.5303066122683
_cell_angle_beta     67.96677454346182
_cell_angle_gamma    87.47613792305647

_space_group_name_H-M_alt    "P 1"
_space_group_IT_number       1

loop_
  _space_group_symop_operation_xyz
  'x, y, z'

loop_
  _atom_site_type_symbol
  _atom_site_label
  _atom_site_symmetry_multiplicity
  _atom_site_fract_x
  _atom_site_fract_y
  _atom_site_fract_z
  _atom_site_occupancy
  Fe  Fe1       1.0  0.9998655021023594  0.0006609743355881  0.9998503442517687  1.0000
  Fe  Fe2       1.0  0.5165189294705073  0.4954577923007122  0.4895131187414421  1.0000
  H   H1        1.0  0.9805545994350735  0.7826269397720153  0.9498024339250932  1.0000
  H   H2        1.0  0.019718198881769004  0.21848098017228065  0.0498372578405153  1.0000
  H   H3        1.0  0.1431839573362979  0.0404249681882476  0.13363655775827965  1.0000
  H   H4        1.0  0.8564875712453315  0.9600600647771386  0.8661976651108602  1.0000
  H   H5        1.0  0.40705081778497026  0.1589393328808413  0.7473931284419423  1.0000
  H   H6        1.0  0.5934440224610711  0.8415052322680765  0.2527873727178544  1.0000
  H   H7        1.0  0.29221615666350687  0.9437705784202775  0.6046046967964427  1.0000
  H   H8        1.0  0.7078628675688279  0.05775788942061409  0.39527583578250614  1.0000
  H   H9        1.0  0.9881079309763764  0.055758303195311484  0.39687302259601853  1.0000
  H   H10       1.0  0.011919697239740403  0.9450536462481762  0.6025228606421251  1.0000
  H   H11       1.0  0.478638387100112  0.188333250392823  0.9047076944324102  1.0000
  H   H12       1.0  0.5217799646135007  0.8113321109175046  0.09566336275275227  1.0000
  H   H13       1.0  0.0697349412970993  0.9014864711344471  0.2839239273982983  1.0000
  H   H14       1.0  0.9305883443273544  0.09909854114219739  0.7158560486188605  1.0000
  H   H15       1.0  0.12251912672528678  0.4021834427830129  0.8615405468935718  1.0000
  H   H16       1.0  0.8726716380321308  0.602318219338123  0.1325580937593713  1.0000
  H   H17       1.0  0.3416366071315906  0.12341335094458829  0.10340470903769729  1.0000
  H   H18       1.0  0.6583452208924925  0.8762321732008046  0.8968457774670924  1.0000
  H   H19       1.0  0.538331873438537  0.5529205047071173  0.7140532444007235  1.0000
  H   H20       1.0  0.464276123453253  0.438029993304589  0.29855599957490847  1.0000
  H   H21       1.0  0.027682698235004508  0.5002671145672082  0.6347022847689416  1.0000
  H   H22       1.0  0.9755929771076312  0.4998664038355542  0.37483723061839663  1.0000
  H   H23       1.0  0.2913679177890742  0.854833426643651  0.2193351330797029  1.0000
  H   H24       1.0  0.7086170063272589  0.14495651206245697  0.7818857342681509  1.0000
  H   H25       1.0  0.23487501813971787  0.7559657901012782  0.6089238162432266  1.0000
  H   H26       1.0  0.7665562919837113  0.24540477390673487  0.39092245850086743  1.0000
  H   H27       1.0  0.4022696428284007  0.6624478401981974  0.35260981172958583  1.0000
  H   H28       1.0  0.5900597489637178  0.33772931996741556  0.6365751958108561  1.0000
  H   H29       1.0  0.3505415117877391  0.1100359603999763  0.3928314037827221  1.0000
  H   H30       1.0  0.6492259664952654  0.8909481756351382  0.6070024576005081  1.0000
  H   H31       1.0  0.0733787132445656  0.6726425560008663  0.7877127790865329  1.0000
  H   H32       1.0  0.9277072664968884  0.3284264831001664  0.21202134317446303  1.0000
  H   H33       1.0  0.20961532953558754  0.4605348601784413  0.999179310197789  1.0000
  H   H34       1.0  0.7754801792979577  0.5434264375699057  0.0019379315064966122  1.0000
  H   H35       1.0  0.1978049734723015  0.7271685745105001  0.3503525445374719  1.0000
  H   H36       1.0  0.7867002478444078  0.2748478875877538  0.6550260040069702  1.0000
  H   H37       1.0  0.4215392660821351  0.5385909302456966  0.9229955904910552  1.0000
  H   H38       1.0  0.5663748485881683  0.45894868047034976  0.0892658486961224  1.0000
  H   H39       1.0  0.005470217596531801  0.6452418768214087  0.4949422304330041  1.0000
  H   H40       1.0  0.9862291822901597  0.3549527400493487  0.5198307973567324  1.0000
  H   H41       1.0  0.4318092666975772  0.9584111996278535  0.2780149898114246  1.0000
  H   H42       1.0  0.5680438065361314  0.04194528850875658  0.7229302951618306  1.0000
  C   C1        1.0  0.15246583378525003  0.2020145463042198  0.5414677908198087  1.0000
  C   C2        1.0  0.8494394460440374  0.7989576874319367  0.45715888291891105  1.0000
  C   C3        1.0  0.1933262177418982  0.14717748104842338  0.6940484697549039  1.0000
  C   C4        1.0  0.8084090702104305  0.8538733078608657  0.30475839959747475  1.0000
  C   C5        1.0  0.1628489742418324  0.9621231299302266  0.7721748973707674  1.0000
  C   C6        1.0  0.8369912825650372  0.0392894888674533  0.22760099564349195  1.0000
  C   C7        1.0  0.2058316852729192  0.31964099949438207  0.6332414273572764  1.0000
  C   C8        1.0  0.8014210204018751  0.6808876752338546  0.36244882853843313  1.0000
  C   C9        1.0  0.22486076978010766  0.5043757881682538  0.5612164711834566  1.0000
  C   C10       1.0  0.7794912745720881  0.4960505267889274  0.4350857908943053  1.0000
  C   C11       1.0  0.23775037230630863  0.0896814422049275  0.8605164169572745  1.0000
  C   C12       1.0  0.7622987940612233  0.9113582378919958  0.13931458092211807  1.0000
  C   C13       1.0  0.047504896004582485  0.8156867653637219  0.8706513224348669  1.0000
  C   C14       1.0  0.9527505525305671  0.18549812278051545  0.12901811039335337  1.0000
  C   C15       1.0  0.2864847067724625  0.4462624167520274  0.7195564275735222  1.0000
  C   C16       1.0  0.7179133937436076  0.553094278271935  0.27934689774859583  1.0000
  C   C17       1.0  0.9273861870470128  0.20257157389555397  0.8844951095643264  1.0000
  C   C18       1.0  0.07389714017161711  0.7987061521805783  0.11379178920496  1.0000
  C   C19       1.0  0.20364446512266451  0.07009422554951068  0.05021396535189378  1.0000
  C   C20       1.0  0.7961985434985195  0.930434449178726  0.9496902542926833  1.0000
  C   C21       1.0  0.35145803640349266  0.13685263344379447  0.8352451658783905  1.0000
  C   C22       1.0  0.6488290328051675  0.8636784217442395  0.16483219868686655  1.0000
  C   C23       1.0  0.1652411066160369  0.0919960426093809  0.39895264172053396  1.0000
  C   C24       1.0  0.834574227634526  0.9088952554938458  0.6008022211504809  1.0000
  C   C25       1.0  0.22101731758115048  0.9059030175352658  0.6781374287241346  1.0000
  C   C26       1.0  0.7792386953846631  0.09549293804386848  0.3217199051775878  1.0000
  C   C27       1.0  0.08509875155600348  0.0341572175558369  0.36995999553735004  1.0000
  C   C28       1.0  0.9148996033146092  0.9666404491289029  0.6296946194736183  1.0000
  C   C29       1.0  0.39009253539626343  0.1518907914366423  0.922333457309712  1.0000
  C   C30       1.0  0.6101505463258476  0.8481840089579151  0.07787375306976685  1.0000
  C   C31       1.0  0.1316208359690734  0.9474944110216084  0.30679869838212426  1.0000
  C   C32       1.0  0.8685478449833538  0.053104090527199284  0.6931863525291319  1.0000
  C   C33       1.0  0.2146887537287654  0.4347052844617209  0.8343352033596928  1.0000
  C   C34       1.0  0.7815191462056603  0.5672961013911858  0.16357298448227198  1.0000
  C   C35       1.0  0.3150033092007547  0.1166147577785495  0.0319819491067648  1.0000
  C   C36       1.0  0.6850193811742072  0.8834338575582946  0.9681664497902458  1.0000
  C   C37       1.0  0.4467919492631225  0.5185514262297913  0.7518129189067435  1.0000
  C   C38       1.0  0.5534838477699822  0.4757221936515919  0.2569639319805219  1.0000
  C   C39       1.0  0.10734834050774111  0.5385115815859578  0.5694941449723956  1.0000
  C   C40       1.0  0.8932978433659429  0.46179094946203486  0.4362490402242329  1.0000
  C   C41       1.0  0.25634084575247573  0.9207737498560745  0.2717268653776869  1.0000
  C   C42       1.0  0.7436978909287647  0.07950021567441469  0.7288409079650862  1.0000
  C   C43       1.0  0.48780507448478255  0.2552106812767079  0.5023789279983149  1.0000
  C   C44       1.0  0.5223025598967155  0.7372593435689152  0.4896188284160201  1.0000
  C   C45       1.0  0.1889301905053671  0.800894588216053  0.6815476779090944  1.0000
  C   C46       1.0  0.8118630220834291  0.20038869226625877  0.31825857924274464  1.0000
  C   C47       1.0  0.3164906540686445  0.6273923958141693  0.41142972581825876  1.0000
  C   C48       1.0  0.6775554063785947  0.3729529835100819  0.5825986838067577  1.0000
  C   C49       1.0  0.2896791600909054  0.06533409945205189  0.3670070852462146  1.0000
  C   C50       1.0  0.7101310781996304  0.9355167308347132  0.6329409890199713  1.0000
  C   C51       1.0  0.10049721666172222  0.7550961287905906  0.7800671978977789  1.0000
  C   C52       1.0  0.9002318462250329  0.24607844402787998  0.2196524727860663  1.0000
  C   C53       1.0  0.2636431099720866  0.4666232828398549  0.9092205193417797  1.0000
  C   C54       1.0  0.7272949649578209  0.5349900880669479  0.09278989864454702  1.0000
  C   C55       1.0  0.20287157438714593  0.6640475091784452  0.41186751365647467  1.0000
  C   C56       1.0  0.7875956774755508  0.3375730031077424  0.5909901028107142  1.0000
  C   C57       1.0  0.3814588458427579  0.5101626859226797  0.8671725211959184  1.0000
  C   C58       1.0  0.6114216689463845  0.48785460372496897  0.14103379197086946  1.0000
  C   C59       1.0  0.0960745792302546  0.6187124459258299  0.49234784109361834  1.0000
  C   C60       1.0  0.8982131715349623  0.3819098602208938  0.5162650237893233  1.0000
  C   C61       1.0  0.3347850222878463  0.9792307009689479  0.30292354554038065  1.0000
  C   C62       1.0  0.6651242926076719  0.021287658433521994  0.6976042658573292  1.0000
  S   S1        1.0  0.48772325725919796  0.1273895122838766  0.526358027310934  1.0000
  S   S2        1.0  0.5102956072756584  0.8651773179266228  0.4733125719134819  1.0000
  S   S3        1.0  0.8858241936490927  0.3156211963922431  0.8380154470658211  1.0000
  S   S4        1.0  0.11717974027994417  0.685534332747899  0.1583592422083484  1.0000
  N   N1        1.0  0.159983441568194  0.11989423788536867  0.6113083449296255  1.0000
  N   N2        1.0  0.839682222611664  0.8813319115619291  0.3886206059729317  1.0000
  N   N3        1.0  0.170804603393897  0.30384823574745917  0.54768967252393  1.0000
  N   N4        1.0  0.8350393394944219  0.6967875596714208  0.4486467441843587  1.0000
  N   N5        1.0  0.21836443722772003  0.2453389145191593  0.7089087209769429  1.0000
  N   N6        1.0  0.7870579238052569  0.755254826110061  0.287836134195203  1.0000
  N   N7        1.0  0.0757909816958175  0.9191137758944306  0.8674147438981091  1.0000
  N   N8        1.0  0.9240808452381657  0.08218061340024008  0.13228077999554003  1.0000
  N   N9        1.0  0.32762240264763426  0.5470550517795515  0.483636507046853  1.0000
  N   N10       1.0  0.6715904257875138  0.45280153980073107  0.5061494334125811  1.0000
  N   N11       1.0  0.1986227011241724  0.0676010906606592  0.7733319091599495  1.0000
  N   N12       1.0  0.8013296068909311  0.9337345599370792  0.22647498096713983  1.0000
  N   N13       1.0  0.4008911839855926  0.4852027715166471  0.6793066719289483  1.0000
  N   N14       1.0  0.6041437778698082  0.5097603882178275  0.32694960383552996  1.0000
  N   N15       1.0  0.23729990086819444  0.4216548103952177  0.6394378305250967  1.0000
  N   N16       1.0  0.7735982818529764  0.577907397657455  0.3541382833934321  1.0000
  N   N17       1.0  0.1627781607252743  0.058804498242508885  0.9665396613751014  1.0000
  N   N18       1.0  0.837078654800244  0.942253432046158  0.03323663162937157  1.0000
  N   N19       1.0  0.9592452095049069  0.11935228653938879  0.9158731246103785  1.0000
  N   N20       1.0  0.04073519280157  0.8819341678893124  0.08371782861244978  1.0000
  N   N21       1.0  0.48565981615612225  0.3492618541732071  0.48705244989088925  1.0000
  N   N22       1.0  0.5324677573492594  0.6434985867670449  0.5002158668512138  1.0000
  O   O1        1.0  0.1196817074251371  0.18378895264984146  0.454316321506063  1.0000
  O   O2        1.0  0.8801962514274493  0.8170039531153179  0.5454255965881032  1.0000
