data_image0
_chemical_formula_structural       Cu12H132C108N24O12
_chemical_formula_sum              "Cu12 H132 C108 N24 O12"
_cell_length_a       15.800619331972682
_cell_length_b       16.374723566271378
_cell_length_c       16.378047603762898
_cell_angle_alpha    110.18261409815543
_cell_angle_beta     108.76987599433104
_cell_angle_gamma    108.75469509312798

_space_group_name_H-M_alt    "P 1"
_space_group_IT_number       1

loop_
  _space_group_symop_operation_xyz
  'x, y, z'

loop_
  _atom_site_type_symbol
  _atom_site_label
  _atom_site_symmetry_multiplicity
  _atom_site_fract_x
  _atom_site_fract_y
  _atom_site_fract_z
  _atom_site_occupancy
  Cu  Cu1       1.0  0.6424653252073894  0.4452723389247523  0.13545688970832256  1.0000
  Cu  Cu2       1.0  0.5069688306868513  0.8647134584209863  0.30985739257180717  1.0000
  Cu  Cu3       1.0  0.19704739841892385  0.6900482683716972  0.554859596616538  1.0000
  Cu  Cu4       1.0  0.35752764709285856  0.5547207885930588  0.8645318284147977  1.0000
  Cu  Cu5       1.0  0.49303715966716777  0.13529903557452627  0.6901512063499523  1.0000
  Cu  Cu6       1.0  0.8029578256862138  0.30994932962674676  0.4451466847717001  1.0000
  Cu  Cu7       1.0  0.7111613467825748  0.4141771692126069  0.3312628975917491  1.0000
  Cu  Cu8       1.0  0.3797544014992552  0.6688571032061856  0.08281202758421097  1.0000
  Cu  Cu9       1.0  0.2969253489863347  0.9170791893713002  0.5860585071068629  1.0000
  Cu  Cu10      1.0  0.28883250802442006  0.5858137247245522  0.6687326524468348  1.0000
  Cu  Cu11      1.0  0.6202460836443606  0.3311457073826033  0.917185416739791  1.0000
  Cu  Cu12      1.0  0.7030811511775569  0.08292362143029658  0.4139420297462522  1.0000
  H   H1        1.0  0.4661306137922807  0.45750691107564717  0.0531177193473056  1.0000
  H   H2        1.0  0.41295590084068556  0.9468799594799008  0.40462508169377304  1.0000
  H   H3        1.0  0.00857124825422759  0.5954553670033533  0.5424628023436356  1.0000
  H   H4        1.0  0.5338605604911493  0.5424772790438152  0.9468710237022647  1.0000
  H   H5        1.0  0.5870488364445022  0.05313402298754968  0.5953738710269647  1.0000
  H   H6        1.0  0.9914343573532918  0.40454967924480195  0.4575467744007256  1.0000
  H   H7        1.0  0.39328493554445026  0.4893296390915083  0.10904029519175402  1.0000
  H   H8        1.0  0.2841194856661388  0.8909013905969017  0.38040871878997967  1.0000
  H   H9        1.0  0.9037951210670486  0.6194493300942767  0.5106408709094198  1.0000
  H   H10       1.0  0.6067056457666808  0.5106560407993823  0.8909499977885461  1.0000
  H   H11       1.0  0.7158845049335198  0.10911110251432629  0.6195919308088946  1.0000
  H   H12       1.0  0.09620803180605712  0.38055348145825707  0.48936534114945124  1.0000
  H   H13       1.0  0.3403135004455819  0.367337552403171  0.011862005244907365  1.0000
  H   H14       1.0  0.3283949845199812  0.9881554193999945  0.3557576895646336  1.0000
  H   H15       1.0  0.9728255589984086  0.6442268525152953  0.6325792069093766  1.0000
  H   H16       1.0  0.6596787114481656  0.6326473830480025  0.988131591410415  1.0000
  H   H17       1.0  0.6716083399583399  0.0118570733447072  0.6442396998058371  1.0000
  H   H18       1.0  0.027180416244291832  0.3557789389850966  0.36743440502874597  1.0000
  H   H19       1.0  0.5189631902024914  0.27346046456308665  0.3381264220805704  1.0000
  H   H20       1.0  0.1808258356430769  0.6620648368098898  0.9354756701913871  1.0000
  H   H21       1.0  0.24540845121293134  0.06450113332893177  0.7267496191594135  1.0000
  H   H22       1.0  0.48103066414105905  0.7265304294458302  0.6618697384121222  1.0000
  H   H23       1.0  0.819171149886863  0.3379349951868988  0.06452576492344517  1.0000
  H   H24       1.0  0.7545981188558668  0.9355031681129798  0.2732600010315666  1.0000
  H   H25       1.0  0.4024682689404244  0.27672623325040036  0.3185850219624839  1.0000
  H   H26       1.0  0.08380251059678284  0.6815260125157534  0.9581834094113191  1.0000
  H   H27       1.0  0.1257200767128808  0.041932975495683394  0.7235122091588408  1.0000
  H   H28       1.0  0.5975242480625269  0.7232646608148984  0.6814113330685532  1.0000
  H   H29       1.0  0.9161927656401404  0.31847307464398966  0.04181723731861826  1.0000
  H   H30       1.0  0.8742838955313343  0.9580728156227918  0.2764977266351353  1.0000
  H   H31       1.0  0.521939167559907  0.38106165274879794  0.4172882425592378  1.0000
  H   H32       1.0  0.10457022600885316  0.5827964075365344  0.9637167103487273  1.0000
  H   H33       1.0  0.1409068137205622  0.03630464217116719  0.6192312860519494  1.0000
  H   H34       1.0  0.47805617922779914  0.6189322201161074  0.5827057450853914  1.0000
  H   H35       1.0  0.8954271300831634  0.41720416956895423  0.03628753905166356  1.0000
  H   H36       1.0  0.8590983435413618  0.9636981695479888  0.38077677078876343  1.0000
  H   H37       1.0  0.21897816101247966  0.24102217944590618  0.04124219924178622  1.0000
  H   H38       1.0  0.17776170196977134  0.9589281355785456  0.2003275726332063  1.0000
  H   H39       1.0  0.9774072012755751  0.7997069408976427  0.7586113160070057  1.0000
  H   H40       1.0  0.7810116204908796  0.7589739275198895  0.9587483844150668  1.0000
  H   H41       1.0  0.8222369250830824  0.0410776551195156  0.7996776472272131  1.0000
  H   H42       1.0  0.022589788425385348  0.20029289045324816  0.24138462502089914  1.0000
  H   H43       1.0  0.05607189031834279  0.22816228098993455  0.034774948951003644  1.0000
  H   H44       1.0  0.021330453540080712  0.9653900911148054  0.1938779084716416  1.0000
  H   H45       1.0  0.8273553407562417  0.8061620608398241  0.7714030452783618  1.0000
  H   H46       1.0  0.9439197495567837  0.7718375506582048  0.9652223806843808  1.0000
  H   H47       1.0  0.9786641542582616  0.0346089960372424  0.8061225303004206  1.0000
  H   H48       1.0  0.1726450675307589  0.19383926018514328  0.22859447251933326  1.0000
  H   H49       1.0  0.2593093861546406  0.34656805750964975  0.4794383157564468  1.0000
  H   H50       1.0  0.7798991466874908  0.5206864173057963  0.8672867060868087  1.0000
  H   H51       1.0  0.9124920270180328  0.1329992253354177  0.6536159687050614  1.0000
  H   H52       1.0  0.7406913871330756  0.6534340094852168  0.5205693417760598  1.0000
  H   H53       1.0  0.22009523563893638  0.47930820036535227  0.13270723811120894  1.0000
  H   H54       1.0  0.08750764459684031  0.8670073096178611  0.3463849479495451  1.0000
  H   H55       1.0  0.36222689442698897  0.40192708207551664  0.4611214751500158  1.0000
  H   H56       1.0  0.9011580511507874  0.5389832685560946  0.9409666587312132  1.0000
  H   H57       1.0  0.9602120048121493  0.0594214572019922  0.5983704696093426  1.0000
  H   H58       1.0  0.6377746118252787  0.59806977156515  0.53888766715842  1.0000
  H   H59       1.0  0.09883789278024575  0.4610091138914925  0.05902028489574474  1.0000
  H   H60       1.0  0.0397963660541476  0.9405917812076648  0.40163546293057106  1.0000
  H   H61       1.0  0.3702376314511895  0.45959779131263906  0.5798377852014838  1.0000
  H   H62       1.0  0.7904046924642859  0.42024115669534723  0.8798110932834932  1.0000
  H   H63       1.0  0.9105927021667455  0.12049219717563628  0.5407154222850821  1.0000
  H   H64       1.0  0.629763656098433  0.5404012966340374  0.4201708376903995  1.0000
  H   H65       1.0  0.20958857122419514  0.5797512267261736  0.12018356486940732  1.0000
  H   H66       1.0  0.08941083637975555  0.8795180619807184  0.45928859104297004  1.0000
  H   H67       1.0  0.38251136369818534  0.4602753320682921  0.3525115731853248  1.0000
  H   H68       1.0  0.02989031613380169  0.6475701336585258  0.10786330756172197  1.0000
  H   H69       1.0  0.9221280699968017  0.8922090099467607  0.5398098086241419  1.0000
  H   H70       1.0  0.6174851539228143  0.5397088587586436  0.6474843276142082  1.0000
  H   H71       1.0  0.9701097984477299  0.352431931821556  0.8921313224767147  1.0000
  H   H72       1.0  0.07787887851267779  0.10779603538383502  0.46019224813262843  1.0000
  H   H73       1.0  0.05569060239655939  0.33108824663264597  0.18761243514595796  1.0000
  H   H74       1.0  0.867888374106272  0.812377713387022  0.1435045079345799  1.0000
  H   H75       1.0  0.7243184546252266  0.8564368809431284  0.6687281985923478  1.0000
  H   H76       1.0  0.9443079387131733  0.668909351073523  0.8123899353011836  1.0000
  H   H77       1.0  0.13210734417041434  0.187616904443061  0.8564910730873976  1.0000
  H   H78       1.0  0.2756859738431743  0.14357114348432987  0.33127287938550154  1.0000
  H   H79       1.0  0.04129949711510498  0.4970026731619938  0.27047302432843884  1.0000
  H   H80       1.0  0.7709674681190819  0.7296328868174199  0.22665919080874633  1.0000
  H   H81       1.0  0.5441992237857676  0.7734243010402293  0.5028536272817237  1.0000
  H   H82       1.0  0.9586981473034581  0.5029904554861772  0.7295263063113994  1.0000
  H   H83       1.0  0.2290235007192294  0.27036024039023226  0.7733264616243221  1.0000
  H   H84       1.0  0.45580736046745335  0.22658670304033277  0.49715220080108946  1.0000
  H   H85       1.0  0.14928137764822935  0.5458130553254533  0.25554444304038537  1.0000
  H   H86       1.0  0.8939133969192169  0.7445881528416007  0.2903648519087056  1.0000
  H   H87       1.0  0.6034271757355539  0.7097213916925539  0.4540610783455818  1.0000
  H   H88       1.0  0.8507122570657801  0.45418007313300285  0.744452418943972  1.0000
  H   H89       1.0  0.10607639088996015  0.25541465798286106  0.7096323173597483  1.0000
  H   H90       1.0  0.3965725667111214  0.29028663375750335  0.5459477007386796  1.0000
  H   H91       1.0  0.13217544715096335  0.6255746547874422  0.3478334980289547  1.0000
  H   H92       1.0  0.7845756909417574  0.6523728602970492  0.27793756494022415  1.0000
  H   H93       1.0  0.5065715448146051  0.7222328298017543  0.37433165511832567  1.0000
  H   H94       1.0  0.8678221227282278  0.37441698393808304  0.6521628538140618  1.0000
  H   H95       1.0  0.21541550522225347  0.3476247361044357  0.7220521402504758  1.0000
  H   H96       1.0  0.49343028212163625  0.2777766848763932  0.6256746220953462  1.0000
  H   H97       1.0  0.8951910613574582  0.4803554932453266  0.3219917489164885  1.0000
  H   H98       1.0  0.5730626474956891  0.6780324517907486  0.15837708741035073  1.0000
  H   H99       1.0  0.41475489831508117  0.841461387995423  0.5198909860569644  1.0000
  H   H100      1.0  0.10480964805016403  0.519645082176268  0.6779988893748056  1.0000
  H   H101      1.0  0.4269467656153907  0.32198153123295004  0.8416275941942644  1.0000
  H   H102      1.0  0.5852473410841768  0.15852354742767005  0.4801045090583287  1.0000
  H   H103      1.0  0.8986642677312986  0.5907352758115393  0.323465537440562  1.0000
  H   H104      1.0  0.5748658171137889  0.6766189302535678  0.2671984983636052  1.0000
  H   H105      1.0  0.3077397773475711  0.7325743947956127  0.4096456798942898  1.0000
  H   H106      1.0  0.10132588387069315  0.40926157633473537  0.676528470955951  1.0000
  H   H107      1.0  0.4251389187810588  0.32339505242917704  0.7328022857194442  1.0000
  H   H108      1.0  0.6922537013359785  0.26741575489402436  0.5903543813079821  1.0000
  H   H109      1.0  0.8658848598447619  0.4878572778201613  0.21047754636349944  1.0000
  H   H110      1.0  0.6553249220308642  0.7895717991018998  0.2774392508875537  1.0000
  H   H111      1.0  0.37792813770210626  0.7224563649456143  0.5124991820148209  1.0000
  H   H112      1.0  0.1341026221739625  0.5121395736494279  0.7895101361145579  1.0000
  H   H113      1.0  0.34467521026022746  0.21044367330609495  0.7225618353789542  1.0000
  H   H114      1.0  0.62206125024926  0.27753229563637655  0.48750397809261165  1.0000
  H   H115      1.0  0.4348709045519854  0.2558884171353881  0.013649417925307696  1.0000
  H   H116      1.0  0.42118719414684574  0.9864975147722317  0.24240164675121192  1.0000
  H   H117      1.0  0.17921450833244984  0.7577818257520761  0.7443450199408874  1.0000
  H   H118      1.0  0.565128455184407  0.7441054554168641  0.9863427651960776  1.0000
  H   H119      1.0  0.5788280129646283  0.0135187031291082  0.7576086602364995  1.0000
  H   H120      1.0  0.8207943544517208  0.24221502739914055  0.2556615262713748  1.0000
  H   H121      1.0  0.5146496419114897  0.2056906991047072  0.9890907904741155  1.0000
  H   H122      1.0  0.5255523350715664  0.011135710771348799  0.2167801705764703  1.0000
  H   H123      1.0  0.3091203967667793  0.7830647406852832  0.7941807751921888  1.0000
  H   H124      1.0  0.4853577500280933  0.79430987668092  0.010904369212376431  1.0000
  H   H125      1.0  0.47447177580955463  0.9888782736417098  0.7832394638212535  1.0000
  H   H126      1.0  0.6908869737556671  0.21692242874656387  0.2058128118990723  1.0000
  H   H127      1.0  0.4186791932577805  0.20262795345207954  0.891061936544709  1.0000
  H   H128      1.0  0.5276156283867551  0.10911613692835687  0.3118140540563772  1.0000
  H   H129      1.0  0.2162182265044592  0.688269445151967  0.7974175167174239  1.0000
  H   H130      1.0  0.5813235859915479  0.7973674086307267  0.10893060243826362  1.0000
  H   H131      1.0  0.472406261720124  0.8909000812652506  0.6882001638724377  1.0000
  H   H132      1.0  0.7837930822448558  0.3117229389079694  0.20258641902283614  1.0000
  C   C1        1.0  0.45501227338191796  0.4031129636717807  0.15294310716014087  1.0000
  C   C2        1.0  0.3019886329014267  0.8471092990754623  0.2503533043172013  1.0000
  C   C3        1.0  0.05169112670385782  0.7496450409639265  0.596904112855114  1.0000
  C   C4        1.0  0.5449758542678964  0.5968704816670254  0.847045042042872  1.0000
  C   C5        1.0  0.6980125302307129  0.15290021487732725  0.749646660397552  1.0000
  C   C6        1.0  0.9483131401727222  0.2503600055558976  0.4031074897899033  1.0000
  C   C7        1.0  0.4116417446918986  0.36665978118880094  0.2043559983401195  1.0000
  C   C8        1.0  0.2072081175004781  0.795746776905254  0.1624682744713581  1.0000
  C   C9        1.0  0.04472251672915191  0.8375068301898522  0.6333421126259254  1.0000
  C   C10       1.0  0.5883458568288232  0.6333199402007139  0.7956319253411551  1.0000
  C   C11       1.0  0.7927905891896644  0.20426050292603998  0.8375332091907384  1.0000
  C   C12       1.0  0.9552836809237703  0.16249672643041174  0.36666713509590926  1.0000
  C   C13       1.0  0.4880717830193575  0.3587350620018269  0.2697764123059019  1.0000
  C   C14       1.0  0.21820277090420592  0.7303105563189973  0.08909379797586343  1.0000
  C   C15       1.0  0.12909930033092093  0.9109148625354846  0.6413509410098898  1.0000
  C   C16       1.0  0.5119220731779848  0.6412558317200308  0.7302173063703707  1.0000
  C   C17       1.0  0.7817971953430316  0.2696952340356376  0.9109087855297986  1.0000
  C   C18       1.0  0.8709071160246538  0.08908645977876965  0.3586588261284902  1.0000
  C   C19       1.0  0.4117427221461866  0.4306072413556733  0.0779212016606721  1.0000
  C   C20       1.0  0.33376100329603986  0.9220856223172831  0.35290295426268176  1.0000
  C   C21       1.0  0.9809951560999364  0.6470881368116108  0.5693568628040069  1.0000
  C   C22       1.0  0.5882465218243453  0.5693784385915845  0.9220692858579795  1.0000
  C   C23       1.0  0.6662434375029989  0.07792910503587788  0.6470967734234208  1.0000
  C   C24       1.0  0.019010152094530445  0.35291765446579143  0.43065470981392917  1.0000
  C   C25       1.0  0.48268180665179017  0.32065350139396986  0.3396319377141027  1.0000
  C   C26       1.0  0.14298296763914203  0.6604869845942147  0.9810938044043241  1.0000
  C   C27       1.0  0.1619317996278511  0.018933830492052592  0.6795487451220907  1.0000
  C   C28       1.0  0.517312421034518  0.6793381372930654  0.6603633743395251  1.0000
  C   C29       1.0  0.8570155070908286  0.33951582676090186  0.01890973104117686  1.0000
  C   C30       1.0  0.8380758103685008  0.9810712159227318  0.3204626764041124  1.0000
  C   C31       1.0  0.3123313186608314  0.3511468578127221  0.19798035493839455  1.0000
  C   C32       1.0  0.11428282969316667  0.8021226716894531  0.1533917242767943  1.0000
  C   C33       1.0  0.960893093425085  0.8466257189921649  0.6487697551718842  1.0000
  C   C34       1.0  0.6876610460192367  0.6488410569096316  0.8020143156777308  1.0000
  C   C35       1.0  0.8857157237472039  0.19788162894243294  0.8466092958785936  1.0000
  C   C36       1.0  0.039109615273453364  0.15337485738547935  0.3512294428963969  1.0000
  C   C37       1.0  0.21925714097303473  0.2859303038697049  0.108372978518986  1.0000
  C   C38       1.0  0.11084720848519664  0.8917555691359025  0.17794645721205174  1.0000
  C   C39       1.0  0.9328456843341896  0.8220166105944171  0.7137677589187276  1.0000
  C   C40       1.0  0.7807331534018899  0.7140628242632089  0.8916204018595622  1.0000
  C   C41       1.0  0.8891533460998743  0.1082487321649666  0.8220606809039096  1.0000
  C   C42       1.0  0.06714944328742689  0.17797949664825546  0.28622631976346474  1.0000
  C   C43       1.0  0.12758899059728887  0.27883586590024106  0.10495141329414542  1.0000
  C   C44       1.0  0.022567525847591613  0.8951610228347563  0.17424171644722034  1.0000
  C   C45       1.0  0.8482622376153087  0.825735301871269  0.7208195496854588  1.0000
  C   C46       1.0  0.8724052452486363  0.721162476358401  0.8950480425546702  1.0000
  C   C47       1.0  0.9774318364870497  0.10483955415029556  0.8257619359186066  1.0000
  C   C48       1.0  0.1517392893096456  0.1742682534033264  0.2791772541573537  1.0000
  C   C49       1.0  0.27220040007193796  0.47611992050494917  0.4682773410864983  1.0000
  C   C50       1.0  0.8039864031916936  0.5317543802162277  0.007960240192744546  1.0000
  C   C51       1.0  0.7960288355336118  0.9922694844494796  0.5239439652552562  1.0000
  C   C52       1.0  0.7277980641811865  0.5238761876373985  0.5317251028343365  1.0000
  C   C53       1.0  0.19601444389094502  0.4682424719814332  0.9920364850757224  1.0000
  C   C54       1.0  0.20397654923645803  0.007731091600120997  0.4760530123740239  1.0000
  C   C55       1.0  0.3190559974034031  0.418605437893781  0.4991345998554167  1.0000
  C   C56       1.0  0.8199379266331306  0.5009442715980794  0.9195660001145144  1.0000
  C   C57       1.0  0.9003404509615792  0.08073828982728055  0.5816412890149891  1.0000
  C   C58       1.0  0.6809443256849406  0.5813943948591458  0.500873979589855  1.0000
  C   C59       1.0  0.18005786942705973  0.49905183565229544  0.08042828652556011  1.0000
  C   C60       1.0  0.09966360370061246  0.9192689899938313  0.41836124785603357  1.0000
  C   C61       1.0  0.22273450356473745  0.46407417166734166  0.37276205522029926  1.0000
  C   C62       1.0  0.8499739649282602  0.6273021049581827  0.0914207522411203  1.0000
  C   C63       1.0  0.758567925455047  0.908766294569716  0.5359538702042812  1.0000
  C   C64       1.0  0.777265593588247  0.5359211916764508  0.6272406401050291  1.0000
  C   C65       1.0  0.15002636835591684  0.37269772621589675  0.9085743972138616  1.0000
  C   C66       1.0  0.2414384251666491  0.0912335364583399  0.46404131950929894  1.0000
  C   C67       1.0  0.21898233441781648  0.4010388996201184  0.2814842214023301  1.0000
  C   C68       1.0  0.937426458462653  0.7186111684142842  0.11969759005886972  1.0000
  C   C69       1.0  0.8177607553209612  0.8804181649622861  0.5989252536438914  1.0000
  C   C70       1.0  0.78101560416966  0.5989534845011659  0.7185173865426648  1.0000
  C   C71       1.0  0.06257238608493755  0.28138568332968816  0.880294848611335  1.0000
  C   C72       1.0  0.18224731136302103  0.11958911468970969  0.4010766996120907  1.0000
  C   C73       1.0  0.3102781348262837  0.40715303402021147  0.2834343828743258  1.0000
  C   C74       1.0  0.026766171801668338  0.7166637699435443  0.12389577124034214  1.0000
  C   C75       1.0  0.9029176081230688  0.8761901375392964  0.5928319224272586  1.0000
  C   C76       1.0  0.6897177125023575  0.5928311570860955  0.7165637517837455  1.0000
  C   C77       1.0  0.9732325308998923  0.28333680567025965  0.8760960745396249  1.0000
  C   C78       1.0  0.097088452318296  0.12381714223313617  0.4071706278632945  1.0000
  C   C79       1.0  0.1273351130827648  0.33648575149895504  0.19048315738933042  1.0000
  C   C80       1.0  0.9367241297627941  0.8095833485578293  0.14615633692132954  1.0000
  C   C81       1.0  0.790520771819878  0.8538047416898207  0.6633080741274567  1.0000
  C   C82       1.0  0.8726629810717268  0.6635096114629203  0.8095158617918442  1.0000
  C   C83       1.0  0.06327449052078996  0.19041573835333733  0.8538429077815906  1.0000
  C   C84       1.0  0.20948670050145782  0.14620402794889736  0.3366972604215733  1.0000
  C   C85       1.0  0.18310416799412363  0.5305466642724781  0.38532888181918423  1.0000
  C   C86       1.0  0.7978836883548863  0.6147228468176136  0.14536212590900988  1.0000
  C   C87       1.0  0.6524918879629951  0.8548303430280839  0.4693934257418207  1.0000
  C   C88       1.0  0.8168962270353503  0.4694479539703094  0.6146712071784748  1.0000
  C   C89       1.0  0.20211330459020616  0.38527698403091637  0.8546295419401633  1.0000
  C   C90       1.0  0.34751357134645394  0.14517172294416983  0.530606530684274  1.0000
  C   C91       1.0  0.1235402897347696  0.5509465927485235  0.3110332362428139  1.0000
  C   C92       1.0  0.8126684941227963  0.6891058218579358  0.24005766956324245  1.0000
  C   C93       1.0  0.5725486937805825  0.7600900338525488  0.4489588547268894  1.0000
  C   C94       1.0  0.8764576511699431  0.44904579101393677  0.6889653194316594  1.0000
  C   C95       1.0  0.18732441133423805  0.3108925193805802  0.7599328240123526  1.0000
  C   C96       1.0  0.42745447142315385  0.2399194806256942  0.5510460070402345  1.0000
  C   C97       1.0  0.857933109618024  0.5087306322836012  0.27804506453123423  1.0000
  C   C98       1.0  0.5797440607231366  0.7220629177235764  0.2306635542409694  1.0000
  C   C99       1.0  0.3491320338791367  0.7691617282549712  0.4916337734584034  1.0000
  C   C100      1.0  0.14205942203280128  0.4912669643485684  0.7219468879375343  1.0000
  C   C101      1.0  0.42026000626968607  0.2779510650232453  0.7693376323382993  1.0000
  C   C102      1.0  0.6508644159717605  0.23082767643621332  0.5083651237018145  1.0000
  C   C103      1.0  0.47582548128983154  0.24733728657760412  0.9708825519225215  1.0000
  C   C104      1.0  0.504922916928166  0.029299683499495195  0.2766199883769644  1.0000
  C   C105      1.0  0.22858073724125916  0.7233865561065258  0.7527206718837648  1.0000
  C   C106      1.0  0.5241742508624299  0.7526573307962964  0.029110003668009442  1.0000
  C   C107      1.0  0.4950922105460122  0.970715045268612  0.7233940548090703  1.0000
  C   C108      1.0  0.7714250048333612  0.27660806226960216  0.24728169123102367  1.0000
  N   N1        1.0  0.5511475336613072  0.41634425061319275  0.18731825937445726  1.0000
  N   N2        1.0  0.3637612610142894  0.8127601476706656  0.2291933540511479  1.0000
  N   N3        1.0  0.13463115280286783  0.7708306117730716  0.5837436223747475  1.0000
  N   N4        1.0  0.44884394665822913  0.583645897976872  0.8126720211426176  1.0000
  N   N5        1.0  0.636242727268133  0.18725234579939343  0.770810347818241  1.0000
  N   N6        1.0  0.8653756345782356  0.22917145557813257  0.4162683485950894  1.0000
  N   N7        1.0  0.571152540949498  0.38795840820444016  0.2569182260360705  1.0000
  N   N8        1.0  0.3141530541869812  0.7431807872500469  0.1311762315406854  1.0000
  N   N9        1.0  0.18300081904635582  0.8688400311739953  0.6121565288314984  1.0000
  N   N10       1.0  0.42884198414986224  0.6120324854533549  0.7430750901439752  1.0000
  N   N11       1.0  0.6858496626711669  0.25682649269919716  0.8688271103227834  1.0000
  N   N12       1.0  0.8170049293340896  0.1311612910607991  0.3878524198948979  1.0000
  N   N13       1.0  0.2622699544610825  0.5459165149117949  0.5325204689615789  1.0000
  N   N14       1.0  0.7299193042284172  0.4674750577109135  0.013572746835990381  1.0000
  N   N15       1.0  0.7163477450633592  0.9866609759603475  0.4540500061602942  1.0000
  N   N16       1.0  0.7377313391133454  0.4540825721019317  0.46748021802695666  1.0000
  N   N17       1.0  0.2700816956405418  0.5325247737579273  0.9864250523932867  1.0000
  N   N18       1.0  0.28365541105387143  0.0133418350898253  0.545951932719845  1.0000
  N   N19       1.0  0.20864156543215265  0.5786751402199855  0.4822672880136097  1.0000
  N   N20       1.0  0.7265854990022402  0.5177409055004532  0.09659695897419603  1.0000
  N   N21       1.0  0.6299629316860373  0.9036147651617552  0.42122587669457096  1.0000
  N   N22       1.0  0.7913603961174117  0.4213239468731942  0.5177342173869095  1.0000
  N   N23       1.0  0.2734131235985798  0.48225818105188967  0.9033992334582025  1.0000
  N   N24       1.0  0.37004104426575424  0.09639102538259438  0.5787791754665648  1.0000
  O   O1        1.0  0.7530718872761782  0.4677194271049244  0.25362574996107423  1.0000
  O   O2        1.0  0.4994243781773022  0.7466342476064156  0.21401706900226006  1.0000
  O   O3        1.0  0.28539307036709965  0.7858469210149294  0.532738108055142  1.0000
  O   O4        1.0  0.24691885868845986  0.5322759350546207  0.7463648771423906  1.0000
  O   O5        1.0  0.5005770122805374  0.2533797355402072  0.785986948470118  1.0000
  O   O6        1.0  0.7146035322701321  0.21414546294743528  0.4672618630658788  1.0000
  O   O7        1.0  0.5460660044310615  0.3426053202665926  0.9927812576143255  1.0000
  O   O8        1.0  0.5533014075225468  0.007431951145228799  0.34999212704521915  1.0000
  O   O9        1.0  0.20308843851987032  0.6498312241564221  0.6573127177163657  1.0000
  O   O10       1.0  0.4539259342474577  0.657393766137005  0.007212244785179693  1.0000
  O   O11       1.0  0.446704203463895  0.9925797991051224  0.6500252562189531  1.0000
  O   O12       1.0  0.796903486437671  0.3501611595367606  0.34268396633719095  1.0000
