data_image0
_chemical_formula_structural       Sm2Ag2H24C28N4O26
_chemical_formula_sum              "Sm2 Ag2 H24 C28 N4 O26"
_cell_length_a       6.538033444708671
_cell_length_b       6.538006092030194
_cell_length_c       20.28904605337676
_cell_angle_alpha    96.05664655946586
_cell_angle_beta     96.05665053080205
_cell_angle_gamma    103.11689311692494

_space_group_name_H-M_alt    "P 1"
_space_group_IT_number       1

loop_
  _space_group_symop_operation_xyz
  'x, y, z'

loop_
  _atom_site_type_symbol
  _atom_site_label
  _atom_site_symmetry_multiplicity
  _atom_site_fract_x
  _atom_site_fract_y
  _atom_site_fract_z
  _atom_site_occupancy
  Sm  Sm1       1.0  0.9655924460748648  0.034407410266027214  0.7500012451078393  1.0000
  Sm  Sm2       1.0  0.03440790378766688  0.9655943304710493  0.2500002737553971  1.0000
  Ag  Ag1       1.0  0.38114666725020646  0.6188511577448995  0.750000146294177  1.0000
  Ag  Ag2       1.0  0.6188459376993761  0.38114430778243513  0.2499994261776024  1.0000
  H   H1        1.0  0.5730361291552483  0.6286072251028616  0.49964374740974193  1.0000
  H   H2        1.0  0.3713916156440362  0.4269738534061532  0.00035504171526669863  1.0000
  H   H3        1.0  0.4269603462356529  0.37139137601434424  0.5003565516836234  1.0000
  H   H4        1.0  0.6286087221275308  0.5730278752408965  0.9996449977031291  1.0000
  H   H5        1.0  0.8778682619619145  0.2844234018090077  0.494526839299006  1.0000
  H   H6        1.0  0.7155770679969821  0.12213471310898433  0.00547527082746061  1.0000
  H   H7        1.0  0.1221358726457282  0.7155750971549893  0.5054727261622106  1.0000
  H   H8        1.0  0.284418289809743  0.8778655075454653  0.994527016529915  1.0000
  H   H9        1.0  0.5638368132379056  0.7728308739978261  0.40581468868293064  1.0000
  H   H10       1.0  0.227172530649689  0.43616837685834753  0.0941865453263517  1.0000
  H   H11       1.0  0.43615886265295245  0.2271645579222438  0.594185478002892  1.0000
  H   H12       1.0  0.7728366282563283  0.5638316744283642  0.905816196826976  1.0000
  H   H13       1.0  0.2786386548043894  0.9721839738239103  0.6523155428370091  1.0000
  H   H14       1.0  0.027814952780744345  0.7213617914922423  0.8476863172780043  1.0000
  H   H15       1.0  0.7213546921612703  0.027808311747676815  0.347684934056673  1.0000
  H   H16       1.0  0.9721927261234381  0.2786446237359713  0.1523151091797885  1.0000
  H   H17       1.0  0.15025698622341113  0.7441076326793451  0.6553705918055499  1.0000
  H   H18       1.0  0.2558873542287614  0.8497449307991973  0.8446311936614065  1.0000
  H   H19       1.0  0.8497397537979834  0.255879834580604  0.34462885177891434  1.0000
  H   H20       1.0  0.7441173273393815  0.15026788330921198  0.15537083916109407  1.0000
  H   H21       1.0  0.586185965568184  0.25777369484909946  0.7685076794534356  1.0000
  H   H22       1.0  0.7422264107953607  0.41381741292584456  0.7314939041272696  1.0000
  H   H23       1.0  0.4138159056588647  0.7422280149793111  0.23149241049784317  1.0000
  H   H24       1.0  0.2577708560349307  0.5861843493284695  0.2685055410770687  1.0000
  C   C1        1.0  0.671551210146603  0.6380240193374295  0.6353629668510905  1.0000
  C   C2        1.0  0.3619739077743703  0.32844355496982314  0.8646387267108793  1.0000
  C   C3        1.0  0.32844520776033187  0.361968232626893  0.3646381042566418  1.0000
  C   C4        1.0  0.6380287710133528  0.6715613321157438  0.13536248194449743  1.0000
  C   C5        1.0  0.7223356728286416  0.8155700523077913  0.5934498255149026  1.0000
  C   C6        1.0  0.1844271395128914  0.27766634943527896  0.9065510900551319  1.0000
  C   C7        1.0  0.277658791721194  0.18442061372654459  0.4065486631147764  1.0000
  C   C8        1.0  0.8155771342445917  0.7223448720145386  0.09344989026703841  1.0000
  C   C9        1.0  0.6602543714073547  0.7825443901794105  0.5250505946101711  1.0000
  C   C10       1.0  0.21745596210477908  0.33975657427145484  0.9749497361040584  1.0000
  C   C11       1.0  0.3397455666141979  0.21745575386906787  0.47494937860444963  1.0000
  C   C12       1.0  0.7825459706365477  0.6602514887398458  0.02505007498113091  1.0000
  C   C13       1.0  0.7123829559519094  0.9511633034508409  0.4878940880022712  1.0000
  C   C14       1.0  0.0488291149013236  0.28762491904661414  0.012104895221810403  1.0000
  C   C15       1.0  0.28761697400899777  0.0488368325376243  0.5121048989157871  1.0000
  C   C16       1.0  0.9511639593731971  0.7123784923222021  0.98789545088421  1.0000
  C   C17       1.0  0.8299092144380963  0.14881044394336132  0.5212335178494527  1.0000
  C   C18       1.0  0.8511865320522601  0.17009355127513004  0.9787655038020375  1.0000
  C   C19       1.0  0.1700883906279387  0.8511865497266273  0.47876627242474273  1.0000
  C   C20       1.0  0.1488165384248461  0.8299129123489808  0.021234784760544315  1.0000
  C   C21       1.0  0.8895068532343372  0.16498999508092996  0.5900406404610055  1.0000
  C   C22       1.0  0.8350081604435144  0.1104899764219383  0.9099587187421534  1.0000
  C   C23       1.0  0.11048841887618017  0.8350038482105622  0.4099589668727718  1.0000
  C   C24       1.0  0.16499184312263543  0.8895165248394438  0.09004146875466291  1.0000
  C   C25       1.0  0.030603718353766938  0.3642957753071061  0.629934681653481  1.0000
  C   C26       1.0  0.6357038986913819  0.9693904705243315  0.8700660367538049  1.0000
  C   C27       1.0  0.9693907502263881  0.6356948947572365  0.3700643001244757  1.0000
  C   C28       1.0  0.3643037681218359  0.030615932613855503  0.12993391025914752  1.0000
  N   N1        1.0  0.8349869552704373  0.003503417384216303  0.6257578993855688  1.0000
  N   N2        1.0  0.9965011236439804  0.16501102538288143  0.8742431981839828  1.0000
  N   N3        1.0  0.16501251745649634  0.996488784852801  0.37424179334308866  1.0000
  N   N4        1.0  0.003509218390810507  0.8349937635794832  0.1257577699875299  1.0000
  O   O1        1.0  0.7509524340569271  0.6789659121690835  0.6976974332783712  1.0000
  O   O2        1.0  0.3210296774654964  0.24904691685117808  0.8023038453943203  1.0000
  O   O3        1.0  0.24904245442485257  0.3210263626438846  0.3023040804447562  1.0000
  O   O4        1.0  0.6789683969254766  0.7509580226602922  0.1976967185141234  1.0000
  O   O5        1.0  0.5562665702450077  0.46400639066330046  0.6076099838445899  1.0000
  O   O6        1.0  0.5359944419694712  0.4437234623148998  0.8923911604335972  1.0000
  O   O7        1.0  0.4437325763371475  0.5359905922480692  0.392390843259058  1.0000
  O   O8        1.0  0.4640070910218412  0.5562830160978367  0.10760858444781722  1.0000
  O   O9        1.0  0.6501014080687568  0.9232420089940733  0.42133869882544417  1.0000
  O   O10       1.0  0.07676069771878959  0.34990366283253144  0.0786590527962545  1.0000
  O   O11       1.0  0.3498919842899041  0.07675661364036303  0.5786595266090231  1.0000
  O   O12       1.0  0.92324389815316  0.6501027739129202  0.9213403000026475  1.0000
  O   O13       1.0  0.0695345358356647  0.5313292654967513  0.603360455274377  1.0000
  O   O14       1.0  0.46867263513095025  0.9304615180772589  0.8966394039588935  1.0000
  O   O15       1.0  0.9304649167396659  0.46866291659020504  0.39663677171287764  1.0000
  O   O16       1.0  0.5313331519304114  0.06954966440387271  0.10335916115475641  1.0000
  O   O17       1.0  0.10372437544742039  0.34513353483958303  0.6901273037843794  1.0000
  O   O18       1.0  0.6548669490378953  0.8962716613260259  0.8098730175649537  1.0000
  O   O19       1.0  0.8962689513666434  0.6548587305819428  0.3098707073678925  1.0000
  O   O20       1.0  0.34513991424496027  0.10373156858501892  0.1901263038921783  1.0000
  O   O21       1.0  0.2122292828706024  0.8852547379162278  0.6847921101897612  1.0000
  O   O22       1.0  0.11474268647184266  0.7877682765370937  0.8152096050814921  1.0000
  O   O23       1.0  0.7877701283420535  0.11473111113789262  0.3152078614049856  1.0000
  O   O24       1.0  0.8852626635071414  0.21223499234264412  0.18479213158416744  1.0000
  O   O25       1.0  0.7223043161847044  0.27769430413447793  0.7499997063822832  1.0000
  O   O26       1.0  0.2776964213368842  0.722309009111136  0.2500003992398732  1.0000
