data_image0
_chemical_formula_structural       CdH14C10N4O4
_chemical_formula_sum              "Cd1 H14 C10 N4 O4"
_cell_length_a       5.113546478384812
_cell_length_b       7.710015208987845
_cell_length_c       8.771576588664114
_cell_angle_alpha    75.42576976368751
_cell_angle_beta     89.8835054310489
_cell_angle_gamma    75.63844915097947

_space_group_name_H-M_alt    "P 1"
_space_group_IT_number       1

loop_
  _space_group_symop_operation_xyz
  'x, y, z'

loop_
  _atom_site_type_symbol
  _atom_site_label
  _atom_site_symmetry_multiplicity
  _atom_site_fract_x
  _atom_site_fract_y
  _atom_site_fract_z
  _atom_site_occupancy
  Cd  Cd1       1.0  0.9999964452087581  1.3868125777001773e-06  0.9999998780605708  1.0000
  H   H1        1.0  0.6425787620633656  0.71806531184356  0.9768853026907253  1.0000
  H   H2        1.0  0.357421381788541  0.28193617768756235  0.023114835916125308  1.0000
  H   H3        1.0  0.7002862160348754  0.46406343405251244  0.8195707032983394  1.0000
  H   H4        1.0  0.2997134208282192  0.5359394416333528  0.18042914060105633  1.0000
  H   H5        1.0  0.10132514725141566  0.5271867230600832  0.6165704743833659  1.0000
  H   H6        1.0  0.8986749923705519  0.47281478018646783  0.38342852120492665  1.0000
  H   H7        1.0  0.24655250896580583  0.8216998966198258  0.6894749208578618  1.0000
  H   H8        1.0  0.7534476306561687  0.1783016066267251  0.3105240747304308  1.0000
  H   H9        1.0  0.7708264414347995  0.2248084191332183  0.630645948469841  1.0000
  H   H10       1.0  0.22917275808913465  0.7751903054277989  0.3693547797913013  1.0000
  H   H11       1.0  0.44019531611881046  0.3009498493232456  0.5286597833030768  1.0000
  H   H12       1.0  0.5598019166396783  0.6990489100079954  0.47133865916030976  1.0000
  H   H13       1.0  0.6075866687395931  0.062993302680006  0.5850624783243035  1.0000
  H   H14       1.0  0.392413033543207  0.9370040494416898  0.4149374016257354  1.0000
  C   C1        1.0  0.815263744717818  0.5679670138423489  0.8029462119997959  1.0000
  C   C2        1.0  0.1847378462209193  0.4320358682195646  0.1970524886416669  1.0000
  C   C3        1.0  0.019372041709317545  0.6013395441393853  0.7027053170120967  1.0000
  C   C4        1.0  0.9806300562182246  0.39866195176779223  0.2972936783368283  1.0000
  C   C5        1.0  0.0972021487708545  0.7492057735757454  0.7392492296807589  1.0000
  C   C6        1.0  0.9027940742399638  0.2507957443495527  0.26074976638626174  1.0000
  C   C7        1.0  0.43955943701544703  0.1729281706071859  0.7757141337370044  1.0000
  C   C8        1.0  0.5604436791196293  0.827070539275077  0.22428659404540244  1.0000
  C   C9        1.0  0.5756107566555998  0.19275244221595497  0.6210758110866266  1.0000
  C   C10       1.0  0.4243889413972682  0.8072449236211695  0.37892292584484727  1.0000
  N   N1        1.0  0.9501285750020756  0.8022689985570679  0.8543807338703219  1.0000
  N   N2        1.0  0.049869610544256225  0.19773249831343515  0.1456194049758963  1.0000
  N   N3        1.0  0.7800080743990992  0.6914233276241359  0.8910050437020588  1.0000
  N   N4        1.0  0.2199925722116731  0.30857678946767203  0.10899424659369572  1.0000
  O   O1        1.0  0.5560587717059775  0.20380569167659243  0.8925651732647354  1.0000
  O   O2        1.0  0.4439399208291518  0.7961944190391675  0.10743526028894483  1.0000
  O   O3        1.0  0.21620929955946622  0.1292069555897939  0.780434609402441  1.0000
  O   O4        1.0  0.7837893929756634  0.8707931551259589  0.219565824151239  1.0000
