data_image0
_chemical_formula_structural       Cu4H24C24N16
_chemical_formula_sum              "Cu4 H24 C24 N16"
_cell_length_a       3.9966231956145166
_cell_length_b       9.824166503841083
_cell_length_c       18.26332141808377
_cell_angle_alpha    90.00032035984759
_cell_angle_beta     89.99986040252614
_cell_angle_gamma    93.12976392291522

_space_group_name_H-M_alt    "P 1"
_space_group_IT_number       1

loop_
  _space_group_symop_operation_xyz
  'x, y, z'

loop_
  _atom_site_type_symbol
  _atom_site_label
  _atom_site_symmetry_multiplicity
  _atom_site_fract_x
  _atom_site_fract_y
  _atom_site_fract_z
  _atom_site_occupancy
  Cu  Cu1       1.0  0.8752197311461246  0.7163265682727629  0.8621123793289982  1.0000
  Cu  Cu2       1.0  0.8752378922159492  0.2163288727167939  0.6378906426691202  1.0000
  Cu  Cu3       1.0  0.12477487590857092  0.2836684178257514  0.1378898779760789  1.0000
  Cu  Cu4       1.0  0.1247626425411141  0.7836742860531204  0.3621094244645421  1.0000
  H   H1        1.0  0.45445650252506903  0.8049038440170975  0.014231795456176102  1.0000
  H   H2        1.0  0.45445333896516626  0.3049076075451823  0.4857684977632318  1.0000
  H   H3        1.0  0.5455434564054187  0.19509421787309836  0.9857726520342568  1.0000
  H   H4        1.0  0.5455543599191444  0.6950925195394434  0.5142310218185528  1.0000
  H   H5        1.0  0.08698192998338068  0.8249681078257539  0.06646119192773631  1.0000
  H   H6        1.0  0.08697418112564749  0.3249702999147956  0.4335398958040387  1.0000
  H   H7        1.0  0.9130127922180763  0.17502789766719937  0.9335438031064883  1.0000
  H   H8        1.0  0.9130363664490346  0.6750328941251027  0.5664585286905394  1.0000
  H   H9        1.0  0.07686946610864716  0.8412396885804516  0.9691130214472353  1.0000
  H   H10       1.0  0.07686415445371608  0.3412448874816364  0.5308874948765094  1.0000
  H   H11       1.0  0.9231276441399104  0.15875530634606602  0.030890878493813997  1.0000
  H   H12       1.0  0.9231463931181524  0.6587583065610616  0.46911147716360097  1.0000
  H   H13       1.0  0.5254085776262869  0.49607353127548515  0.8458675584356428  1.0000
  H   H14       1.0  0.5254211236604719  0.9960783701988662  0.6541348350014999  1.0000
  H   H15       1.0  0.47460570957274234  0.5039184672301288  0.15413305622337253  1.0000
  H   H16       1.0  0.47457167118494686  0.003922723334604002  0.34586194685786614  1.0000
  H   H17       1.0  0.4987943478906729  0.3227521863880227  0.8767861071836833  1.0000
  H   H18       1.0  0.49880721138458023  0.8227567089457536  0.6232163293516992  1.0000
  H   H19       1.0  0.5012174361004399  0.6772398033035927  0.1232156025670221  1.0000
  H   H20       1.0  0.5011930930705262  0.17724441104370214  0.376779904960273  1.0000
  H   H21       1.0  0.8499521650584541  0.3858144394537035  0.8261852394856748  1.0000
  H   H22       1.0  0.8499694002511619  0.885818478024639  0.673816111725195  1.0000
  H   H23       1.0  0.15006246760616898  0.6141806172099961  0.17381866045100486  1.0000
  H   H24       1.0  0.15002601295454812  0.1141836437116481  0.3261812176805705  1.0000
  C   C1        1.0  0.4905770537375742  0.973776578635501  0.8483678264762063  1.0000
  C   C2        1.0  0.4906122506150083  0.4737760273150684  0.6516356131265937  1.0000
  C   C3        1.0  0.5094029947466224  0.026222432067143597  0.15163443083859116  1.0000
  C   C4        1.0  0.5094035336802776  0.5262292231304785  0.34836390646079  1.0000
  C   C5        1.0  0.20199661179773895  0.12224473685812144  0.7797137263032569  1.0000
  C   C6        1.0  0.20200459345378616  0.622238011301903  0.7202893571054929  1.0000
  C   C7        1.0  0.7980034623132469  0.8777543443928905  0.22028688836996224  1.0000
  C   C8        1.0  0.7979982141923756  0.3777631175183488  0.2797090673879694  1.0000
  C   C9        1.0  0.090384858959041  0.6355238685236557  0.0070188177237611  1.0000
  C   C10       1.0  0.090384009396189  0.13552669528014152  0.4929784168267943  1.0000
  C   C11       1.0  0.9096099784313412  0.36447315632170785  0.9929807018566594  1.0000
  C   C12       1.0  0.9096187982527792  0.8644744335373107  0.5070194601211426  1.0000
  C   C13       1.0  0.1815595714898706  0.7845369881810315  0.014746527256875202  1.0000
  C   C14       1.0  0.18155414033959977  0.2845427763783093  0.485252748880619  1.0000
  C   C15       1.0  0.8184400419665964  0.2154580155594844  0.9852562775924911  1.0000
  C   C16       1.0  0.8184564072350823  0.7154604176615891  0.5147456756139592  1.0000
  C   C17       1.0  0.8400439378193524  0.457432362443349  0.9375101159434891  1.0000
  C   C18       1.0  0.8400619705842018  0.9574322037577758  0.5624887166137001  1.0000
  C   C19       1.0  0.1599436202801598  0.5425666747096757  0.06249049873284921  1.0000
  C   C20       1.0  0.15993606099306132  0.04257094617013021  0.43750697015635615  1.0000
  C   C21       1.0  0.6675494787695798  0.41297675325530747  0.8682242296200331  1.0000
  C   C22       1.0  0.6675571327954585  0.9129803263930967  0.631776748047379  1.0000
  C   C23       1.0  0.3324651539062771  0.5870183033971871  0.13177748013452376  1.0000
  C   C24       1.0  0.3324407836153611  0.08702180415998133  0.3682200338122358  1.0000
  N   N1        1.0  0.6393142465030407  0.8765524945695661  0.8618449290164492  1.0000
  N   N2        1.0  0.6393427631265993  0.37655789516173144  0.6381565017045007  1.0000
  N   N3        1.0  0.3606604500884886  0.12344344035820858  0.13815842338617307  1.0000
  N   N4        1.0  0.3606660873602721  0.6234524257327578  0.3618441129832846  1.0000
  N   N5        1.0  0.33093078287780037  0.08393447405482143  0.8408279305474766  1.0000
  N   N6        1.0  0.3309658059737828  0.5839394439350514  0.6591771629462784  1.0000
  N   N7        1.0  0.6690517688114995  0.9160645454646148  0.15917377922117035  1.0000
  N   N8        1.0  0.6690481660813036  0.4160719139762605  0.340822904196223  1.0000
  N   N9        1.0  0.07248793909988652  0.16738626692014696  0.7277988448578014  1.0000
  N   N10       1.0  0.07248822359095189  0.6673831042499357  0.772203891828781  1.0000
  N   N11       1.0  0.9275068982933021  0.8326107579224172  0.2722001271770864  1.0000
  N   N12       1.0  0.927499679996636  0.3326189910387641  0.22779562776098325  1.0000
  N   N13       1.0  0.9322501884339401  0.5918105240052897  0.9447838881008936  1.0000
  N   N14       1.0  0.9322546397891146  0.09181600712304319  0.5552159950253853  1.0000
  N   N15       1.0  0.0677515827508088  0.4081814304051434  0.05521727410677362  1.0000
  N   N16       1.0  0.06774851334792942  0.9081881798300916  0.4447807868359703  1.0000
