data_image0
_chemical_formula_structural       Cu4H28C38Br4N8O2
_chemical_formula_sum              "Cu4 H28 C38 Br4 N8 O2"
_cell_length_a       7.038442100512192
_cell_length_b       11.648679607141892
_cell_length_c       11.648688709127985
_cell_angle_alpha    83.86459709070718
_cell_angle_beta     75.00056329097059
_cell_angle_gamma    75.00061104476859

_space_group_name_H-M_alt    "P 1"
_space_group_IT_number       1

loop_
  _space_group_symop_operation_xyz
  'x, y, z'

loop_
  _atom_site_type_symbol
  _atom_site_label
  _atom_site_symmetry_multiplicity
  _atom_site_fract_x
  _atom_site_fract_y
  _atom_site_fract_z
  _atom_site_occupancy
  Cu  Cu1       1.0  0.7500005186110243  0.6863878741605518  0.313611639927771  1.0000
  Cu  Cu2       1.0  0.2499991903418817  0.31361190185546667  0.686389041949603  1.0000
  Cu  Cu3       1.0  0.7499972235452217  0.508326624527328  0.49167330013445826  1.0000
  Cu  Cu4       1.0  0.24999997480340133  0.4916722432138272  0.5083304633200285  1.0000
  H   H1        1.0  0.09856508055623431  0.4518597242057469  0.2790214286063488  1.0000
  H   H2        1.0  0.4014399852479115  0.720978739339181  0.548139081934373  1.0000
  H   H3        1.0  0.9014379436004133  0.5481391840530564  0.7209788126872282  1.0000
  H   H4        1.0  0.5985600288165074  0.2790237150418236  0.4518603971009796  1.0000
  H   H5        1.0  0.952178875347414  0.7482337301287741  0.0479993200274366  1.0000
  H   H6        1.0  0.5478184685687066  0.9520024064838711  0.2517652482298516  1.0000
  H   H7        1.0  0.04782521930230387  0.2517660775070781  0.951999790578725  1.0000
  H   H8        1.0  0.45217381844988574  0.04800088206395971  0.748234530101378  1.0000
  H   H9        1.0  0.2564211164477825  0.5739458856293567  0.9168987631581446  1.0000
  H   H10       1.0  0.2435768534934439  0.08309980227790702  0.4260550673760761  1.0000
  H   H11       1.0  0.7435840879129003  0.4260548243393957  0.08310178559929679  1.0000
  H   H12       1.0  0.7564155111044214  0.9168999184109767  0.573945949874485  1.0000
  H   H13       1.0  0.3947019305629454  0.3210680265310657  0.2420307528560812  1.0000
  H   H14       1.0  0.10530248740106168  0.7579675638801291  0.6789283302341075  1.0000
  H   H15       1.0  0.6053051096723648  0.6789318038268064  0.7579687373685431  1.0000
  H   H16       1.0  0.8946942367483501  0.24203218645802593  0.3210694031860939  1.0000
  H   H17       1.0  0.6238948682435107  0.12360800113511058  0.18914420038782254  1.0000
  H   H18       1.0  0.876103245107963  0.8108552142848424  0.8763900209283548  1.0000
  H   H19       1.0  0.37610777322235844  0.8763917966176534  0.8108560048284515  1.0000
  H   H20       1.0  0.1238909422918937  0.18914362580788696  0.12360908150981939  1.0000
  H   H21       1.0  0.5852564596449668  0.19648162061481145  0.8242518582972947  1.0000
  H   H22       1.0  0.9147494178521354  0.17574841074936387  0.8035165229480867  1.0000
  H   H23       1.0  0.41474364507134703  0.8035172668925269  0.17574971593695216  1.0000
  H   H24       1.0  0.08525508563362647  0.8242505093630899  0.1964843362945103  1.0000
  H   H25       1.0  0.36360726985827796  0.39105034166050967  0.8737918153112645  1.0000
  H   H26       1.0  0.1364037720797526  0.12620494264552212  0.6089482360863769  1.0000
  H   H27       1.0  0.6363964551732978  0.6089503564545922  0.12620811549715677  1.0000
  H   H28       1.0  0.8635977596751444  0.8737939527743421  0.39105053097861026  1.0000
  C   C1        1.0  0.1003488824154032  0.5097069546344386  0.19933315271417482  1.0000
  C   C2        1.0  0.39965287284402967  0.8006646772877131  0.49029191432756397  1.0000
  C   C3        1.0  0.8996514881945286  0.4902946082820351  0.8006646498393407  1.0000
  C   C4        1.0  0.6003413276284634  0.19933416379029006  0.5097080443901802  1.0000
  C   C5        1.0  0.028158347468888643  0.6599022158794341  0.0751391618100641  1.0000
  C   C6        1.0  0.47184396707755377  0.9248609416240614  0.3400968587453335  1.0000
  C   C7        1.0  0.9718453775626799  0.3400984822356676  0.9248607689983571  1.0000
  C   C8        1.0  0.5281520178355662  0.07514058967258562  0.659902515079402  1.0000
  C   C9        1.0  0.1776406958681279  0.5748394212206378  0.010099928909703201  1.0000
  C   C10       1.0  0.32236251464907173  0.9898986532788285  0.4251614398571207  1.0000
  C   C11       1.0  0.8223626334000328  0.425162165403144  0.9898991095418452  1.0000
  C   C12       1.0  0.6776338791000924  0.010101990494412403  0.5748396826040576  1.0000
  C   C13       1.0  0.3620492241057248  0.3687490974813414  0.06144570641081509  1.0000
  C   C14       1.0  0.13795399219375068  0.938553078757124  0.6312498067397954  1.0000
  C   C15       1.0  0.6379545270711161  0.6312516026043228  0.9385559369567389  1.0000
  C   C16       1.0  0.8620442243574118  0.061446684419962594  0.368749400908996  1.0000
  C   C17       1.0  0.4357796454965522  0.29313308188243076  0.1506625186685255  1.0000
  C   C18       1.0  0.06422072228077973  0.849335174665626  0.706865083479208  1.0000
  C   C19       1.0  0.5642273816661286  0.7068667474901602  0.849336115276529  1.0000
  C   C20       1.0  0.9357730955009343  0.15066455590634584  0.2931348391612331  1.0000
  C   C21       1.0  0.5642701683409469  0.18242053551131224  0.12090273992122044  1.0000
  C   C22       1.0  0.9357303750616025  0.8790961978696573  0.8175778232485557  1.0000
  C   C23       1.0  0.4357350360197358  0.817580174457433  0.879097808836221  1.0000
  C   C24       1.0  0.0642682241803314  0.12090267581346842  0.1824214204775387  1.0000
  C   C25       1.0  0.6231545966928991  0.14544497400978432  0.0031770845668930383  1.0000
  C   C26       1.0  0.8768489182289442  0.9968229434302318  0.8545515687360918  1.0000
  C   C27       1.0  0.37684882322715596  0.8545530457403319  0.9968240490835569  1.0000
  C   C28       1.0  0.12314970715826232  0.0031759322234564  0.1454493875491423  1.0000
  C   C29       1.0  0.5493368257090836  0.2232855200222943  0.9154581883476922  1.0000
  C   C30       1.0  0.9506667335996825  0.0845427265809704  0.7767113787282584  1.0000
  C   C31       1.0  0.4506636878432812  0.7767124799616385  0.08454513452299045  1.0000
  C   C32       1.0  0.049334811227858266  0.9154561698241749  0.2232882446162989  1.0000
  C   C33       1.0  0.4206621336848356  0.3339265268736114  0.9438399613413607  1.0000
  C   C34       1.0  0.07934581608542855  0.05615755619622581  0.6660724126933673  1.0000
  C   C35       1.0  0.5793419740375113  0.6660732817475221  0.05616000554436343  1.0000
  C   C36       1.0  0.9206542624856267  0.9438413293405504  0.33392744898174  1.0000
  C   C37       1.0  0.749999699292161  0.023270500523111103  0.9767304322716868  1.0000
  C   C38       1.0  0.2500029552463445  0.9767292982149341  0.02327062922415728  1.0000
  Br  Br1       1.0  0.5671257305653227  0.487965634841821  0.341796005783344  1.0000
  Br  Br2       1.0  0.9328742379304346  0.6582043973668662  0.512034234702817  1.0000
  Br  Br3       1.0  0.43288381941775345  0.5120315300202877  0.6581965041060869  1.0000
  Br  Br4       1.0  0.06711620099743242  0.3418033435771902  0.48796964463974746  1.0000
  N   N1        1.0  0.9795391900710227  0.6176184978757251  0.19277784784319615  1.0000
  N   N2        1.0  0.520462618732189  0.8072214186232217  0.3823793122163224  1.0000
  N   N3        1.0  0.020463438322217028  0.38238129889175104  0.8072215010935082  1.0000
  N   N4        1.0  0.4795333531083016  0.19278011168814407  0.6176192053288431  1.0000
  N   N5        1.0  0.22350162804360701  0.47982920431702786  0.0897318019004203  1.0000
  N   N6        1.0  0.2765033544296855  0.9102665957310022  0.5201695928177088  1.0000
  N   N7        1.0  0.7765020969879615  0.5201714937980669  0.9102681289080009  1.0000
  N   N8        1.0  0.7234919165358774  0.08973314472406459  0.4798292352126196  1.0000
  O   O1        1.0  0.7500039168457561  0.9433557522917936  0.056642290826339134  1.0000
  O   O2        1.0  0.24999912038352784  0.05664315695229051  0.9433588067468079  1.0000
