data_image0
_chemical_formula_structural       Zn2H19C22N3O8
_chemical_formula_sum              "Zn2 H19 C22 N3 O8"
_cell_length_a       9.854056652994764
_cell_length_b       11.034771654797838
_cell_length_c       11.144341697531802
_cell_angle_alpha    97.96109967677172
_cell_angle_beta     88.09962408984615
_cell_angle_gamma    82.89049251536017

_space_group_name_H-M_alt    "P 1"
_space_group_IT_number       1

loop_
  _space_group_symop_operation_xyz
  'x, y, z'

loop_
  _atom_site_type_symbol
  _atom_site_label
  _atom_site_symmetry_multiplicity
  _atom_site_fract_x
  _atom_site_fract_y
  _atom_site_fract_z
  _atom_site_occupancy
  Zn  Zn1       1.0  0.35976564559991436  0.5225346431434019  0.501693225240473  1.0000
  Zn  Zn2       1.0  0.6465880110640682  0.4900274062066715  0.49423719310896547  1.0000
  H   H1        1.0  0.6158269501861539  0.8910195427407359  0.644179366602039  1.0000
  H   H2        1.0  0.401747406436506  0.4607723670053261  0.09562588901384572  1.0000
  H   H3        1.0  0.8713166537999016  0.5123957204954407  0.6698056538525139  1.0000
  H   H4        1.0  0.9113106995137414  0.45262538100121213  0.40647790597386557  1.0000
  H   H5        1.0  0.3819951743771313  0.7741205023977925  0.28267892551577495  1.0000
  H   H6        1.0  0.2850284499639173  0.8855878000974329  0.12133293434732204  1.0000
  H   H7        1.0  0.2822197481605784  0.11394982388656417  0.136455524792801  1.0000
  H   H8        1.0  0.38108122605360245  0.22934716466949825  0.3105935340970519  1.0000
  H   H9        1.0  0.6188970826864518  0.11858328775463896  0.6552604913221034  1.0000
  H   H10       1.0  0.6958115552688113  0.4707023355201585  0.8759469675854065  1.0000
  H   H11       1.0  0.7037110786254033  0.5050976496467641  0.10087426281279481  1.0000
  H   H12       1.0  0.07744142316770558  0.3585542147879721  0.6965812785374228  1.0000
  H   H13       1.0  0.2391907210122709  0.37190166022364934  0.6356197648667392  1.0000
  H   H14       1.0  0.14856050551795622  0.694318919969632  0.4213102369888731  1.0000
  H   H15       1.0  0.09841836329123049  0.565487636718693  0.3292906220630628  1.0000
  H   H16       1.0  0.9812428147428632  0.6525914663598514  0.445612836458942  1.0000
  H   H17       1.0  0.32177808994095614  0.69164193966553  0.8792818097654378  1.0000
  H   H18       1.0  0.2805337802813668  0.5518216811160456  0.919682623987349  1.0000
  H   H19       1.0  0.36776204988759525  0.6481571553206392  0.02377856068360981  1.0000
  C   C1        1.0  0.5103728043892913  0.4734648189392275  0.263194373461488  1.0000
  C   C2        1.0  0.43913006209126587  0.9367112047907259  0.39153116488077455  1.0000
  C   C3        1.0  0.5020484694186678  0.8751901696516665  0.48437951274102903  1.0000
  C   C4        1.0  0.566323393396658  0.9406368452103706  0.5760329639678619  1.0000
  C   C5        1.0  0.5677423954494856  0.06867739847889712  0.5823230305624209  1.0000
  C   C6        1.0  0.5044065419501321  0.13176726720536894  0.4963359218681804  1.0000
  C   C7        1.0  0.6011101123861098  0.5049558069528075  0.9306830761927503  1.0000
  C   C8        1.0  0.49421562226365273  0.5520482527888788  0.870127034713221  1.0000
  C   C9        1.0  0.6054699916398149  0.4973554567253515  0.059174261268950104  1.0000
  C   C10       1.0  0.5006529648383663  0.4763777284553612  0.1314000561887596  1.0000
  C   C11       1.0  0.07952876152969418  0.48155673266887083  0.5761756670497676  1.0000
  C   C12       1.0  0.5015223548712343  0.7400105145545197  0.48802769650102124  1.0000
  C   C13       1.0  0.9269528821534577  0.49153843235087186  0.5807676772099342  1.0000
  C   C14       1.0  0.5097617968951837  0.540231354656818  0.7343175802214077  1.0000
  C   C15       1.0  0.5063694762061175  0.26837707681868744  0.5045838932412324  1.0000
  C   C16       1.0  0.3816460274009612  0.8734891323225753  0.2893845047746454  1.0000
  C   C17       1.0  0.3270026110978819  0.9361710946745632  0.19968498683131491  1.0000
  C   C18       1.0  0.32577882138934905  0.06531927485018232  0.207925699744763  1.0000
  C   C19       1.0  0.3809633202462805  0.1298577246316484  0.3052292244214527  1.0000
  C   C20       1.0  0.43983223747469685  0.067829835128336  0.3984384405664017  1.0000
  C   C21       1.0  0.08931448088860346  0.6165448048879939  0.4221040813031253  1.0000
  C   C22       1.0  0.35929183507479934  0.6147634696288692  0.9272735655840807  1.0000
  N   N1        1.0  0.15102742317381507  0.5371311605340665  0.5057503397389596  1.0000
  N   N2        1.0  0.8559759537194014  0.47322167939299925  0.48791012600106143  1.0000
  N   N3        1.0  0.1379968701319925  0.4086852000720143  0.6538142039391561  1.0000
  O   O1        1.0  0.3995384980376286  0.45886875563030566  0.3199401201403091  1.0000
  O   O2        1.0  0.6238710749253329  0.4878111061509003  0.31148105019252637  1.0000
  O   O3        1.0  0.39012587119379555  0.6950824109520325  0.46603244916641995  1.0000
  O   O4        1.0  0.6122788082968994  0.6802409803866923  0.5156278986480985  1.0000
  O   O5        1.0  0.4006746830291448  0.5704639036543567  0.6809252588336394  1.0000
  O   O6        1.0  0.6265157011293353  0.498824405623651  0.6811807046883092  1.0000
  O   O7        1.0  0.3935977068790137  0.3378136949621862  0.5366925641360538  1.0000
  O   O8        1.0  0.6187682069437415  0.3052462169222138  0.4784218052942536  1.0000
