data_image0
_chemical_formula_structural       Zn6H27C70I9O24F6
_chemical_formula_sum              "Zn6 H27 C70 I9 O24 F6"
_cell_length_a       18.569403052697766
_cell_length_b       18.586047372210377
_cell_length_c       18.3370775964737
_cell_angle_alpha    108.50615891494341
_cell_angle_beta     108.7297128496816
_cell_angle_gamma    109.20757072349836

_space_group_name_H-M_alt    "P 1"
_space_group_IT_number       1

loop_
  _space_group_symop_operation_xyz
  'x, y, z'

loop_
  _atom_site_type_symbol
  _atom_site_label
  _atom_site_symmetry_multiplicity
  _atom_site_fract_x
  _atom_site_fract_y
  _atom_site_fract_z
  _atom_site_occupancy
  Zn  Zn1       1.0  0.43471449505683785  0.014530246283300102  0.9353841103812571  1.0000
  Zn  Zn2       1.0  0.5629250460317222  0.005130952716236001  0.04864621391080699  1.0000
  Zn  Zn3       1.0  0.44352659939882244  0.43113956447981405  0.5153191492382236  1.0000
  Zn  Zn4       1.0  0.568217780913038  0.55865784611904  0.5163022004692625  1.0000
  Zn  Zn5       1.0  0.012991081517888936  0.4451664552730677  0.9392480939653896  1.0000
  Zn  Zn6       1.0  0.006107716181318788  0.5520087205275388  0.07338867777737336  1.0000
  H   H1        1.0  0.6008620590186595  0.6876509950044324  0.7952473054852762  1.0000
  H   H2        1.0  0.6208622654163565  0.913958041739477  0.8365224314879074  1.0000
  H   H3        1.0  0.6447194123493674  0.807194305457145  0.7537704726458475  1.0000
  H   H4        1.0  0.2393146391634177  0.9368534456240598  0.9639661087793245  1.0000
  H   H5        1.0  0.9891179679213592  0.7931712654587811  0.9385884200675608  1.0000
  H   H6        1.0  0.028660611997658184  0.6849403333427021  0.959790962460268  1.0000
  H   H7        1.0  0.6341659731275868  0.26049829309142314  0.12998383380915604  1.0000
  H   H8        1.0  0.4627255203464672  0.24608440646650825  0.34965123185970287  1.0000
  H   H9        1.0  0.7162726066240382  0.25255425433438466  0.07103384033447925  1.0000
  H   H10       1.0  0.6897801700150481  0.0912723718731527  0.6448856071435218  1.0000
  H   H11       1.0  0.8034795205910613  0.22415582626811673  0.7818423328695234  1.0000
  H   H12       1.0  0.37839436846823565  0.6187535381772095  0.6399613446597102  1.0000
  H   H13       1.0  0.8427057433399556  0.3547744021820876  0.07340753612131584  1.0000
  H   H14       1.0  0.4345901065639168  0.46042879205178633  0.2885810471965018  1.0000
  H   H15       1.0  0.4639487976914012  0.4799648029378289  0.1720477726446745  1.0000
  H   H16       1.0  0.24039145973426918  0.5134753331841965  0.07708674297226288  1.0000
  H   H17       1.0  0.11796699619352317  0.48532403574473176  0.2702886263772585  1.0000
  H   H18       1.0  0.7149441450075571  0.4340692983575424  0.6409091702871592  1.0000
  H   H19       1.0  0.5472565965098896  0.5157146550284255  0.764057729016756  1.0000
  H   H20       1.0  0.5751750451053681  0.6058183140583112  0.91392157435579  1.0000
  H   H21       1.0  0.7267703091069252  0.6914218207747852  0.03513238674401716  1.0000
  H   H22       1.0  0.8392357377516361  0.45612729150028025  0.7680506292104071  1.0000
  H   H23       1.0  0.5256337937840456  0.884927267178945  0.744930745983652  1.0000
  H   H24       1.0  0.5695355832244076  0.8029568181435779  0.6620858197660341  1.0000
  H   H25       1.0  0.6134946147224201  0.8103750199959453  0.8983929671268743  1.0000
  H   H26       1.0  0.5150402697852385  0.7387011258961423  0.8860216679821706  1.0000
  H   H27       1.0  0.4892970723202695  0.6259313471860184  0.7598446030118925  1.0000
  C   C1        1.0  0.3662538298792057  0.9011396342810585  0.9864987478570557  1.0000
  C   C2        1.0  0.5157216759323618  0.7022412632613567  0.6944538969142473  1.0000
  C   C3        1.0  0.5778656667807242  0.7951008522241739  0.7205867132183958  1.0000
  C   C4        1.0  0.5391222348762739  0.689131763950627  0.7764515305437956  1.0000
  C   C5        1.0  0.19393792907084872  0.8813579344226953  0.9627613003546361  1.0000
  C   C6        1.0  0.11338469014499719  0.8714996594904111  0.9506058619991651  1.0000
  C   C7        1.0  0.052422587290060135  0.799885354708458  0.9481077168764573  1.0000
  C   C8        1.0  0.07483047372817715  0.7392546605232014  0.9598085449875672  1.0000
  C   C9        1.0  0.15749770017738032  0.7473048124136811  0.9739651587167872  1.0000
  C   C10       1.0  0.2184146412403721  0.8190470924247253  0.973857949129169  1.0000
  C   C11       1.0  0.3029154193114181  0.8282392852764817  0.9891467993700619  1.0000
  C   C12       1.0  0.5095945779676684  0.8834048131359042  0.8919615001316574  1.0000
  C   C13       1.0  0.3256755883337449  0.7688280843847014  0.007515965842266359  1.0000
  C   C14       1.0  0.26317408638723794  0.6976693949139517  0.00429789844001496  1.0000
  C   C15       1.0  0.18134486816669684  0.6856587791419884  0.9881313028100751  1.0000
  C   C16       1.0  0.6491946707954172  0.31229403940090367  0.1905310201984563  1.0000
  C   C17       1.0  0.7090036810178617  0.3953547213307473  0.21917713726712407  1.0000
  C   C18       1.0  0.7346677175461382  0.4638026789497261  0.2998768114645644  1.0000
  C   C19       1.0  0.6926936474480313  0.44619127070382103  0.34741857033376533  1.0000
  C   C20       1.0  0.6206704999920732  0.3644447485776823  0.31526333669587103  1.0000
  C   C21       1.0  0.605739661576749  0.29469798988514384  0.2387768302777361  1.0000
  C   C22       1.0  0.5477356160914582  0.20739170249657232  0.2119249574418447  1.0000
  C   C23       1.0  0.583466564411907  0.10974925307642992  0.9450485750367509  1.0000
  C   C24       1.0  0.5006644026182769  0.1904907403664069  0.25509473139281624  1.0000
  C   C25       1.0  0.5059766408722695  0.2590144691461091  0.3216368359639645  1.0000
  C   C26       1.0  0.5633439596633211  0.3448084196714874  0.3517913251871933  1.0000
  C   C27       1.0  0.5978528855420179  0.07232874531832324  0.7748291392952922  1.0000
  C   C28       1.0  0.6071528387033425  0.0512954392189187  0.7004520342759903  1.0000
  C   C29       1.0  0.6821433796960648  0.10760774641900643  0.7034898278393629  1.0000
  C   C30       1.0  0.7454902439127054  0.18184961099861147  0.7798789907756429  1.0000
  C   C31       1.0  0.7382275156180073  0.20416124097128832  0.8578368365429515  1.0000
  C   C32       1.0  0.6610721970987612  0.14766730523567867  0.8555408446335876  1.0000
  C   C33       1.0  0.6536533387349907  0.16660375440137906  0.9337528220257881  1.0000
  C   C34       1.0  0.5381303621639832  0.13492360750579024  0.13609671299929726  1.0000
  C   C35       1.0  0.7200801464376314  0.23964764516948386  0.010642224970240425  1.0000
  C   C36       1.0  0.7926879563128537  0.2966231372055645  0.012660808517175359  1.0000
  C   C37       1.0  0.8036592355109987  0.28009854027995124  0.9387216318853009  1.0000
  C   C38       1.0  0.366413316896825  0.46346738627611495  0.39142870378804434  1.0000
  C   C39       1.0  0.5198950080407345  0.6331906754117116  0.626144213458247  1.0000
  C   C40       1.0  0.5923410626901101  0.4756437835939665  0.6434505944026867  1.0000
  C   C41       1.0  0.5498623975513014  0.40928574012799873  0.4122346487436844  1.0000
  C   C42       1.0  0.12380813170413772  0.5030406300988518  0.1342948494590176  1.0000
  C   C43       1.0  0.12098105238798965  0.6099013994445246  0.9899232628144291  1.0000
  C   C44       1.0  0.8887467923478525  0.5306613014616276  0.9304209948525684  1.0000
  C   C45       1.0  0.4118824425644475  0.7474983414278994  0.7349222302159362  1.0000
  C   C46       1.0  0.8854064177956288  0.3473939717002709  0.9523853893473204  1.0000
  C   C47       1.0  0.39122886535884055  0.471572171778334  0.24286224117894054  1.0000
  C   C48       1.0  0.4085327918187147  0.4829004771896096  0.1785193865510948  1.0000
  C   C49       1.0  0.3532942155936071  0.4990905985101081  0.12077762268106092  1.0000
  C   C50       1.0  0.2815749327418189  0.5020134137024072  0.12429729203528692  1.0000
  C   C51       1.0  0.2617331897694514  0.4890608944020587  0.1892361542720807  1.0000
  C   C52       1.0  0.3189432567595603  0.47551406856097606  0.25141865552240017  1.0000
  C   C53       1.0  0.30137515272334536  0.4648753558929216  0.3191509920403775  1.0000
  C   C54       1.0  0.22797256983884046  0.46594586803127674  0.3214567310413018  1.0000
  C   C55       1.0  0.1729176212201864  0.4817269225897577  0.2632752823635728  1.0000
  C   C56       1.0  0.4215178794151342  0.6862011447177283  0.661293989044218  1.0000
  C   C57       1.0  0.18850523199666466  0.49234905670461876  0.1975616221655656  1.0000
  C   C58       1.0  0.6106246274546123  0.5455907266666389  0.8204522849611495  1.0000
  C   C59       1.0  0.6264781642774582  0.5963112299394667  0.9030185721834061  1.0000
  C   C60       1.0  0.7117469033438083  0.6422790234944317  0.9726782747099277  1.0000
  C   C61       1.0  0.7777827529946606  0.6296138095298859  0.9615516230515767  1.0000
  C   C62       1.0  0.7602764553134451  0.5641798596996355  0.8810429192162276  1.0000
  C   C63       1.0  0.6767209270653964  0.5306477929336352  0.8073043673471788  1.0000
  C   C64       1.0  0.6637506596095406  0.48658291655982583  0.7209208457682481  1.0000
  C   C65       1.0  0.72431202802494  0.46513808684954244  0.7070078371895792  1.0000
  C   C66       1.0  0.7962132797465884  0.48141214260436993  0.7783793082358132  1.0000
  C   C67       1.0  0.5600342304638063  0.8588122931731946  0.7803417254956247  1.0000
  C   C68       1.0  0.8157876894660775  0.5299068182618928  0.8642448585935372  1.0000
  C   C69       1.0  0.5456604427472912  0.762909901398352  0.8505427838701823  1.0000
  C   C70       1.0  0.5039261386566168  0.8125507090829276  0.815313650804811  1.0000
  I   I1        1.0  0.3346266507241751  0.8056898422711997  0.6860916927969145  1.0000
  I   I2        1.0  0.4464944723572017  0.7717597743097573  0.040901740088124125  1.0000
  I   I3        1.0  0.08021971851126597  0.9659787083185806  0.9365693410880385  1.0000
  I   I4        1.0  0.41461812919180113  0.06330916432039402  0.21903629218389403  1.0000
  I   I5        1.0  0.3318761010316678  0.6640328143082002  0.7731785323572496  1.0000
  I   I6        1.0  0.8359305580626072  0.586139535334276  0.34793836849851817  1.0000
  I   I7        1.0  0.5131737225281798  0.9350045531145244  0.5871551913492897  1.0000
  I   I8        1.0  0.3784695303902268  0.6833481478720245  0.5328097574112931  1.0000
  I   I9        1.0  0.9037001750587947  0.7307483373439183  0.059430246865105035  1.0000
  O   O1        1.0  0.33734915219631034  0.9268286840027714  0.9313458857265647  1.0000
  O   O2        1.0  0.4445901894792712  0.5196626645250076  0.4236097207895  1.0000
  O   O3        1.0  0.4688192983698302  0.554869323351639  0.6005588317198233  1.0000
  O   O4        1.0  0.5771927207831596  0.6587300251257632  0.6020114838346444  1.0000
  O   O5        1.0  0.5127816987202182  0.4222419513107525  0.6150360761225218  1.0000
  O   O6        1.0  0.6191145769035772  0.5229190598966229  0.6110291068453153  1.0000
  O   O7        1.0  0.4980278130427748  0.38062518257236644  0.4399633027963717  1.0000
  O   O8        1.0  0.5874978188236354  0.4887730560532193  0.42911560733843884  1.0000
  O   O9        1.0  0.10277255169828699  0.46392605371656276  0.05397184450620077  1.0000
  O   O10       1.0  0.09226807807986868  0.5496980073570229  0.1657742231132603  1.0000
  O   O11       1.0  0.09865409156545721  0.5345729493082773  0.9323632478558609  1.0000
  O   O12       1.0  0.4457982405386219  0.9333514203853783  0.038878780200633414  1.0000
  O   O13       1.0  0.09740173306677483  0.6268459179791818  0.048141079672838295  1.0000
  O   O14       1.0  0.9301784957777599  0.4965617940738198  0.9025151521308532  1.0000
  O   O15       1.0  0.905685982802396  0.5618284217857195  0.011184960796015378  1.0000
  O   O16       1.0  0.9146718644406988  0.3328494437818749  0.8969863333282576  1.0000
  O   O17       1.0  0.9243301647450866  0.4191233920506293  0.02160112593569614  1.0000
  O   O18       1.0  0.4615638931274334  0.9171338543626463  0.8762559193659744  1.0000
  O   O19       1.0  0.5677626529539028  0.9086458172037412  0.9694984552719607  1.0000
  O   O20       1.0  0.5049986959027706  0.09462823305522511  0.9067079181321775  1.0000
  O   O21       1.0  0.6117058198533202  0.08466470588138722  0.9997262997887832  1.0000
  O   O22       1.0  0.48009010671682967  0.1113067636348859  0.061010750078622805  1.0000
  O   O23       1.0  0.590153828045004  0.10429907285377742  0.15426689555918932  1.0000
  O   O24       1.0  0.34105732519050486  0.4079508614448956  0.4176300989222313  1.0000
  F   F1        1.0  0.2854077140734433  0.6396720388246494  0.020776238885105186  1.0000
  F   F2        1.0  0.7477829271644509  0.41214945302329653  0.17079356365432832  1.0000
  F   F3        1.0  0.7267094263945851  0.5089464781070704  0.4296084693217424  1.0000
  F   F4        1.0  0.5259716402837852  0.017806387705448404  0.7717967199263073  1.0000
  F   F5        1.0  0.208529045060267  0.4554307494679009  0.38390866915433725  1.0000
  F   F6        1.0  0.3721434086679026  0.5117025657723175  0.05837914827420581  1.0000
