data_image0
_chemical_formula_structural       Al6H18C68N2O28
_chemical_formula_sum              "Al6 H18 C68 N2 O28"
_cell_length_a       12.363378326378339
_cell_length_b       12.287297105857775
_cell_length_c       26.979759440374494
_cell_angle_alpha    82.60040591277378
_cell_angle_beta     82.61622206867057
_cell_angle_gamma    64.02225114831835

_space_group_name_H-M_alt    "P 1"
_space_group_IT_number       1

loop_
  _space_group_symop_operation_xyz
  'x, y, z'

loop_
  _atom_site_type_symbol
  _atom_site_label
  _atom_site_symmetry_multiplicity
  _atom_site_fract_x
  _atom_site_fract_y
  _atom_site_fract_z
  _atom_site_occupancy
  Al  Al1       1.0  0.403524406005765  0.4031039042794475  0.5114035055099747  1.0000
  Al  Al2       1.0  0.6553513348991729  0.42524767324590584  0.49572676036711266  1.0000
  Al  Al3       1.0  0.42557486137226164  0.6565434483897336  0.49755129466250736  1.0000
  Al  Al4       1.0  0.9272577720802034  0.9385224782634296  0.9784895188491164  1.0000
  Al  Al5       1.0  0.913485749912745  0.6810973892800759  0.9960715247271849  1.0000
  Al  Al6       1.0  0.6797296259740692  0.9078262231972399  0.9944118869188187  1.0000
  H   H1        1.0  0.25372037791665075  0.8075282939125187  0.19663207471482017  1.0000
  H   H2        1.0  0.596789942574155  0.3654981414406534  0.19114472511841288  1.0000
  H   H3        1.0  0.7949994693380943  0.2687847894999748  0.2519081457751327  1.0000
  H   H4        1.0  0.8665725027733585  0.03701165395106188  0.21585405395798327  1.0000
  H   H5        1.0  0.5190803980728022  0.8497387452163991  0.7144188193604606  1.0000
  H   H6        1.0  0.6301537584245837  0.49044233611510885  0.7361962518739347  1.0000
  H   H7        1.0  0.8405473834971461  0.4666353318957873  0.7770783837953061  1.0000
  H   H8        1.0  0.8725999037835381  0.6272719443633789  0.6969257449915957  1.0000
  H   H9        1.0  0.7291208413338025  0.8269987428839375  0.7552002766355697  1.0000
  H   H10       1.0  0.06625331594420922  0.8770782808366986  0.2754386751077078  1.0000
  H   H11       1.0  0.38885867230508353  0.5934043214449288  0.25712304318449947  1.0000
  H   H12       1.0  0.27794479011421214  0.469268176710628  0.21552016056108408  1.0000
  H   H13       1.0  0.09021611704897489  0.5398695971058272  0.2944865762217432  1.0000
  H   H14       1.0  0.5256081760937406  0.07880051266018738  0.2367030780282562  1.0000
  H   H15       1.0  0.7231070173832285  0.9822649780936954  0.2969756955639795  1.0000
  H   H16       1.0  0.4531565347223606  0.3106839991471588  0.2727157526258708  1.0000
  H   H17       1.0  0.29456978125323735  0.30047327156285764  0.5547025714418581  1.0000
  H   H18       1.0  0.021310492807316506  0.05631396074723229  0.9961936520205086  1.0000
  C   C1        1.0  0.6128977964196166  0.28513242563801106  0.4359298684339947  1.0000
  C   C2        1.0  0.6504720696476484  0.6591442415171896  0.26793314344572383  1.0000
  C   C3        1.0  0.6407963815517379  0.6504118862952879  0.3182416777727255  1.0000
  C   C4        1.0  0.6319467719584893  0.6414044328486029  0.3643041042758526  1.0000
  C   C5        1.0  0.11495506817874475  0.7866191824992725  0.26186247133312424  1.0000
  C   C6        1.0  0.2185087709869934  0.7475848135764166  0.2189145616419808  1.0000
  C   C7        1.0  0.10479443171198724  0.7002512118621168  0.10248681799875209  1.0000
  C   C8        1.0  0.23340074287708754  0.6471727274374784  0.38984236031022595  1.0000
  C   C9        1.0  0.0525992974088113  0.7175277157457173  0.2401200380254025  1.0000
  C   C10       1.0  0.15835966485180836  0.6780049143185989  0.19554488094764366  1.0000
  C   C11       1.0  0.1282367758094908  0.5978286665049382  0.2724724609927094  1.0000
  C   C12       1.0  0.6101362344481701  0.6169132152798653  0.41728764275808317  1.0000
  C   C13       1.0  0.18867960179487406  0.6676908714264229  0.29551429960395126  1.0000
  C   C14       1.0  0.23191244027555072  0.5594681634081481  0.2294953730167464  1.0000
  C   C15       1.0  0.29310514985266434  0.6286478710924185  0.2512886880092182  1.0000
  C   C16       1.0  0.13378578023415605  0.6874100552071596  0.14506869211054146  1.0000
  C   C17       1.0  0.20965400850447233  0.6593216476438429  0.3464534104631056  1.0000
  C   C18       1.0  0.6952959612111869  0.06713029874736519  0.2730646005379994  1.0000
  C   C19       1.0  0.5848796557019541  0.12154031535314398  0.24054490733853837  1.0000
  C   C20       1.0  0.6834395827598739  0.10605840858264058  0.101179669766239  1.0000
  C   C21       1.0  0.6393464526245226  0.23859973803210008  0.3876315520363534  1.0000
  C   C22       1.0  0.7751490583407161  0.0982912391616537  0.22919248560667427  1.0000
  C   C23       1.0  0.2829230347793725  0.6167438732952064  0.4378031382923666  1.0000
  C   C24       1.0  0.6648335817140633  0.15181688348940267  0.19525811291664752  1.0000
  C   C25       1.0  0.7353260336886223  0.22646778429304948  0.2479950460412965  1.0000
  C   C26       1.0  0.6553060384382688  0.1961856789137286  0.293276076531555  1.0000
  C   C27       1.0  0.6247767257856013  0.2809284447176665  0.2154131987315537  1.0000
  C   C28       1.0  0.5448841039123239  0.24976334022875324  0.2593916836590253  1.0000
  C   C29       1.0  0.6726637983794889  0.128976588664095  0.1446742405655712  1.0000
  C   C30       1.0  0.648574317963174  0.21785978233396713  0.3439155234880288  1.0000
  C   C31       1.0  0.5917560228079709  0.7650979539712209  0.7280998549398987  1.0000
  C   C32       1.0  0.5733030141742149  0.6756036762796498  0.7718760152880151  1.0000
  C   C33       1.0  0.7060231427952034  0.6834818221287475  0.889806574373928  1.0000
  C   C34       1.0  0.6129506726692142  0.2840574769877904  0.5776595738814336  1.0000
  C   C35       1.0  0.6472099842518945  0.6382638160327829  0.6013329994567798  1.0000
  C   C36       1.0  0.7079040381917352  0.7518319368285943  0.7501544094739357  1.0000
  C   C37       1.0  0.6917493984993329  0.6621481262134238  0.795321964216427  1.0000
  C   C38       1.0  0.7876579040378999  0.6409802443339173  0.7189067700399221  1.0000
  C   C39       1.0  0.6704748252270324  0.6543354667862432  0.6954917999943291  1.0000
  C   C40       1.0  0.7699323377333512  0.551751648361666  0.762514166684454  1.0000
  C   C41       1.0  0.6540807268741063  0.564284065985717  0.7404444761953499  1.0000
  C   C42       1.0  0.6995444065337967  0.671605001822513  0.8462434503366296  1.0000
  C   C43       1.0  0.6588270935737769  0.6465922532661139  0.6447299452405417  1.0000
  C   C44       1.0  0.09622219552780119  0.7017511271978307  0.8631047853255822  1.0000
  C   C45       1.0  0.6202547098677514  0.6147298537312693  0.554891796293802  1.0000
  C   C46       1.0  0.12394543476551714  0.68874794531753  0.8182660475977953  1.0000
  C   C47       1.0  0.15289751043584948  0.6758794016600688  0.7691218809872566  1.0000
  C   C48       1.0  0.17763509332981198  0.6652546395635852  0.7236894076203126  1.0000
  C   C49       1.0  0.20693858058397302  0.6522811513592046  0.6745360802682541  1.0000
  C   C50       1.0  0.23520101287617495  0.6398654485971065  0.6296069417912591  1.0000
  C   C51       1.0  0.6908613968663105  0.1019831712725718  0.8623663158542313  1.0000
  C   C52       1.0  0.6801868859588396  0.12963611684830303  0.8173580082371856  1.0000
  C   C53       1.0  0.6700871204882831  0.1571808871534728  0.7680042319995621  1.0000
  C   C54       1.0  0.6626007180024233  0.1797427194165593  0.7223424647898753  1.0000
  C   C55       1.0  0.6522892578868067  0.2066461272053175  0.6729775558893322  1.0000
  C   C56       1.0  0.2861993081955349  0.6125858308752541  0.5793307953315647  1.0000
  C   C57       1.0  0.6413194336572446  0.23317453704513713  0.6279182826989285  1.0000
  C   C58       1.0  0.05172449036358282  0.7284275830461623  0.0552735985534198  1.0000
  C   C59       1.0  0.7219226288923652  0.7180679276744043  0.07359726035257098  1.0000
  C   C60       1.0  0.7136976201290608  0.055602580678588295  0.05359354054608899  1.0000
  C   C61       1.0  0.04905051576834319  0.7284928182412002  0.9137546223637613  1.0000
  C   C62       1.0  0.7266284557396648  0.711774352076361  0.9365878759617061  1.0000
  C   C63       1.0  0.719287246723667  0.050514386814114694  0.9125850642554454  1.0000
  C   C64       1.0  0.6919528669193724  0.6906896415692642  0.12554970105352942  1.0000
  C   C65       1.0  0.6758403419374943  0.6786289306701008  0.17140450303816118  1.0000
  C   C66       1.0  0.6607052007563041  0.6670909141333965  0.22163635561309292  1.0000
  C   C67       1.0  0.4630949236768203  0.6923839546450309  0.8005774504413594  1.0000
  C   C68       1.0  0.9278212798936567  0.7653928047792034  0.2326990500694706  1.0000
  N   N1        1.0  0.37388516432808694  0.7052968769831337  0.8250746364899867  1.0000
  N   N2        1.0  0.8254700940597672  0.8072500973088381  0.2257593691226205  1.0000
  O   O1        1.0  0.3055204701279878  0.511663228876472  0.4582628909490367  1.0000
  O   O2        1.0  0.6943672776219076  0.5160302470093612  0.5357613806526658  1.0000
  O   O3        1.0  0.5209593911142535  0.6906266239519283  0.5370740722166829  1.0000
  O   O4        1.0  0.31314450848906034  0.6938936079619324  0.5527985876814654  1.0000
  O   O5        1.0  0.49592995328048783  0.4962676581119965  0.5017938523832584  1.0000
  O   O6        1.0  0.8159778605011211  0.03779984216890848  0.031547187347861404  1.0000
  O   O7        1.0  0.025957711726938986  0.8332771555374447  0.03395422548020829  1.0000
  O   O8        1.0  0.03058749665324012  0.6446643293704568  0.04001672885367919  1.0000
  O   O9        1.0  0.8243184164342809  0.6455169462066833  0.05424278072992188  1.0000
  O   O10       1.0  0.6461665778021273  0.8155928723715038  0.05202201258636309  1.0000
  O   O11       1.0  0.6352253656510244  0.02755857315374749  0.03785525459912979  1.0000
  O   O12       1.0  0.5106401471657024  0.3052040968542257  0.45837867524959813  1.0000
  O   O13       1.0  0.8208986412440497  0.03318133847954388  0.9248155708513508  1.0000
  O   O14       1.0  0.027398930704194625  0.8321152517652518  0.9260121689229521  1.0000
  O   O15       1.0  0.028536379796037317  0.6448423667619778  0.9417200190762073  1.0000
  O   O16       1.0  0.8244136026136676  0.6389366278118442  0.9563346987064847  1.0000
  O   O17       1.0  0.6489402960882205  0.8113170279057444  0.9539312165909593  1.0000
  O   O18       1.0  0.6397298823243105  0.022564658721819293  0.9395328392540917  1.0000
  O   O19       1.0  0.8389959916607381  0.841127848933951  0.9898402682217267  1.0000
  O   O20       1.0  0.6950045760327159  0.3076323629659682  0.4518334284246706  1.0000
  O   O21       1.0  0.6869088725568632  0.5181898796070855  0.43771021983576464  1.0000
  O   O22       1.0  0.5126658637912129  0.692553415510865  0.438834392802768  1.0000
  O   O23       1.0  0.30479495269282353  0.6981491802281995  0.4547849901129553  1.0000
  O   O24       1.0  0.30429377105202365  0.5107871744840436  0.5659824326389611  1.0000
  O   O25       1.0  0.5100671622676887  0.3042023151700093  0.5657205879002801  1.0000
  O   O26       1.0  0.6937977370080121  0.3088986273826464  0.5501819355283287  1.0000
  O   O27       1.0  0.3188320621412189  0.31879411196390345  0.5203481837554023  1.0000
  O   O28       1.0  0.009059628518542704  0.02561793116867509  0.967198070072122  1.0000
