data_image0
_chemical_formula_structural       Zn4H26C22O15
_chemical_formula_sum              "Zn4 H26 C22 O15"
_cell_length_a       10.929641919830233
_cell_length_b       10.860370739837123
_cell_length_c       10.911644004827997
_cell_angle_alpha    80.07699049740904
_cell_angle_beta     82.40679637841434
_cell_angle_gamma    89.85244130961412

_space_group_name_H-M_alt    "P 1"
_space_group_IT_number       1

loop_
  _space_group_symop_operation_xyz
  'x, y, z'

loop_
  _atom_site_type_symbol
  _atom_site_label
  _atom_site_symmetry_multiplicity
  _atom_site_fract_x
  _atom_site_fract_y
  _atom_site_fract_z
  _atom_site_occupancy
  Zn  Zn1       1.0  0.3998570437524335  0.6099589460159647  0.38426926653833965  1.0000
  Zn  Zn2       1.0  0.6145759860520457  0.4048612204461789  0.3937802617226824  1.0000
  Zn  Zn3       1.0  0.37876208572544817  0.3825553916173802  0.616512140536628  1.0000
  Zn  Zn4       1.0  0.5842266756543708  0.5939752847772581  0.5852763511518547  1.0000
  H   H1        1.0  0.2250078473733268  0.9276630259801022  0.4338724279548671  1.0000
  H   H2        1.0  0.6534908664427305  0.8973774623037655  0.6362142999683799  1.0000
  H   H3        1.0  0.069738393023826  0.2414176441334703  0.5426688712792542  1.0000
  H   H4        1.0  0.9303935522973247  0.2629252892040839  0.4693271681360046  1.0000
  H   H5        1.0  0.9221942129644914  0.20368362894421213  0.634662278004086  1.0000
  H   H6        1.0  0.8540897468066007  0.7810939250808531  0.3281394488056364  1.0000
  H   H7        1.0  0.9137960509979166  0.6920167567766525  0.20883865720461614  1.0000
  H   H8        1.0  0.9969957658143682  0.8274242060202396  0.229683480308836  1.0000
  H   H9        1.0  0.5036174569812033  0.1958254162438493  0.9558927577388378  1.0000
  H   H10       1.0  0.5512757973365296  0.21533578572793738  0.10124737001012112  1.0000
  H   H11       1.0  0.41086654159364844  0.13336400097006867  0.09897582002348321  1.0000
  H   H12       1.0  0.2323502514008737  0.06357735925803348  0.5040482053025388  1.0000
  H   H13       1.0  0.37367916290649106  0.3542642727171597  0.14238092712405157  1.0000
  H   H14       1.0  0.3154711440198739  0.3279658426164573  0.005427158699703214  1.0000
  H   H15       1.0  0.5343069500417172  0.7878090071160743  0.04788633231700598  1.0000
  H   H16       1.0  0.6635390599980724  0.7188757107255695  0.11304765817900636  1.0000
  H   H17       1.0  0.6858374402355378  0.8226644420073438  0.9672968488202615  1.0000
  H   H18       1.0  0.7096861907994736  0.6045012333291594  0.928002592452167  1.0000
  H   H19       1.0  0.5854963050619871  0.6756595561778269  0.8607580287383527  1.0000
  H   H20       1.0  0.21044240326289548  0.07833832590058878  0.3434426417936152  1.0000
  H   H21       1.0  0.4284265520391628  0.1335614629836783  0.35706009366378316  1.0000
  H   H22       1.0  0.4224141398875361  0.9962625879563872  0.29231400302746385  1.0000
  H   H23       1.0  0.7334795260374705  0.1133920498195238  0.6508360050403326  1.0000
  H   H24       1.0  0.5999785592532446  0.13374875210546117  0.7566393194420161  1.0000
  H   H25       1.0  0.7052848201365193  0.0152318227405885  0.8000948749826052  1.0000
  H   H26       1.0  0.5223716091223736  0.9165612605829022  0.7399863874581032  1.0000
  C   C1        1.0  0.8247026969163471  0.5459074249216372  0.4491115237222729  1.0000
  C   C2        1.0  0.4687531100015007  0.9649024969302218  0.4788320026439763  1.0000
  C   C3        1.0  0.5232795876174805  0.024312965679342786  0.5578883050490689  1.0000
  C   C4        1.0  0.028742979229754405  0.48323857329145165  0.5039097249731413  1.0000
  C   C5        1.0  0.3986628755637298  0.0347567717093753  0.37889368718387584  1.0000
  C   C6        1.0  0.25825619762925806  0.025302436210786493  0.41756230905657793  1.0000
  C   C7        1.0  0.5907886553346272  0.9689442882040138  0.6662691336918701  1.0000
  C   C8        1.0  0.6611431443508806  0.063578642668368  0.7210540475918776  1.0000
  C   C9        1.0  0.9721862316862512  0.2673132836881179  0.5550148149862795  1.0000
  C   C10       1.0  0.9379539748193366  0.7477044363837706  0.27770586806444447  1.0000
  C   C11       1.0  0.40094737649338436  0.3361565400942439  0.04654033535828723  1.0000
  C   C12       1.0  0.9629901014004147  0.5691524346783012  0.43418835631315744  1.0000
  C   C13       1.0  0.4708199621555238  0.21291473366962776  0.051049952574743415  1.0000
  C   C14       1.0  0.6166081258862304  0.6405169385752103  0.9516177109942988  1.0000
  C   C15       1.0  0.625081262354179  0.7480774251474926  0.024581775780227112  1.0000
  C   C16       1.0  0.47699795562335373  0.4446860584190516  0.9681152628424032  1.0000
  C   C17       1.0  0.5355406562384032  0.529952262421361  0.018536778352647283  1.0000
  C   C18       1.0  0.1630801766593137  0.489107562531359  0.5063336588629356  1.0000
  C   C19       1.0  0.5208628019167989  0.5152425508825473  0.15930209414459282  1.0000
  C   C20       1.0  0.48368261631507886  0.4535472771067433  0.8297000603236031  1.0000
  C   C21       1.0  0.5147253637429046  0.1643998802922226  0.5374862839053735  1.0000
  C   C22       1.0  0.4746430550603478  0.8274682618820891  0.4853341466974825  1.0000
  O   O1        1.0  0.4944008260134964  0.49375475358173293  0.4926191989488303  1.0000
  O   O2        1.0  0.601499462912912  0.22506089465567664  0.461525540206246  1.0000
  O   O3        1.0  0.5153688610075521  0.7609654327582758  0.5799004101662959  1.0000
  O   O4        1.0  0.42332167897242806  0.20833753739847072  0.5994205280433249  1.0000
  O   O5        1.0  0.43917454772115144  0.7840125169393699  0.3934229739017426  1.0000
  O   O6        1.0  0.9591831032016033  0.3905697912223898  0.5865067057712494  1.0000
  O   O7        1.0  0.011742874057773599  0.676188917943982  0.36364242027176635  1.0000
  O   O8        1.0  0.44098928923351366  0.5833420370449218  0.20916560113181504  1.0000
  O   O9        1.0  0.5758937099234772  0.5127466871839488  0.759902521792867  1.0000
  O   O10       1.0  0.7869086966883926  0.4618460940396146  0.3945524559666256  1.0000
  O   O11       1.0  0.2078321486109331  0.40396322778290983  0.5839126017969889  1.0000
  O   O12       1.0  0.7601760292493295  0.6162578971071114  0.5129982952743647  1.0000
  O   O13       1.0  0.2237171790617367  0.5780287164320441  0.4309400947130514  1.0000
  O   O14       1.0  0.5927723134789886  0.43848713207327705  0.2148400579949126  1.0000
  O   O15       1.0  0.3961280807766414  0.4000876796848374  0.7897635841296025  1.0000
