data_image0
_chemical_formula_structural       Zn2H44C50N6O14F2
_chemical_formula_sum              "Zn2 H44 C50 N6 O14 F2"
_cell_length_a       9.78488814064812
_cell_length_b       10.169039653969868
_cell_length_c       12.761996764354963
_cell_angle_alpha    107.42353066188312
_cell_angle_beta     107.59430900983973
_cell_angle_gamma    96.31687178773012

_space_group_name_H-M_alt    "P 1"
_space_group_IT_number       1

loop_
  _space_group_symop_operation_xyz
  'x, y, z'

loop_
  _atom_site_type_symbol
  _atom_site_label
  _atom_site_symmetry_multiplicity
  _atom_site_fract_x
  _atom_site_fract_y
  _atom_site_fract_z
  _atom_site_occupancy
  Zn  Zn1       1.0  0.8382667639917684  0.8266987644764472  0.9631740243862978  1.0000
  Zn  Zn2       1.0  0.16175814156258644  0.17332507362467459  0.03682986644031423  1.0000
  H   H1        1.0  0.22975940169610004  0.515966892710097  0.9451418153671725  1.0000
  H   H2        1.0  0.7702416465499269  0.4840326568185065  0.05485853762839102  1.0000
  H   H3        1.0  0.35716650331823263  0.6642562102770884  0.9611514322583116  1.0000
  H   H4        1.0  0.6428315765624149  0.3357443950605302  0.03884768771595758  1.0000
  H   H5        1.0  0.1238950106690595  0.07296248774733273  0.30922858776697376  1.0000
  H   H6        1.0  0.8761049708864092  0.927037060650662  0.6907707300172063  1.0000
  H   H7        1.0  0.8474568139630847  0.3254816623444655  0.5441470055090605  1.0000
  H   H8        1.0  0.15254555968829922  0.6745189411959134  0.45585234223825927  1.0000
  H   H9        1.0  0.488444215011647  0.04613599956728361  0.18816476907091578  1.0000
  H   H10       1.0  0.5115541127803951  0.9538656611793712  0.8118338756727181  1.0000
  H   H11       1.0  0.5874765613381357  0.19861350768015038  0.4587706876886557  1.0000
  H   H12       1.0  0.4125277836313472  0.8013818196789944  0.5412325766169985  1.0000
  H   H13       1.0  0.6270818260481761  0.4596206944492921  0.5090004225332264  1.0000
  H   H14       1.0  0.37292010521857594  0.5403735828232075  0.4910059422673072  1.0000
  H   H15       1.0  0.7001913146539777  0.4477920498059265  0.39082015062940206  1.0000
  H   H16       1.0  0.2998037536476517  0.5522096214521997  0.6091839972396116  1.0000
  H   H17       1.0  0.3830950352993484  0.29570983122536637  0.35366491807535994  1.0000
  H   H18       1.0  0.6169022144198308  0.7042876281081121  0.6463481494228844  1.0000
  H   H19       1.0  0.4623084918146247  0.28608485683417945  0.24015763849013178  1.0000
  H   H20       1.0  0.5376835595062701  0.7139178816083815  0.7598523198881181  1.0000
  H   H21       1.0  0.2999047923722101  0.27069334261299366  0.6959271603545716  1.0000
  H   H22       1.0  0.7000962828823418  0.7293062005959288  0.3040692795684734  1.0000
  H   H23       1.0  0.18036381869642784  0.28133884474539184  0.7779006120631491  1.0000
  H   H24       1.0  0.8196319123019435  0.7186606953383504  0.22209221703194976  1.0000
  H   H25       1.0  0.42425157664467156  0.42759748811666054  0.9047764564469246  1.0000
  H   H26       1.0  0.5757486366170852  0.5724031194821749  0.09522473395013262  1.0000
  H   H27       1.0  0.42619086494025993  0.5227813853394496  0.8081646389011965  1.0000
  H   H28       1.0  0.5738098603493994  0.47722132928565497  0.1918332531910777  1.0000
  H   H29       1.0  0.23113835989113343  0.6747402057046162  0.7822553914329973  1.0000
  H   H30       1.0  0.7688627153634187  0.3252593375043063  0.21774104849005482  1.0000
  H   H31       1.0  0.11319345977501877  0.6787288556928248  0.8646967421693431  1.0000
  H   H32       1.0  0.8868054388847852  0.3212706953663656  0.13530388824695194  1.0000
  H   H33       1.0  0.9887954949641511  0.4287440902222245  0.7480456655229374  1.0000
  H   H34       1.0  0.01120200324531604  0.5712586273307353  0.2519530340076841  1.0000
  H   H35       1.0  0.9914405018002271  0.5249466505794945  0.6525520956136361  1.0000
  H   H36       1.0  0.008560557249211306  0.4750528964212323  0.34744669215292834  1.0000
  H   H37       1.0  0.5824811112382947  0.3940258152972477  0.6643361376218238  1.0000
  H   H38       1.0  0.4175189453621543  0.605969512595202  0.33566611629628085  1.0000
  H   H39       1.0  0.5067466697357403  0.13032063248003573  0.5738376878646108  1.0000
  H   H40       1.0  0.4932528159969394  0.8696768050998788  0.42616258038083293  1.0000
  H   H41       1.0  0.6322588652356275  0.9814997500728713  0.6786544404645481  1.0000
  H   H42       1.0  0.3677414500796274  0.018496630700745708  0.32134577299391504  1.0000
  H   H43       1.0  0.9054920822474699  0.35389530304831146  0.9616181059093519  1.0000
  H   H44       1.0  0.09451037185059619  0.6461010787225874  0.03838339535739272  1.0000
  C   C1        1.0  0.5748527740893224  0.8526883688963169  0.04532112920066577  1.0000
  C   C2        1.0  0.4251417335571901  0.14730589035043107  0.9546717282040971  1.0000
  C   C3        1.0  0.6737070674743889  0.9734702430881798  0.15313062688861118  1.0000
  C   C4        1.0  0.3262970733880977  0.026533537921416408  0.8468745912942239  1.0000
  C   C5        1.0  0.8311189981493997  0.9952901806508057  0.19512576052439823  1.0000
  C   C6        1.0  0.16887097380743646  0.004712542891184101  0.8048743012860269  1.0000
  C   C7        1.0  0.9090351588323528  0.10120545302498132  0.3113928533102026  1.0000
  C   C8        1.0  0.09096322356749914  0.8988057142532856  0.6886057048509784  1.0000
  C   C9        1.0  0.06331738371503799  0.12614703129100494  0.3616307541765664  1.0000
  C   C10       1.0  0.9366850865881418  0.8738493466880831  0.6383683992466587  1.0000
  C   C11       1.0  0.1352698847211826  0.2202519033180438  0.47338696124883467  1.0000
  C   C12       1.0  0.8647324127155755  0.7797391987464625  0.5266156035389642  1.0000
  C   C13       1.0  0.06188928549740069  0.29479849560039645  0.5450340282829415  1.0000
  C   C14       1.0  0.9381124470640572  0.7052042340586129  0.4549735077802665  1.0000
  C   C15       1.0  0.9092000722989724  0.27261255292454223  0.4931724266694602  1.0000
  C   C16       1.0  0.09080101858179296  0.7273827836821315  0.5068355581470598  1.0000
  C   C17       1.0  0.833497382740191  0.1796080974563807  0.37746757326132746  1.0000
  C   C18       1.0  0.1664957190542893  0.8203893295480713  0.6225241358722542  1.0000
  C   C19       1.0  0.6073688672713828  0.05868861895979902  0.21984029709174277  1.0000
  C   C20       1.0  0.3926285823227431  0.9413141099685874  0.7801654459694162  1.0000
  C   C21       1.0  0.6014236108752441  0.2398109575229698  0.392121771795459  1.0000
  C   C22       1.0  0.3985771570491607  0.7601875441802124  0.6078837521177718  1.0000
  C   C23       1.0  0.6244637656324485  0.3974783110067366  0.4221529293623121  1.0000
  C   C24       1.0  0.37553483650062  0.6025201960188442  0.5778552198151559  1.0000
  C   C25       1.0  0.48231538395981494  0.3011864750209341  0.3320940760590432  1.0000
  C   C26       1.0  0.5176815644098197  0.6988141443533068  0.667913400077886  1.0000
  C   C27       1.0  0.2425903926157957  0.34110747874010633  0.7410062894096752  1.0000
  C   C28       1.0  0.7574147993110288  0.6589005100023473  0.25898841909107523  1.0000
  C   C29       1.0  0.35525973191874277  0.46570662282593406  0.8399049208619617  1.0000
  C   C30       1.0  0.6447451196769409  0.5342908128234145  0.16009582775341616  1.0000
  C   C31       1.0  0.16962934639035154  0.6107204768666181  0.8157591365981745  1.0000
  C   C32       1.0  0.8303674026832298  0.3892790757231597  0.18424177123885244  1.0000
  C   C33       1.0  0.061015388425900596  0.48478113410729423  0.7156596538813885  1.0000
  C   C34       1.0  0.938992786901764  0.515212073052922  0.2843400929715543  1.0000
  C   C35       1.0  0.7499868311484904  0.3909938444424484  0.8187382372761149  1.0000
  C   C36       1.0  0.2500129024955839  0.6090046485465096  0.18126155573870054  1.0000
  C   C37       1.0  0.6383634726220963  0.32775609580946263  0.7082944656763245  1.0000
  C   C38       1.0  0.3616327914321075  0.6722413434343653  0.2917058273929598  1.0000
  C   C39       1.0  0.5969813233599695  0.18032598285574153  0.6578470119111229  1.0000
  C   C40       1.0  0.4030172199332327  0.8196767408835728  0.3421558532889081  1.0000
  C   C41       1.0  0.665694229633509  0.09632986584585271  0.7165705625646267  1.0000
  C   C42       1.0  0.33430893038680404  0.9036696909997132  0.28343499131173633  1.0000
  C   C43       1.0  0.7754776518884512  0.15936802032247505  0.8277786244749521  1.0000
  C   C44       1.0  0.22452590190115979  0.8406378741663901  0.17222695587874168  1.0000
  C   C45       1.0  0.8182050664203189  0.3058681827577488  0.876428132830277  1.0000
  C   C46       1.0  0.1817928075929132  0.6941176350779303  0.12357135463300045  1.0000
  C   C47       1.0  0.793098479586277  0.5470614450039762  0.8835680845736958  1.0000
  C   C48       1.0  0.20689990105316272  0.4529264811219066  0.1164288871993051  1.0000
  C   C49       1.0  0.8371548148228527  0.07565469804715264  0.9024722307521174  1.0000
  C   C50       1.0  0.16285427769618369  0.9243564704257351  0.0975304186069437  1.0000
  N   N1        1.0  0.28002881143689246  0.5664385717562014  0.8996338986311726  1.0000
  N   N2        1.0  0.7199624805235985  0.4335652070614915  0.10036594054550824  1.0000
  N   N3        1.0  0.13987286362752377  0.3903849920635808  0.6577951440017458  1.0000
  N   N4        1.0  0.8601094860037933  0.6096261658391527  0.3421925816755831  1.0000
  N   N5        1.0  0.6816249683243782  0.16051748692363801  0.32596806999873  1.0000
  N   N6        1.0  0.31837562790325796  0.8394894608463731  0.6740347121046498  1.0000
  O   O1        1.0  0.4439619678204139  0.8166649571468272  0.04082760211432666  1.0000
  O   O2        1.0  0.5560392370869208  0.18333987208816893  0.9591716873601897  1.0000
  O   O3        1.0  0.6237297532463373  0.7887655991995716  0.9666243119372734  1.0000
  O   O4        1.0  0.376274996295848  0.2112360632750027  0.03337741361669803  1.0000
  O   O5        1.0  0.9049064843900894  0.9253206544650254  0.14137713680656833  1.0000
  O   O6        1.0  0.09508013083378591  0.0746767859787383  0.8586208828907329  1.0000
  O   O7        1.0  0.7911715744645917  0.6320673823283373  0.8273795010981786  1.0000
  O   O8        1.0  0.2088204606393305  0.36793004354549913  0.17261117282401273  1.0000
  O   O9        1.0  0.8311014328514901  0.589697940619054  0.9950898528529919  1.0000
  O   O10       1.0  0.1688977725595677  0.4102984491354393  0.004915586310112038  1.0000
  O   O11       1.0  0.7808360776392148  0.9431097701399407  0.8602641659802328  1.0000
  O   O12       1.0  0.21918161687786147  0.05688346615480101  0.13975663699279287  1.0000
  O   O13       1.0  0.9335969837954607  0.14061632347732464  0.003999151813019421  1.0000
  O   O14       1.0  0.0663887376042781  0.8593863917504057  0.9959944213083318  1.0000
  F   F1        1.0  0.28626506426065385  0.24740262489279277  0.517083605427544  1.0000
  F   F2        1.0  0.7137375519004223  0.7525990353205646  0.4829160497036398  1.0000
