data_image0
_chemical_formula_structural       Cu2H32C40N12Cl2
_chemical_formula_sum              "Cu2 H32 C40 N12 Cl2"
_cell_length_a       9.552860525216548
_cell_length_b       10.652744218262592
_cell_length_c       11.20606302096069
_cell_angle_alpha    83.05266203108799
_cell_angle_beta     75.24519354555584
_cell_angle_gamma    77.81859041032554

_space_group_name_H-M_alt    "P 1"
_space_group_IT_number       1

loop_
  _space_group_symop_operation_xyz
  'x, y, z'

loop_
  _atom_site_type_symbol
  _atom_site_label
  _atom_site_symmetry_multiplicity
  _atom_site_fract_x
  _atom_site_fract_y
  _atom_site_fract_z
  _atom_site_occupancy
  Cu  Cu1       1.0  0.54874993941403  0.5057608853035019  0.10422756694161717  1.0000
  Cu  Cu2       1.0  0.4512529849874055  0.4942324774202191  0.895772381584429  1.0000
  H   H1        1.0  0.7551347069291622  0.3018643766006264  0.2391574522924388  1.0000
  H   H2        1.0  0.24485413738005235  0.6981290050577015  0.7608437851105379  1.0000
  H   H3        1.0  0.8454335419841852  0.1840873150595002  0.4208448928796572  1.0000
  H   H4        1.0  0.1545540787772809  0.8159118639092353  0.5791594842109262  1.0000
  H   H5        1.0  0.6822433905001618  0.1869010666909432  0.631065934396588  1.0000
  H   H6        1.0  0.31774563992865257  0.8131067704396101  0.36893709354391296  1.0000
  H   H7        1.0  0.4215281776880957  0.30231002690761954  0.6697266206601428  1.0000
  H   H8        1.0  0.578462200588113  0.6977016516188003  0.33027475849169013  1.0000
  H   H9        1.0  0.10274737994247113  0.5399268737079979  0.5132962938057304  1.0000
  H   H10       1.0  0.8972405648647668  0.46008094497771884  0.486703403964647  1.0000
  H   H11       1.0  0.19764353758089473  0.49353761581231476  0.6328168778339176  1.0000
  H   H12       1.0  0.8023496809139274  0.5064759814940842  0.36718365010054305  1.0000
  H   H13       1.0  0.23219788371479666  0.24851875990010797  0.4196682546844883  1.0000
  H   H14       1.0  0.7678120494068634  0.7514976896718011  0.5803282787789003  1.0000
  H   H15       1.0  0.1259121680002977  0.05096696607525079  0.4749968982709731  1.0000
  H   H16       1.0  0.8741188897637782  0.9490417097537648  0.5249906008225126  1.0000
  H   H17       1.0  0.9313349749629579  0.033506538990508296  0.6696899319786384  1.0000
  H   H18       1.0  0.0687034150794047  0.9664828436580424  0.3302929310982563  1.0000
  H   H19       1.0  0.8511104667851016  0.21209321101333958  0.8101485702323216  1.0000
  H   H20       1.0  0.14891454424043352  0.7878827628804148  0.1898450748167662  1.0000
  H   H21       1.0  0.9505704862712606  0.5268719138207771  0.7507111603629824  1.0000
  H   H22       1.0  0.04942614591907807  0.4731205099981892  0.24929206044159713  1.0000
  H   H23       1.0  0.8485437564281426  0.4197762177741782  0.8529399421331618  1.0000
  H   H24       1.0  0.1514561247097461  0.5802161992871007  0.14706256972053916  1.0000
  H   H25       1.0  0.8783266410449144  0.23506887766486528  0.020183604959306937  1.0000
  H   H26       1.0  0.12166712740383188  0.7649370042203714  0.9798150534927714  1.0000
  H   H27       1.0  0.9638499367815567  0.10397591637077853  0.19700439172963516  1.0000
  H   H28       1.0  0.03613957782264514  0.8960193575265478  0.8029911173592764  1.0000
  H   H29       1.0  0.19564427092660003  0.12375049616918689  0.2479583950756918  1.0000
  H   H30       1.0  0.8043430211707517  0.8762400068621117  0.7520444199827025  1.0000
  H   H31       1.0  0.35567263252832493  0.27426134651405937  0.1202613018113894  1.0000
  H   H32       1.0  0.6443185275478526  0.7257263080222104  0.8797490422917846  1.0000
  C   C1        1.0  0.5375332659813948  0.36685906616454395  0.35364462949324604  1.0000
  C   C2        1.0  0.46246064831070305  0.6331410620576534  0.6463582585623299  1.0000
  C   C3        1.0  0.6835953324542033  0.3000352146866092  0.33160401390660604  1.0000
  C   C4        1.0  0.3163918775990382  0.699965874296744  0.6683975460521695  1.0000
  C   C5        1.0  0.7317984261918297  0.23547159872252624  0.43324001735110323  1.0000
  C   C6        1.0  0.26819440247868437  0.7645285110548272  0.5667595405343634  1.0000
  C   C7        1.0  0.6382298485833431  0.23632019624027117  0.5537262826577917  1.0000
  C   C8        1.0  0.3617663539941417  0.7636895506600184  0.4462749487975017  1.0000
  C   C9        1.0  0.49272293494365027  0.3006638971897644  0.5767737934715029  1.0000
  C   C10       1.0  0.5072702230507601  0.6993448936993757  0.42322821806791217  1.0000
  C   C11       1.0  0.4447414423626057  0.3656242645729364  0.4736736364256373  1.0000
  C   C12       1.0  0.5552527986143118  0.6343845240636412  0.5263281387968206  1.0000
  C   C13       1.0  0.1759871694957411  0.46006684094678013  0.5514283863049485  1.0000
  C   C14       1.0  0.8240075393909974  0.5399448182206896  0.44857026433550834  1.0000
  C   C15       1.0  0.10817085439948215  0.33998521366350326  0.5859999834703515  1.0000
  C   C16       1.0  0.8918363198879077  0.6600187260020222  0.4139977646882541  1.0000
  C   C17       1.0  0.14996288264471497  0.2400349815287015  0.5062706401858534  1.0000
  C   C18       1.0  0.8500476010906369  0.759973757796402  0.49372491541691943  1.0000
  C   C19       1.0  0.08890664064286818  0.129200089809224  0.5366221752030285  1.0000
  C   C20       1.0  0.9111206397634247  0.870800915829335  0.4633706410282842  1.0000
  C   C21       1.0  0.9815169689754342  0.11875452634451017  0.6460162044857826  1.0000
  C   C22       1.0  0.01851343805804347  0.8812368493531441  0.3539770867610272  1.0000
  C   C23       1.0  0.9375812765785626  0.21806243803425218  0.7256128794315088  1.0000
  C   C24       1.0  0.06243958731698019  0.7819279899932854  0.2743817181793986  1.0000
  C   C25       1.0  0.0016095435734584057  0.32795011340083136  0.6977799641359113  1.0000
  C   C26       1.0  0.9983921520021113  0.6720490052384916  0.30221599110358716  1.0000
  C   C27       1.0  0.9570517718077197  0.42793376946794126  0.79229466667951  1.0000
  C   C28       1.0  0.04294810933016885  0.5720586475933375  0.20770784517419827  1.0000
  C   C29       1.0  0.07343845096922756  0.3239939407429446  0.9708214428659473  1.0000
  C   C30       1.0  0.9265563439202041  0.6760071635185768  0.029183812604742277  1.0000
  C   C31       1.0  0.9823348400201082  0.24095410658588182  0.04077668986754902  1.0000
  C   C32       1.0  0.017661645007358052  0.7590440605474243  0.9592205180899925  1.0000
  C   C33       1.0  0.0306871340212993  0.17014993482391114  0.1397852257401837  1.0000
  C   C34       1.0  0.9693015052636794  0.8298444044289042  0.8602150489077758  1.0000
  C   C35       1.0  0.16305861164417476  0.18185758569423172  0.1690049937263467  1.0000
  C   C36       1.0  0.8369289466375848  0.8181367713341956  0.8309981921038768  1.0000
  C   C37       1.0  0.2530059499326356  0.26444355529558555  0.09992391659022098  1.0000
  C   C38       1.0  0.746989396230255  0.7355498438934731  0.9000812526416125  1.0000
  C   C39       1.0  0.20628556522326139  0.33571795799925036  0.9986137085011962  1.0000
  C   C40       1.0  0.793713095005948  0.6642802770698353  0.0013955095271995757  1.0000
  N   N1        1.0  0.45707027291948077  0.44178709152315304  0.2749400099779393  1.0000
  N   N2        1.0  0.5429230249803892  0.558215899133792  0.7250582065690593  1.0000
  N   N3        1.0  0.3220969229636879  0.48268520811208043  0.33878644895838755  1.0000
  N   N4        1.0  0.6778966411205901  0.5173216365419931  0.6612121383604473  1.0000
  N   N5        1.0  0.3136432664660446  0.4388630754499161  0.45887319233997914  1.0000
  N   N6        1.0  0.6863510363308266  0.561150529952627  0.5411288825210648  1.0000
  N   N7        1.0  0.06333054800292358  0.40857993550137195  0.8699350546952331  1.0000
  N   N8        1.0  0.9366664135113041  0.591421169429381  0.13007061976330198  1.0000
  N   N9        1.0  0.181478671796917  0.46727815848569065  0.835643199167869  1.0000
  N   N10       1.0  0.818522559167661  0.5327181154945037  0.16436033876248504  1.0000
  N   N11       1.0  0.2679791985717016  0.42525573510633313  0.912263842387219  1.0000
  N   N12       1.0  0.7320211557541255  0.5747395938806437  0.08774267785863539  1.0000
  Cl  Cl1       1.0  0.38427685850932386  0.6731071782406132  0.02180963165470472  1.0000
  Cl  Cl2       1.0  0.6157265351214605  0.3268890653626996  0.9781889755328805  1.0000
