data_image0
_chemical_formula_structural       Al4H20C28I2O20
_chemical_formula_sum              "Al4 H20 C28 I2 O20"
_cell_length_a       6.677763202422523
_cell_length_b       13.733142784563439
_cell_length_c       16.453875636102772
_cell_angle_alpha    90.65695409885397
_cell_angle_beta     89.58509558612866
_cell_angle_gamma    89.92194988777008

_space_group_name_H-M_alt    "P 1"
_space_group_IT_number       1

loop_
  _space_group_symop_operation_xyz
  'x, y, z'

loop_
  _atom_site_type_symbol
  _atom_site_label
  _atom_site_symmetry_multiplicity
  _atom_site_fract_x
  _atom_site_fract_y
  _atom_site_fract_z
  _atom_site_occupancy
  Al  Al1       1.0  0.8642062322146983  0.5000593921156238  0.501397754373457  1.0000
  Al  Al2       1.0  0.3644715507426851  0.5018511369575691  0.49970327299334383  1.0000
  Al  Al3       1.0  0.39987553825328354  0.009630063482148898  0.0057352500093657  1.0000
  Al  Al4       1.0  0.8998865308595753  0.008878248420622  0.0083615394071259  1.0000
  H   H1        1.0  0.778744386731418  0.2757620159097699  0.29789992247429353  1.0000
  H   H2        1.0  0.9869781884606182  0.09429272342545399  0.2914053000550752  1.0000
  H   H3        1.0  0.3210690814345297  0.1867750448592744  0.3681749608452663  1.0000
  H   H4        1.0  0.4798535474406406  0.23050196824280528  0.2106430333946037  1.0000
  H   H5        1.0  0.2713826536878443  0.410500070144515  0.21742231075311486  1.0000
  H   H6        1.0  0.8205895091795768  0.3026108289752472  0.6991857534895163  1.0000
  H   H7        1.0  0.2805019477172408  0.3155806354183851  0.707869949914965  1.0000
  H   H8        1.0  0.840306382920154  0.20796740336717792  0.8261566030045915  1.0000
  H   H9        1.0  0.29506517495580903  0.19540014301931308  0.7943708966728807  1.0000
  H   H10       1.0  0.9373536125185851  0.7940938470221185  0.18728404703192336  1.0000
  H   H11       1.0  0.4859994886403455  0.8263242785838543  0.2176992406482583  1.0000
  H   H12       1.0  0.9274237873753535  0.6982718157341666  0.3151324479516546  1.0000
  H   H13       1.0  0.47135840722233985  0.6889286349121875  0.28892266022788254  1.0000
  H   H14       1.0  0.5211563811557197  0.7787944791079938  0.8229816466777394  1.0000
  H   H15       1.0  0.9239246974627874  0.6955745949568879  0.6850332028082351  1.0000
  H   H16       1.0  0.46763040142655393  0.732104281426814  0.6874890493347225  1.0000
  H   H17       1.0  0.6123160137885365  0.37238051431209834  0.4955168539707061  1.0000
  H   H18       1.0  0.11211677721806979  0.6290478074066854  0.5094476484158577  1.0000
  H   H19       1.0  0.6504679576775698  0.13629503206972518  0.025976192245757108  1.0000
  H   H20       1.0  0.15176753630584017  0.8890659045024519  0.9723934393843765  1.0000
  C   C1        1.0  0.6161406444483717  0.6131616937743657  0.3879622834669405  1.0000
  C   C2        1.0  0.6148532830032849  0.6241069905089915  0.6076259292753649  1.0000
  C   C3        1.0  0.11725054620797687  0.3886855540890863  0.6133365430954926  1.0000
  C   C4        1.0  0.1137796498800014  0.3826278662058868  0.3903150543658002  1.0000
  C   C5        1.0  0.9341334590862047  0.2642882681006071  0.2788425759178565  1.0000
  C   C6        1.0  0.024032737184335  0.2891561357482786  0.19370076586145765  1.0000
  C   C7        1.0  0.142507995134423  0.18939202177337927  0.1905523939716289  1.0000
  C   C8        1.0  0.05055639866087349  0.16521068672076916  0.27632046191827453  1.0000
  C   C9        1.0  0.23652555169269357  0.21510180871123913  0.316920256425334  1.0000
  C   C10       1.0  0.3251010628175307  0.2403534059009544  0.23126693079180435  1.0000
  C   C11       1.0  0.20956110418566706  0.33961898962269294  0.23358187744763376  1.0000
  C   C12       1.0  0.11792521036288407  0.3142983269197401  0.319697557817932  1.0000
  C   C13       1.0  0.9689438168183457  0.28631487677192513  0.7232200549243474  1.0000
  C   C14       1.0  0.1286358010038811  0.3265292416386246  0.6857107711223946  1.0000
  C   C15       1.0  0.9800286352802628  0.22462020277441747  0.7942133880185055  1.0000
  C   C16       1.0  0.14960520935245814  0.1849954712730622  0.8236141756346458  1.0000
  C   C17       1.0  0.7930457065368229  0.7826739425646919  0.2174739751262891  1.0000
  C   C18       1.0  0.6333083671915672  0.8316136085350719  0.1889683702184612  1.0000
  C   C19       1.0  0.786047547624669  0.7173139011916232  0.2861260680356992  1.0000
  C   C20       1.0  0.6174934988783889  0.6766337166372479  0.31622769495061226  1.0000
  C   C21       1.0  0.8033892680334915  0.8022349596447071  0.7716049698578047  1.0000
  C   C22       1.0  0.6586351740731401  0.8215595016781023  0.8274195942450577  1.0000
  C   C23       1.0  0.7851857186246249  0.7290523364575066  0.7073403548764858  1.0000
  C   C24       1.0  0.6131018776907594  0.700505949672049  0.6719573153503475  1.0000
  C   C25       1.0  0.6593590340976904  0.8928568966405663  0.8950853566164201  1.0000
  C   C26       1.0  0.6405101555816444  0.894684986860213  0.11697547791559512  1.0000
  C   C27       1.0  0.1436290952740862  0.12154780913154183  0.11986338675619382  1.0000
  C   C28       1.0  0.1535357611646333  0.12382721409395  0.8968208224357994  1.0000
  I   I1        1.0  0.856247867335419  0.3450933260112875  0.09477014932001282  1.0000
  I   I2        1.0  0.08201322323414927  0.8750049647367605  0.7659528135391442  1.0000
  O   O1        1.0  0.4450181328004987  0.5998714482103151  0.5786455878779863  1.0000
  O   O2        1.0  0.7831642936987323  0.591765480462108  0.42036304323567464  1.0000
  O   O3        1.0  0.9429597558793931  0.4108522276543525  0.4161173365596298  1.0000
  O   O4        1.0  0.784223510573007  0.5894850957109625  0.5857326570812875  1.0000
  O   O5        1.0  0.9466537315737965  0.408403064717497  0.5830428607314673  1.0000
  O   O6        1.0  0.4431767445850808  0.5857682061435625  0.4124932511390611  1.0000
  O   O7        1.0  0.6139158684905013  0.4425558766943992  0.5010713078459545  1.0000
  O   O8        1.0  0.28702275536781485  0.4174346757667918  0.5863743396065433  1.0000
  O   O9        1.0  0.28329273414949796  0.40647899344863003  0.4195024217919539  1.0000
  O   O10       1.0  0.11356610388573779  0.5593542968137015  0.5001932911929359  1.0000
  O   O11       1.0  0.8088157928321493  0.9102148045346611  0.082406813441132  1.0000
  O   O12       1.0  0.4888128470078712  0.9120619821043263  0.9272948603837321  1.0000
  O   O13       1.0  0.32659456867934017  0.09217845925624601  0.9168803963463861  1.0000
  O   O14       1.0  0.47072786995973087  0.9276389686855923  0.09470268345435782  1.0000
  O   O15       1.0  0.30984493922740336  0.105339340770378  0.083979435280007  1.0000
  O   O16       1.0  0.8260508610226012  0.9281806002086413  0.917540463128077  1.0000
  O   O17       1.0  0.6500934796034982  0.0686384085386678  0.008310605511859102  1.0000
  O   O18       1.0  0.9740546326758519  0.0862756040530925  0.10047449560059363  1.0000
  O   O19       1.0  0.9891095124706266  0.10778179884451332  0.93408664996948  1.0000
  O   O20       1.0  0.15026467765961368  0.9490120797377698  0.004126857132455104  1.0000
