data_image0
_chemical_formula_structural       H52Pd4C52S4Br8N4
_chemical_formula_sum              "H52 Pd4 C52 S4 Br8 N4"
_cell_length_a       8.872431316
_cell_length_b       11.510865802
_cell_length_c       13.8035
_cell_angle_alpha    90.0
_cell_angle_beta     90.0
_cell_angle_gamma    90.0

_space_group_name_H-M_alt    "P 1"
_space_group_IT_number       1

loop_
  _space_group_symop_operation_xyz
  'x, y, z'

loop_
  _atom_site_type_symbol
  _atom_site_label
  _atom_site_symmetry_multiplicity
  _atom_site_fract_x
  _atom_site_fract_y
  _atom_site_fract_z
  _atom_site_occupancy
  H   H1        1.0  0.7853957671595211  0.854774103811586  0.3459187887130071  1.0000
  H   H2        1.0  0.2853964048652173  0.1452245233985394  0.6540812112869929  1.0000
  H   H3        1.0  0.2853964048652173  0.3547752245787166  0.1540812112869929  1.0000
  H   H4        1.0  0.7853957671595211  0.6452260088645616  0.8459180642590667  1.0000
  H   H5        1.0  0.5943117294682239  0.9081801647086891  0.354201470641506  1.0000
  H   H6        1.0  0.0943123671739201  0.0918193312458158  0.6457978049045536  1.0000
  H   H7        1.0  0.0943112400871442  0.4081804167314332  0.14579852935849405  1.0000
  H   H8        1.0  0.5943117294682239  0.5918199479674584  0.8542014706415061  1.0000
  H   H9        1.0  0.9799185466019084  0.9847035136167221  0.3043068786901841  1.0000
  H   H10       1.0  0.4799158030472839  0.0152942448490236  0.6956938457637564  1.0000
  H   H11       1.0  0.4799158030472839  0.48470550312823246  0.19569384576375637  1.0000
  H   H12       1.0  0.9799185466019084  0.5152965990594183  0.8043076031441316  1.0000
  H   H13       1.0  0.0552103456824327  0.1818959612608992  0.2436664614047146  1.0000
  H   H14       1.0  0.5552063267164087  0.8181017972048465  0.7563364364110542  1.0000
  H   H15       1.0  0.5552051996296328  0.6818974467269214  0.2563364364110541  1.0000
  H   H16       1.0  0.0552092185956568  0.3181046554607363  0.7436671858586623  1.0000
  H   H17       1.0  0.8693017421381626  0.3472293108747309  0.2638272901800249  1.0000
  H   H18       1.0  0.3692978714967623  0.652770185079774  0.7361734342739155  1.0000
  H   H19       1.0  0.3692978714967623  0.8472299275963735  0.23617343427391554  1.0000
  H   H20       1.0  0.8693017421381626  0.1527713058469047  0.7638272901800249  1.0000
  H   H21       1.0  0.6662412803737539  0.4193759255851361  0.3111732531604333  1.0000
  H   H22       1.0  0.1662374097323465  0.5806235703693758  0.688825297931686  1.0000
  H   H23       1.0  0.1662374097323465  0.9193765423067718  0.188825297931686  1.0000
  H   H24       1.0  0.6662401532869779  0.0806238223921198  0.8111732531604332  1.0000
  H   H25       1.0  0.5883381695597478  0.3573649515821202  0.4201390951570262  1.0000
  H   H26       1.0  0.0883354260051163  0.6426345443723918  0.5798594559350861  1.0000
  H   H27       1.0  0.0883354260051163  0.8573655683037558  0.07985945593508603  1.0000
  H   H28       1.0  0.5883381695597478  0.1426347963951358  0.9201390951570263  1.0000
  H   H29       1.0  0.5057801903642272  0.3245985197178456  0.3045133480638995  1.0000
  H   H30       1.0  0.0057763197228198  0.6754009762366593  0.6954852030282197  1.0000
  H   H31       1.0  0.0057763197228198  0.8245991364394882  0.1954852030282197  1.0000
  H   H32       1.0  0.5057790632774513  0.1754012282594033  0.8045133480638996  1.0000
  H   H33       1.0  0.4258246545326116  0.814168122642144  0.4355576484225026  1.0000
  H   H34       1.0  0.92582627100046  0.1858322420567475  0.5644430760314378  1.0000
  H   H35       1.0  0.9258251439136843  0.3141675059205085  0.0644430760314378  1.0000
  H   H36       1.0  0.4258257816193805  0.6858319900340035  0.9355576484225026  1.0000
  H   H37       1.0  0.3014765518867861  0.6254316681156311  0.4493824030137291  1.0000
  H   H38       1.0  0.8014770412678587  0.3745686965832604  0.550617596986271  1.0000
  H   H39       1.0  0.8014759141810899  0.1254310513939885  0.05061759698627102  1.0000
  H   H40       1.0  0.3014765518867861  0.8745684445605164  0.9493824030137292  1.0000
  H   H41       1.0  0.4192300698110003  0.46445680906739983  0.5462455174412284  1.0000
  H   H42       1.0  0.91923055919208  0.5355426868871049  0.4537544825587716  1.0000
  H   H43       1.0  0.91923055919208  0.9644574257890354  0.9537544825587717  1.0000
  H   H44       1.0  0.4192311968977762  0.035542938909856  0.0462455174412284  1.0000
  H   H45       1.0  0.6634089113077124  0.4985506823477053  0.6286441844459745  1.0000
  H   H46       1.0  0.1634084219266327  0.5014496823511863  0.3713550911000852  1.0000
  H   H47       1.0  0.1634084219266327  0.9985504303249613  0.8713550911000851  1.0000
  H   H48       1.0  0.6634077842209365  0.0014499343739303  0.1286441844459745  1.0000
  H   H49       1.0  0.7986908827596011  0.6873470802365986  0.606340420907742  1.0000
  H   H50       1.0  0.2986915204653044  0.3126524157179134  0.39365957909225824  1.0000
  H   H51       1.0  0.2986915204653044  0.1873473322593426  0.8936595790922581  1.0000
  H   H52       1.0  0.798692009846377  0.812653032439549  0.1063396964538015  1.0000
  Pd  Pd1       1.0  0.46272322137861016  0.12351286379804802  0.42990400985257093  1.0000
  Pd  Pd2       1.0  0.962722583672914  0.8764875009008435  0.5700952656934817  1.0000
  Pd  Pd3       1.0  0.962721456586138  0.6235126117752969  0.0700952656934817  1.0000
  Pd  Pd4       1.0  0.46272322137861016  0.37648688417920784  0.9299047343065185  1.0000
  C   C1        1.0  0.7112977012985411  0.9209342009840924  0.3777454993298833  1.0000
  C   C2        1.0  0.2112972119174614  0.0790652949704125  0.6222537762161764  1.0000
  C   C3        1.0  0.2112972119174614  0.4209344530068364  0.1222537762161764  1.0000
  C   C4        1.0  0.7112965742117652  0.5790659116920551  0.8777462237838237  1.0000
  C   C5        1.0  0.6637380206460648  0.1367977028909877  0.36625421088854193  1.0000
  C   C6        1.0  0.1637375312649851  0.8632026618079037  0.6337450646575178  1.0000
  C   C7        1.0  0.1637364041782092  0.6367974508682437  0.1337443402035703  1.0000
  C   C8        1.0  0.6637380206460648  0.36320291383065484  0.8662549353424823  1.0000
  C   C9        1.0  0.7612749830837942  0.0413557075712987  0.3517832433803036  1.0000
  C   C10       1.0  0.2612744937027145  0.9586429196388266  0.648216032165756  1.0000
  C   C11       1.0  0.2612733666159386  0.5413571930373209  0.14821603216575602  1.0000
  C   C12       1.0  0.7612738559970182  0.4586440404059573  0.8517839678342443  1.0000
  C   C13       1.0  0.9027085941546459  0.058134636569541  0.30996703734560077  1.0000
  C   C14       1.0  0.4027081047735663  0.9418648593849709  0.6900329626543993  1.0000
  C   C15       1.0  0.4027069776867904  0.5581352532911765  0.1900336871083397  1.0000
  C   C16       1.0  0.9027074670678702  0.4418659801521017  0.8099677617995413  1.0000
  C   C17       1.0  0.9455469083058717  0.1678883268419469  0.27699424059115785  1.0000
  C   C18       1.0  0.4455419105776954  0.832111169112558  0.7230072083167303  1.0000
  C   C19       1.0  0.4455419105776954  0.6678889435635895  0.22300720831673  1.0000
  C   C20       1.0  0.9455469083058717  0.3321122898796887  0.7769942405911581  1.0000
  C   C21       1.0  0.8462392925443325  0.2587702828993486  0.2879313217662158  1.0000
  C   C22       1.0  0.346236548989701  0.7412292130551562  0.7120694026877248  1.0000
  C   C23       1.0  0.346236548989701  0.7587708996209841  0.21206940268772465  1.0000
  C   C24       1.0  0.8462381654575566  0.241230333822287  0.7879313217662158  1.0000
  C   C25       1.0  0.6111594225836896  0.3432678364917976  0.3430238707574134  1.0000
  C   C26       1.0  0.1111566790290581  0.6567325282070939  0.656974680334699  1.0000
  C   C27       1.0  0.1111566790290581  0.8432675844690536  0.1569746803346987  1.0000
  C   C28       1.0  0.6111594225836896  0.1567327802298379  0.8430238707574135  1.0000
  C   C29       1.0  0.624227993741961  0.7608680485596722  0.5169015104864699  1.0000
  C   C30       1.0  0.12422863144765729  0.2391314473948398  0.4830984895135302  1.0000
  C   C31       1.0  0.1242275043608814  0.2608683005824162  0.9830984895135304  1.0000
  C   C32       1.0  0.624227993741961  0.7391311953720958  0.0169015104864698  1.0000
  C   C33       1.0  0.4829792249022375  0.7439753140473613  0.47398848118231035  1.0000
  C   C34       1.0  0.9829785871965412  0.2560250506515303  0.5260115188176897  1.0000
  C   C35       1.0  0.9829785871965412  0.2439755660701053  0.0260115188176897  1.0000
  C   C36       1.0  0.4829780978154616  0.7560247986287864  0.9739884811823103  1.0000
  C   C37       1.0  0.4114824753183797  0.6366488955788796  0.4830267685731898  1.0000
  C   C38       1.0  0.9114829646994593  0.3633514691200119  0.5169739558807578  1.0000
  C   C39       1.0  0.9114840917862354  0.1366491476016236  0.016973955880757802  1.0000
  C   C40       1.0  0.4114824753183797  0.8633512170972678  0.9830267685731897  1.0000
  C   C41       1.0  0.4765458135894818  0.5476034651454995  0.5375071539826878  1.0000
  C   C42       1.0  0.9765463029705544  0.4523960308090125  0.46249284601731233  1.0000
  C   C43       1.0  0.9765463029705544  0.0476028484238569  0.9624928460173126  1.0000
  C   C44       1.0  0.4765458135894818  0.9523957787862684  0.0375071539826877  1.0000
  C   C45       1.0  0.614815692082388  0.5664274184194866  0.5832571449270108  1.0000
  C   C46       1.0  0.11481520270130828  0.4335729462794049  0.4167428550729895  1.0000
  C   C47       1.0  0.11481520270130828  0.0664268016978511  0.9167428550729895  1.0000
  C   C48       1.0  0.614814564995612  0.9335735630010404  0.0832571449270105  1.0000
  C   C49       1.0  0.6899912529004482  0.6720024482134122  0.5719245118991552  1.0000
  C   C50       1.0  0.1899918906061444  0.3279979164854865  0.4280754881008449  1.0000
  C   C51       1.0  0.1899907635193685  0.1720018314917695  0.9280754881008451  1.0000
  C   C52       1.0  0.6899901258136723  0.8279976644627354  0.0719245118991552  1.0000
  S   S1        1.0  0.7117462818350688  0.8998862620916199  0.509614952729379  1.0000
  S   S2        1.0  0.2117469195407651  0.1001141026072716  0.4903843228166736  1.0000
  S   S3        1.0  0.2117469195407651  0.3998856453699773  0.9903843228166738  1.0000
  S   S4        1.0  0.7117462818350688  0.6001147193289142  0.009614952729379003  1.0000
  Br  Br1       1.0  0.3603082273778853  0.0764686180119512  0.26854855652551635  1.0000
  Br  Br2       1.0  0.8603064625854131  0.9235308779425538  0.7314514434744837  1.0000
  Br  Br3       1.0  0.8603064625854131  0.5764692347335938  0.2314514434744837  1.0000
  Br  Br4       1.0  0.3603082273778853  0.4235328674540639  0.7685492809794638  1.0000
  Br  Br5       1.0  0.5698731069218894  0.2019378941587604  0.5812076647227187  1.0000
  Br  Br6       1.0  0.0698726175408098  0.7980616017957445  0.4187923352772813  1.0000
  Br  Br7       1.0  0.0698726175408098  0.7019385108804032  0.9187923352772887  1.0000
  Br  Br8       1.0  0.5698719798351135  0.2980609850741089  0.08120766472271873  1.0000
  N   N1        1.0  0.711042979687349  0.2421129781146263  0.3324801680733174  1.0000
  N   N2        1.0  0.2110379819591728  0.7578856490955062  0.6675191074727422  1.0000
  N   N3        1.0  0.2110379819591728  0.7421135948362617  0.1675191074727422  1.0000
  N   N4        1.0  0.7110418526005731  0.2578876386070164  0.8324801680733174  1.0000
