data_image0
_chemical_formula_structural       Zn2H20C12S4N8
_chemical_formula_sum              "Zn2 H20 C12 S4 N8"
_cell_length_a       7.385408689992745
_cell_length_b       8.049103428216014
_cell_length_c       9.43223260681876
_cell_angle_alpha    91.90152840883657
_cell_angle_beta     112.0410058016698
_cell_angle_gamma    93.30387922227467

_space_group_name_H-M_alt    "P 1"
_space_group_IT_number       1

loop_
  _space_group_symop_operation_xyz
  'x, y, z'

loop_
  _atom_site_type_symbol
  _atom_site_label
  _atom_site_symmetry_multiplicity
  _atom_site_fract_x
  _atom_site_fract_y
  _atom_site_fract_z
  _atom_site_occupancy
  Zn  Zn1       1.0  0.2118469592762721  0.8263350261248872  0.2683855243087265  1.0000
  Zn  Zn2       1.0  0.788139734083792  0.17367482462370268  0.7316009402763227  1.0000
  H   H1        1.0  0.2640579993505269  0.8138563742627978  0.6051970713405054  1.0000
  H   H2        1.0  0.7359574033054201  0.1861461833259667  0.3948004024435931  1.0000
  H   H3        1.0  0.9625311687428563  0.7843703780778168  0.3941608753442978  1.0000
  H   H4        1.0  0.0374814534160421  0.2156321057869235  0.6058421749189762  1.0000
  H   H5        1.0  0.29341961479180867  0.026623868419328303  0.5689755545969176  1.0000
  H   H6        1.0  0.7065913250600528  0.9733761204610046  0.43102587323016905  1.0000
  H   H7        1.0  0.04389206392489339  0.7807927025430245  0.9207275539282946  1.0000
  H   H8        1.0  0.9561091110640018  0.2192121719727495  0.07927447750783748  1.0000
  H   H9        1.0  0.8289218973333161  0.9934734190595335  0.22182165657287098  1.0000
  H   H10       1.0  0.17107498220756404  0.006516545526793001  0.7781701547568358  1.0000
  H   H11       1.0  0.8963043214932183  0.6694954021568049  0.0852438727022288  1.0000
  H   H12       1.0  0.10369470218248719  0.3305007358504142  0.9147572438242478  1.0000
  H   H13       1.0  0.028628805729141494  0.1362477845496315  0.3363076252204564  1.0000
  H   H14       1.0  0.9713664425739096  0.8637409491019027  0.6636805020233182  1.0000
  H   H15       1.0  0.22272410814120744  0.6331704944880912  0.9814750929615668  1.0000
  H   H16       1.0  0.7772702117411041  0.3668218807379161  0.018523505282374154  1.0000
  H   H17       1.0  0.22089855413672407  0.4484315446402647  0.19007159837858006  1.0000
  H   H18       1.0  0.7790901881898404  0.55156325497245  0.8099286957896794  1.0000
  H   H19       1.0  0.03765741750426339  0.4685385414006902  0.26710824617120466  1.0000
  H   H20       1.0  0.9623386796451355  0.5314562938213071  0.7328962414965687  1.0000
  C   C1        1.0  0.5872479832456319  0.6476708199965484  0.39008592121374613  1.0000
  C   C2        1.0  0.41272395519364835  0.35233127901761907  0.6099162604867486  1.0000
  C   C3        1.0  0.3323799733415952  0.11176487859079737  0.10398143257065579  1.0000
  C   C4        1.0  0.6676280673131527  0.8882350803010366  0.8960202380010571  1.0000
  C   C5        1.0  0.18467347057693215  0.924688243667944  0.5629612822983957  1.0000
  C   C6        1.0  0.815333037389216  0.0753117308445113  0.43703677603145513  1.0000
  C   C7        1.0  0.930876528468502  0.029232971471245192  0.3394089262560271  1.0000
  C   C8        1.0  0.06915015759056327  0.9707808182313398  0.6605995453610588  1.0000
  C   C9        1.0  0.06680911153952707  0.47352221458304894  0.1614226705530442  1.0000
  C   C10       1.0  0.9331985111782826  0.52647276683426  0.8385776458954695  1.0000
  C   C11       1.0  0.06911299247386887  0.6543639446075101  0.9596327473084398  1.0000
  C   C12       1.0  0.9308907657053352  0.3456172509762894  0.040372355334447704  1.0000
  S   S1        1.0  0.7728517151949956  0.5439233865081404  0.4043002614691814  1.0000
  S   S2        1.0  0.22711918330184486  0.4560849609036877  0.5956986672098097  1.0000
  S   S3        1.0  0.4202820071111758  0.23746743489648026  0.01230813215143198  1.0000
  S   S4        1.0  0.57974792824281  0.7625314105090835  0.9877028468340041  1.0000
  N   N1        1.0  0.45376580286420415  0.7273311359631194  0.3826027637007527  1.0000
  N   N2        1.0  0.5462066520612509  0.2726771870809798  0.6174008439670118  1.0000
  N   N3        1.0  0.2620906065614648  0.022050538837113692  0.17034324428955464  1.0000
  N   N4        1.0  0.7379080706056056  0.9779618549994494  0.8296509269803777  1.0000
  N   N5        1.0  0.05509267313289709  0.8884354058612159  0.3991839765358662  1.0000
  N   N6        1.0  0.9449150754633421  0.11156209490822279  0.6008132833600682  1.0000
  N   N7        1.0  0.0405395464868192  0.6450949016543818  0.1072494130378487  1.0000
  N   N8        1.0  0.9594583351080315  0.3549049566512536  0.8927525737666215  1.0000
