data_image0
_chemical_formula_structural       Zn8H68C72N8O26
_chemical_formula_sum              "Zn8 H68 C72 N8 O26"
_cell_length_a       18.05809404584155
_cell_length_b       18.168549828285922
_cell_length_c       18.189839597196755
_cell_angle_alpha    60.76679863801064
_cell_angle_beta     60.610525304168455
_cell_angle_gamma    60.710382309437854

_space_group_name_H-M_alt    "P 1"
_space_group_IT_number       1

loop_
  _space_group_symop_operation_xyz
  'x, y, z'

loop_
  _atom_site_type_symbol
  _atom_site_label
  _atom_site_symmetry_multiplicity
  _atom_site_fract_x
  _atom_site_fract_y
  _atom_site_fract_z
  _atom_site_occupancy
  Zn  Zn1       1.0  0.6180101591739273  0.7946024643165331  0.7947601841443088  1.0000
  Zn  Zn2       1.0  0.3819869235826445  0.20540096602854163  0.20523730040147103  1.0000
  Zn  Zn3       1.0  0.794301804294413  0.7936263169767984  0.6178483545908623  1.0000
  Zn  Zn4       1.0  0.20569468559455112  0.20637511588834204  0.38215260322907346  1.0000
  Zn  Zn5       1.0  0.7935965837791626  0.618769647897217  0.7942197190313395  1.0000
  Zn  Zn6       1.0  0.20640012850886078  0.38123111724871  0.20578145797805553  1.0000
  Zn  Zn7       1.0  0.7937221674535165  0.7932065073833814  0.7948372404843694  1.0000
  Zn  Zn8       1.0  0.20627647957080342  0.20679225562236073  0.20516342072223637  1.0000
  H   H1        1.0  0.5435824396138073  0.9277244343860576  0.13407532467399344  1.0000
  H   H2        1.0  0.5940138532474747  0.8590609204565498  0.4680780426296278  1.0000
  H   H3        1.0  0.5979846384669328  0.07309534904047871  0.4747416138318953  1.0000
  H   H4        1.0  0.40201504373168717  0.9269040737750841  0.5252554650345829  1.0000
  H   H5        1.0  0.5973837862478178  0.0316274451876595  0.3427824417421803  1.0000
  H   H6        1.0  0.4026146184459876  0.9683719676836235  0.6572136207159431  1.0000
  H   H7        1.0  0.6574421261596654  0.9852853223970544  0.9565072127155574  1.0000
  H   H8        1.0  0.3425594338856753  0.014716114537854702  0.043489051619751286  1.0000
  H   H9        1.0  0.3938039195708781  0.5407954568828403  0.13525987959360466  1.0000
  H   H10       1.0  0.6061925381361559  0.4592079807644965  0.8647401076948213  1.0000
  H   H11       1.0  0.4038525935724947  0.6565056311616857  0.9577761105827421  1.0000
  H   H12       1.0  0.45641870781533805  0.07227633320506749  0.8659214718139054  1.0000
  H   H13       1.0  0.5961442792421678  0.3434984780611502  0.042223891997970484  1.0000
  H   H14       1.0  0.14735566805458689  0.5205781465980481  0.9246218166212116  1.0000
  H   H15       1.0  0.8526451014317188  0.4794199490988049  0.0753770299956712  1.0000
  H   H16       1.0  0.9789965062102222  0.6575546744657572  0.9636172378859271  1.0000
  H   H17       1.0  0.02100426078465025  0.34244341899938757  0.036381061286071804  1.0000
  H   H18       1.0  0.8986065267497025  0.032782748647825606  0.8280586215042901  1.0000
  H   H19       1.0  0.001604287954627521  0.9434942079746166  0.8281228521814656  1.0000
  H   H20       1.0  0.9969877569803031  0.05338106988271821  0.8012430016640624  1.0000
  H   H21       1.0  0.06757900983539139  0.0138828537602009  0.6613022366089112  1.0000
  H   H22       1.0  0.965559089492494  0.10262329778832681  0.6609530468477232  1.0000
  H   H23       1.0  0.9229936082477721  0.14663916651025494  0.5196478759401656  1.0000
  H   H24       1.0  0.885336542153183  0.9949443022140018  0.7165435359783319  1.0000
  H   H25       1.0  0.9859893379246071  0.9054180332062387  0.7188896851882232  1.0000
  H   H26       1.0  0.9984523779996907  0.056488642292848106  0.1718516191827246  1.0000
  H   H27       1.0  0.10142240526116808  0.9671653442166458  0.1719625273277075  1.0000
  H   H28       1.0  0.00302066237964733  0.9466150382951285  0.1987525124817751  1.0000
  H   H29       1.0  0.03440964765730566  0.8973814322211667  0.33906652881532306  1.0000
  H   H30       1.0  0.9324116622081958  0.9861472427539155  0.3386731847187575  1.0000
  H   H31       1.0  0.014026933983281305  0.0945774356741538  0.2811044823689173  1.0000
  H   H32       1.0  0.11466809490394778  0.005038452777277801  0.28346590492621715  1.0000
  H   H33       1.0  0.17191932668047366  0.8628848332487353  0.577241249145878  1.0000
  H   H34       1.0  0.07700395647172091  0.8533609280776205  0.4803521124057823  1.0000
  H   H35       1.0  0.18271131241745303  0.9636651720520889  0.5293523973452069  1.0000
  H   H36       1.0  0.8280778328971152  0.1371145986904878  0.4227609136873057  1.0000
  H   H37       1.0  0.817286699591598  0.0363335893290824  0.4706485768245371  1.0000
  H   H38       1.0  0.6893569802070801  0.6604472289861577  0.4131529870105553  1.0000
  H   H39       1.0  0.7433692509134174  0.7415968779924283  0.3343522055850628  1.0000
  H   H40       1.0  0.7476482021325451  0.6624643160521376  0.30064837441565834  1.0000
  H   H41       1.0  0.8945511052740684  0.619663501944352  0.31886354382566406  1.0000
  H   H42       1.0  0.8415966544065798  0.5383149580384412  0.39531578750590773  1.0000
  H   H43       1.0  0.7805093574878513  0.6049888315276633  0.5153764488049504  1.0000
  H   H44       1.0  0.8330181307887726  0.6869823742236392  0.4388023144108645  1.0000
  H   H45       1.0  0.9202082594627753  0.4102545916124499  0.5218069242899903  1.0000
  H   H46       1.0  0.2566565628670714  0.25840793127763834  0.6656227800490984  1.0000
  H   H47       1.0  0.31064374387411675  0.33957959631017337  0.5868300976780106  1.0000
  H   H48       1.0  0.2523588109948705  0.3375398013102355  0.6993422411958008  1.0000
  H   H49       1.0  0.15838740719814837  0.4616837854557333  0.6046964514119323  1.0000
  H   H50       1.0  0.10545566898695564  0.3803165653338639  0.6811412209065253  1.0000
  H   H51       1.0  0.1669857344613987  0.3130197257702321  0.5611897416580405  1.0000
  H   H52       1.0  0.21948916828303308  0.39501795730202366  0.48462197261026324  1.0000
  H   H53       1.0  0.5842754206047474  0.1644572577743162  0.868074249920099  1.0000
  H   H54       1.0  0.4737441491409058  0.21694347370073794  0.8931906408406929  1.0000
  H   H55       1.0  0.41572378461381715  0.8355455052618626  0.1319214200359582  1.0000
  H   H56       1.0  0.07979141048536326  0.5897468538389958  0.478193563604009  1.0000
  H   H57       1.0  0.5262552934253079  0.7830586350064905  0.10680853297409248  1.0000
  H   H58       1.0  0.38818083508626683  0.5855758786783485  0.8617788869389501  1.0000
  H   H59       1.0  0.414846095824295  0.4758880056513207  0.8894827285636001  1.0000
  H   H60       1.0  0.6118156176379018  0.41442755450557206  0.13822000545972196  1.0000
  H   H61       1.0  0.5851493192341407  0.5241147654910776  0.11051919873032305  1.0000
  H   H62       1.0  0.8621341937108581  0.5829673656142661  0.1678508278832781  1.0000
  H   H63       1.0  0.9628696781077434  0.5312655932852054  0.180235222813224  1.0000
  H   H64       1.0  0.13786552066969196  0.41703005241909363  0.8321472215147026  1.0000
  H   H65       1.0  0.03712896144227779  0.46873316302541224  0.8197637960587372  1.0000
  H   H66       1.0  0.0406144242585498  0.594004021176012  0.34251365386791127  1.0000
  H   H67       1.0  0.9593846106743271  0.4059974226508487  0.6574871469892258  1.0000
  H   H68       1.0  0.4059845589206218  0.14093849910985765  0.5319196621631264  1.0000
  C   C1        1.0  0.8899466808165216  0.8901332976566607  0.612021980579847  1.0000
  C   C2        1.0  0.5507476695728997  0.5550418273499603  0.9462553533221083  1.0000
  C   C3        1.0  0.45200350161832853  0.5113653685212398  0.9540895154284071  1.0000
  C   C4        1.0  0.5479925087991475  0.48863940233280806  0.04590948603622999  1.0000
  C   C5        1.0  0.9887771854423165  0.5875970408985296  0.9801394511932814  1.0000
  C   C6        1.0  0.011223359153490254  0.41240172028582134  0.019858628789272404  1.0000
  C   C7        1.0  0.08088984867961807  0.5127413694000823  0.9574857919039629  1.0000
  C   C8        1.0  0.9191115533305233  0.4872567256896333  0.04251219430489778  1.0000
  C   C9        1.0  0.05122515950085931  0.44441997084401647  0.05340534235279657  1.0000
  C   C10       1.0  0.9487758002025826  0.5555794619158264  0.9465927529220366  1.0000
  C   C11       1.0  0.9585984629710538  0.5193872720687339  0.0774134819232371  1.0000
  C   C12       1.0  0.11004939894767318  0.10986746809640383  0.3879800568375629  1.0000
  C   C13       1.0  0.04140294153051369  0.4806108252526897  0.9225850517305078  1.0000
  C   C14       1.0  0.9805853288921899  0.9893407856306098  0.588027252275232  1.0000
  C   C15       1.0  0.0194130932416314  0.010658642862630102  0.4119726422970373  1.0000
  C   C16       1.0  0.6087107912662687  0.6118791459316952  0.8909900828818351  1.0000
  C   C17       1.0  0.3912873862522801  0.388122963989801  0.10901081174898763  1.0000
  C   C18       1.0  0.9568279358173726  0.08027529160730043  0.5124200475946595  1.0000
  C   C19       1.0  0.04317049129930681  0.9197241413493631  0.48758094186736395  1.0000
  C   C20       1.0  0.05313079105440011  0.0518228945330819  0.44341049312262726  1.0000
  C   C21       1.0  0.9468676335708536  0.9481765361918734  0.5565899488945194  1.0000
  C   C22       1.0  0.07849793119091689  0.9602392744789584  0.5176424661493895  1.0000
  C   C23       1.0  0.5100020958025554  0.08218581077914423  0.9570483245966129  1.0000
  C   C24       1.0  0.9214998584190682  0.0397601546214261  0.4823582888308948  1.0000
  C   C25       1.0  0.9236396772837026  0.55584581930885  0.47801236519836005  1.0000
  C   C26       1.0  0.07635999266442889  0.4441556261425888  0.5219881226956389  1.0000
  C   C27       1.0  0.9550142940318338  0.4507606440188923  0.5129027612153506  1.0000
  C   C28       1.0  0.04498515351723851  0.5492414691517595  0.48709750748918873  1.0000
  C   C29       1.0  0.05289630807167364  0.44891020170079804  0.44588956638639143  1.0000
  C   C30       1.0  0.9471029517516955  0.5510905766385717  0.554112001105075  1.0000
  C   C31       1.0  0.02217804383103324  0.5527432456560036  0.4127532979154154  1.0000
  C   C32       1.0  0.9778209911018436  0.4472581981708572  0.5872475029417217  1.0000
  C   C33       1.0  0.5539248845290671  0.041310500172819786  0.4851403650927964  1.0000
  C   C34       1.0  0.48999924433515213  0.917816296106686  0.04294826799411315  1.0000
  C   C35       1.0  0.44607330523996314  0.958689587112801  0.5148571205105058  1.0000
  C   C36       1.0  0.44845900114009396  0.0776024207724362  0.5185584282384142  1.0000
  C   C37       1.0  0.5515404561680343  0.9223976675306248  0.4814378839937279  1.0000
  C   C38       1.0  0.4498017521949151  0.053844453357385205  0.4451182109609847  1.0000
  C   C39       1.0  0.5501960249579195  0.9461549645844515  0.5548798067949078  1.0000
  C   C40       1.0  0.6085376616380456  0.8867112452777665  0.6114856833776868  1.0000
  C   C41       1.0  0.3914590406842605  0.11328951094132832  0.38851330385219285  1.0000
  C   C42       1.0  0.5548114544075277  0.017159605191700702  0.41290773575652645  1.0000
  C   C43       1.0  0.4451882277910926  0.9828398176238551  0.5870893431099518  1.0000
  C   C44       1.0  0.8913551092615108  0.6117035399650064  0.8893669259634083  1.0000
  C   C45       1.0  0.4462512236805906  0.586722333885234  0.9769999062768592  1.0000
  C   C46       1.0  0.1086445853942593  0.3882958940091045  0.1106328901274622  1.0000
  C   C47       1.0  0.8901261303212349  0.6093992968761058  0.6105544908222241  1.0000
  C   C48       1.0  0.10987013716867007  0.3906028037082407  0.38944624780825887  1.0000
  C   C49       1.0  0.6123528249018904  0.8961264429912037  0.8843148670136359  1.0000
  C   C50       1.0  0.3876478777291225  0.10387566003834081  0.11568149109535852  1.0000
  C   C51       1.0  0.5872253061932894  0.9920046320752719  0.9762133006203799  1.0000
  C   C52       1.0  0.4127753964377234  0.0079974709542725  0.02378305748861456  1.0000
  C   C53       1.0  0.5248849945042336  0.9594065877818212  0.07393876839784484  1.0000
  C   C54       1.0  0.4751157081267791  0.040595515247723306  0.9260575897111494  1.0000
  C   C55       1.0  0.4447146504414974  0.0481982973556399  0.057093647230416794  1.0000
  C   C56       1.0  0.5537439615044873  0.4132810982812459  0.02300015949297328  1.0000
  C   C57       1.0  0.5552858297904493  0.9518044733931105  0.942902491689118  1.0000
  C   C58       1.0  0.9589455870183127  0.977159080634401  0.6833483018615639  1.0000
  C   C59       1.0  0.9942061696920133  0.030929646808807807  0.6949869330280978  1.0000
  C   C60       1.0  0.9717722339530964  0.0144608997794293  0.7933161534361374  1.0000
  C   C61       1.0  0.041057979601468696  0.022836351291054807  0.3166510300686057  1.0000
  C   C62       1.0  0.005788978328276211  0.9690757856764519  0.30501106732047123  1.0000
  C   C63       1.0  0.02825017356565242  0.9855218917731466  0.20668233472099462  1.0000
  C   C64       1.0  0.839087794277731  0.617591992228462  0.45538699591052983  1.0000
  C   C65       1.0  0.8355149611256604  0.6077821155029853  0.3781923604310651  1.0000
  C   C66       1.0  0.7493909973093122  0.671503872543184  0.35523642149132684  1.0000
  C   C67       1.0  0.4413660497705791  0.5232546333496799  0.074698647138554  1.0000
  C   C68       1.0  0.16091227832087893  0.3824101136399279  0.5446107700513637  1.0000
  C   C69       1.0  0.16448435309585105  0.39221464434513126  0.6218089583438982  1.0000
  C   C70       1.0  0.2506169965942746  0.3285049231202493  0.6447508604965081  1.0000
  C   C71       1.0  0.5586301855373891  0.47674947201686996  0.9253011209604198  1.0000
  C   C72       1.0  0.44924812093694305  0.444963613455009  0.053743976397953516  1.0000
  N   N1        1.0  0.16601482740200885  0.920487822288642  0.5243037980684164  1.0000
  N   N2        1.0  0.833982107285088  0.07951227513807882  0.47569759813043083  1.0000
  N   N3        1.0  0.5235306461194184  0.16558974566385132  0.9173804697797864  1.0000
  N   N4        1.0  0.47647005900302725  0.8344123595974013  0.08261643577408512  1.0000
  N   N5        1.0  0.3952651298185684  0.5260987426418781  0.9122656281696634  1.0000
  N   N6        1.0  0.6047298354588833  0.4739053594755236  0.08773476585558619  1.0000
  N   N7        1.0  0.9184161410666927  0.5280199101112757  0.16347697477916517  1.0000
  N   N8        1.0  0.0815839884214853  0.4719781794975759  0.836521089911102  1.0000
  O   O1        1.0  0.7500980218284068  0.7498118173980615  0.7489575994836459  1.0000
  O   O2        1.0  0.30671433202265763  0.4287408896162789  0.13568974353356117  1.0000
  O   O3        1.0  0.8749717179743043  0.8587166881829591  0.6960520752905879  1.0000
  O   O4        1.0  0.12502584425376276  0.14128340417320837  0.3039473656104832  1.0000
  O   O5        1.0  0.5694888432810359  0.6960466674871597  0.8764716085990185  1.0000
  O   O6        1.0  0.4305073920269392  0.3039574378793901  0.12352815949995491  1.0000
  O   O7        1.0  0.6933747065786093  0.8668362033970568  0.5701492181914389  1.0000
  O   O8        1.0  0.3066234906647196  0.13316389058368833  0.4298499097464941  1.0000
  O   O9        1.0  0.8760000288263255  0.5703804050058422  0.8605305301737616  1.0000
  O   O10       1.0  0.12399962866465587  0.42962102928704843  0.13946722049584537  1.0000
  O   O11       1.0  0.8720315998871367  0.6937365090535507  0.569723408093907  1.0000
  O   O12       1.0  0.2498986904596237  0.2501889477478727  0.2510435775257491  1.0000
  O   O13       1.0  0.12796998258108513  0.30626494796674564  0.43027778324530896  1.0000
  O   O14       1.0  0.6971459800805845  0.8662857886731743  0.8698646201919615  1.0000
  O   O15       1.0  0.30285435208188005  0.1337136491572224  0.1301354303806477  1.0000
  O   O16       1.0  0.8642290812012162  0.5704947792504741  0.6947557176744182  1.0000
  O   O17       1.0  0.1357608533694048  0.42950528691564943  0.3052458364496858  1.0000
  O   O18       1.0  0.5717024821818908  0.8808833541592734  0.8549141912551121  1.0000
  O   O19       1.0  0.42829878611766503  0.1191227555958321  0.14507881793797137  1.0000
  O   O20       1.0  0.5692139542044002  0.8605146210434145  0.6957029156771101  1.0000
  O   O21       1.0  0.4307827456264731  0.13948613294397216  0.3042955241078927  1.0000
  O   O22       1.0  0.8615343855478981  0.6955710945959837  0.8743620009072474  1.0000
  O   O23       1.0  0.1384649014745349  0.3044276744977595  0.1256394422259746  1.0000
  O   O24       1.0  0.8609639803819816  0.8758604401735967  0.5699941770978612  1.0000
  O   O25       1.0  0.13903141972787134  0.12414231757854573  0.4300044655267925  1.0000
  O   O26       1.0  0.6932819553986885  0.5712612288217401  0.864315374655945  1.0000
