data_image0
_chemical_formula_structural       Cd3H8C14S6N10
_chemical_formula_sum              "Cd3 H8 C14 S6 N10"
_cell_length_a       6.750226150976275
_cell_length_b       9.246918527555698
_cell_length_c       10.784926862127156
_cell_angle_alpha    108.53829881321134
_cell_angle_beta     91.25829941363949
_cell_angle_gamma    104.04309099699493

_space_group_name_H-M_alt    "P 1"
_space_group_IT_number       1

loop_
  _space_group_symop_operation_xyz
  'x, y, z'

loop_
  _atom_site_type_symbol
  _atom_site_label
  _atom_site_symmetry_multiplicity
  _atom_site_fract_x
  _atom_site_fract_y
  _atom_site_fract_z
  _atom_site_occupancy
  Cd  Cd1       1.0  0.9999971887825084  0.49999576994390804  0.4999989578491295  1.0000
  Cd  Cd2       1.0  4.270378433088976e-06  0.9999979430202756  0.9999978893454866  1.0000
  Cd  Cd3       1.0  0.5000084613280436  0.5000042647899223  0.9999996711612128  1.0000
  H   H1        1.0  0.2107063776727928  0.5255307324947511  0.7785774784875202  1.0000
  H   H2        1.0  0.7893064229338903  0.47447763682780675  0.22142292695229318  1.0000
  H   H3        1.0  0.4603149391109085  0.15160199132844818  0.7608431559227213  1.0000
  H   H4        1.0  0.53968587706148  0.8484016199608108  0.23916227544245328  1.0000
  H   H5        1.0  0.30907488849636877  0.013681619778523701  0.5239779953322241  1.0000
  H   H6        1.0  0.6909202778548433  0.9863184349729016  0.47603102515540757  1.0000
  H   H7        1.0  0.11683751309848132  0.15943027395422865  0.4213115024538823  1.0000
  H   H8        1.0  0.8831627984749846  0.8405674310503674  0.5786923184588062  1.0000
  C   C1        1.0  0.257736334304177  0.8350629962884573  0.7496915396064167  1.0000
  C   C2        1.0  0.7422622975087521  0.16492523446127197  0.25029577709193523  1.0000
  C   C3        1.0  0.23974850704011175  0.3632038404538919  0.22593151342699974  1.0000
  C   C4        1.0  0.7602353940561245  0.6367890607960336  0.7740577854134756  1.0000
  C   C5        1.0  0.19377451918754948  0.7363681726992015  0.10033501476081609  1.0000
  C   C6        1.0  0.8062350942951254  0.2636307447658553  0.8996674151925533  1.0000
  C   C7        1.0  0.2353754041637188  0.41216936250936  0.7205734080625916  1.0000
  C   C8        1.0  0.7646250191023611  0.5878330608504927  0.27942798629779025  1.0000
  C   C9        1.0  0.3713826141141183  0.20444058821649247  0.710666838085686  1.0000
  C   C10       1.0  0.6286159242972077  0.795560651489403  0.2893369894254931  1.0000
  C   C11       1.0  0.2891894973495965  0.12909591414650384  0.5798638303263104  1.0000
  C   C12       1.0  0.710808930554883  0.8709006058101426  0.4201414961546845  1.0000
  C   C13       1.0  0.18200764167918493  0.2079223704943304  0.5241300359203082  1.0000
  C   C14       1.0  0.8179930651721322  0.7920765196516869  0.4758759668322057  1.0000
  S   S1        1.0  0.33463524432259834  0.7524123128527551  0.6084470818963866  1.0000
  S   S2        1.0  0.6653642838098007  0.24758301350503592  0.391546809841735  1.0000
  S   S3        1.0  0.3351556609715233  0.26128259645245333  0.09955331706635923  1.0000
  S   S4        1.0  0.6648399243729699  0.7387186155605221  0.900439333611402  1.0000
  S   S5        1.0  0.13050904185702458  0.8939922888311503  0.18897916439552637  1.0000
  S   S6        1.0  0.8694966300235266  0.10601251289509152  0.8110210969149989  1.0000
  N   N1        1.0  0.20551034663226642  0.8968253262430822  0.8527749012880932  1.0000
  N   N2        1.0  0.7944804669195024  0.10316169752868384  0.14721382929136692  1.0000
  N   N3        1.0  0.1751486105328794  0.4367509956786649  0.3190250678759767  1.0000
  N   N4        1.0  0.8248289523929273  0.5632407082577802  0.6809684505148681  1.0000
  N   N5        1.0  0.24141705102695718  0.6214917290651346  0.038423095266047404  1.0000
  N   N6        1.0  0.7585897263290278  0.3785296217076068  0.961590018969453  1.0000
  N   N7        1.0  0.15481722512630824  0.34887247837480845  0.5948120038524891  1.0000
  N   N8        1.0  0.8451846829735887  0.6511299490735498  0.405188485847205  1.0000
  N   N9        1.0  0.3452964088907962  0.34632347001019087  0.7803958664882061  1.0000
  N   N10       1.0  0.6547084617621053  0.6536789739791475  0.21960837938502212  1.0000
