data_image0
_chemical_formula_structural       Ag2P2H38C38Br2N2
_chemical_formula_sum              "Ag2 P2 H38 C38 Br2 N2"
_cell_length_a       9.179843901918566
_cell_length_b       9.795017886455554
_cell_length_c       11.364519642563366
_cell_angle_alpha    76.70344352972087
_cell_angle_beta     67.55240087189576
_cell_angle_gamma    72.87162171388181

_space_group_name_H-M_alt    "P 1"
_space_group_IT_number       1

loop_
  _space_group_symop_operation_xyz
  'x, y, z'

loop_
  _atom_site_type_symbol
  _atom_site_label
  _atom_site_symmetry_multiplicity
  _atom_site_fract_x
  _atom_site_fract_y
  _atom_site_fract_z
  _atom_site_occupancy
  Ag  Ag1       1.0  0.6650977360368909  0.8462446399351294  0.5021445674368082  1.0000
  Ag  Ag2       1.0  0.3349154130363273  0.1537517051235184  0.4978532672905801  1.0000
  P   P1        1.0  0.7597934760367263  0.6585972121490189  0.3731944891114765  1.0000
  P   P2        1.0  0.24020940090796467  0.3414023619133459  0.6268041359355722  1.0000
  H   H1        1.0  0.9551677657300033  0.8737412271564865  0.5815990631876105  1.0000
  H   H2        1.0  0.044836848162717  0.12625619200041166  0.4183994489479304  1.0000
  H   H3        1.0  0.029597860107244772  0.8484237993601769  0.7749717182966906  1.0000
  H   H4        1.0  0.9703985662199133  0.1515779260686827  0.2250284837394432  1.0000
  H   H5        1.0  0.8185536042307573  0.8114710491298  0.9948423174806464  1.0000
  H   H6        1.0  0.18144608507672894  0.18853175445205747  0.005158418117019912  1.0000
  H   H7        1.0  0.5399479145045517  0.8096483461408112  0.006174168776333072  1.0000
  H   H8        1.0  0.4600491352060913  0.19035553476483358  0.9938262932193498  1.0000
  H   H9        1.0  0.4854605051864309  0.8409406718515697  0.7996200498290308  1.0000
  H   H10       1.0  0.5145386220936243  0.1590642887186533  0.2003795535739315  1.0000
  H   H11       1.0  0.7147293866093632  0.4390611383035507  0.5097015914390468  1.0000
  H   H12       1.0  0.28527342548250084  0.5609341244918298  0.49029702675633063  1.0000
  H   H13       1.0  0.8971271416726618  0.4022005947069117  0.37911481773903705  1.0000
  H   H14       1.0  0.10287422322680578  0.5977957415043421  0.62088667718227  1.0000
  H   H15       1.0  0.8440367691672179  0.5429658205298225  0.6124453606039211  1.0000
  H   H16       1.0  0.15596049845269275  0.45703267001557185  0.3875561001808521  1.0000
  H   H17       1.0  0.9475720759930792  0.36440171007085803  0.5855229136831924  1.0000
  H   H18       1.0  0.05242844761362873  0.6355978610238536  0.41447732248946784  1.0000
  H   H19       1.0  0.9072198401595202  0.9011608253905832  0.2374895887907584  1.0000
  H   H20       1.0  0.0927830806573837  0.0988430671277385  0.7625037685870026  1.0000
  H   H21       1.0  0.12572218007931465  0.9384646144172636  0.027547963068741393  1.0000
  H   H22       1.0  0.874277753525824  0.06153712325112792  0.9724441082145959  1.0000
  H   H23       1.0  0.26495431621498977  0.7409268383690985  0.8915263041755427  1.0000
  H   H24       1.0  0.7350441088416914  0.2590716602500223  0.10846951606887965  1.0000
  H   H25       1.0  0.19539317449862642  0.5011328653448005  0.9703040513310841  1.0000
  H   H26       1.0  0.8046072912487998  0.49886239208660754  0.029697936163550865  1.0000
  H   H27       1.0  0.9788100307214265  0.4630605413621253  0.17740329351161688  1.0000
  H   H28       1.0  0.02119488691400307  0.5369357915125335  0.8226014987856517  1.0000
  H   H29       1.0  0.6833336020144783  0.4089227230108108  0.31220724379566894  1.0000
  H   H30       1.0  0.31666691809546405  0.591076849282068  0.6877921132901648  1.0000
  H   H31       1.0  0.47966547728366027  0.40030007118505745  0.22556595886868547  1.0000
  H   H32       1.0  0.5203330371032207  0.5997027303138935  0.7744360218352001  1.0000
  H   H33       1.0  0.28510295861277496  0.6244077911020939  0.1773039408790424  1.0000
  H   H34       1.0  0.7148911318602345  0.3755939253683067  0.8227022677168351  1.0000
  H   H35       1.0  0.2906671412457272  0.8586422003068959  0.22395750605852538  1.0000
  H   H36       1.0  0.7093304231233616  0.14135520635258558  0.7760484767143297  1.0000
  H   H37       1.0  0.4950872518513166  0.8687951358926109  0.31409444336035375  1.0000
  H   H38       1.0  0.5049147329348714  0.1312033569935807  0.6859064324336828  1.0000
  C   C1        1.0  0.8661846682667188  0.8590965404520361  0.6775086709886295  1.0000
  C   C2        1.0  0.13380733064980171  0.14090410114644672  0.3224948798526626  1.0000
  C   C3        1.0  0.9070148473350769  0.8447401829531529  0.7867512041384189  1.0000
  C   C4        1.0  0.09298338079293694  0.15526369883723132  0.21324889183787124  1.0000
  C   C5        1.0  0.7898700099741446  0.8253542333357088  0.9074819249711867  1.0000
  C   C6        1.0  0.21012532027229716  0.1746517964845822  0.09252304537014314  1.0000
  C   C7        1.0  0.6353973066650622  0.8238687448226046  0.9140948196714478  1.0000
  C   C8        1.0  0.3645962147869851  0.1761351310324955  0.08590849855606562  1.0000
  C   C9        1.0  0.6047013053029743  0.8396349245739287  0.8001407031872247  1.0000
  C   C10       1.0  0.3952998451839846  0.1603668007994088  0.19986067203181787  1.0000
  C   C11       1.0  0.8260656136828427  0.47626928806902674  0.45116846102772723  1.0000
  C   C12       1.0  0.17393546845452335  0.5237281272354861  0.5488320282528107  1.0000
  C   C13       1.0  0.9213953892048674  0.47497283841678956  0.5363160764232691  1.0000
  C   C14       1.0  0.07860159914971378  0.5250267300237041  0.4636852578075691  1.0000
  C   C15       1.0  0.9275044651080292  0.6801555445041104  0.22149276728983844  1.0000
  C   C16       1.0  0.07249632377693864  0.3198429534881556  0.7785040790894584  1.0000
  C   C17       1.0  0.9707524288015462  0.8136369870776291  0.17843482041926248  1.0000
  C   C18       1.0  0.029244331153456888  0.18636797531760146  0.8215628777619983  1.0000
  C   C19       1.0  0.09278589859687962  0.8345303171776806  0.06046781974090006  1.0000
  C   C20       1.0  0.9072149306635351  0.16547250046870937  0.9395228798822758  1.0000
  C   C21       1.0  0.17253673958592228  0.7230631182874208  0.9847419827973669  1.0000
  C   C22       1.0  0.8274616959610697  0.27693537673720675  0.01525647470754166  1.0000
  C   C23       1.0  0.13188680084931553  0.5891268509418524  0.028231755418957515  1.0000
  C   C24       1.0  0.8681174829123324  0.4108673300505075  0.9717701396582753  1.0000
  C   C25       1.0  0.009869235107636607  0.5679040027561583  0.14564703124085557  1.0000
  C   C26       1.0  0.9901310740865622  0.43210095750064437  0.8543530852295408  1.0000
  C   C27       1.0  0.6071752305765513  0.641297946249189  0.31474781645785316  1.0000
  C   C28       1.0  0.39282763937460163  0.3587016302094953  0.6852490504155426  1.0000
  C   C29       1.0  0.6008947764217181  0.509235961779453  0.2908410798712141  1.0000
  C   C30       1.0  0.3991083762915294  0.49076253558597216  0.7091567926429506  1.0000
  C   C31       1.0  0.48501674245141396  0.5039159886132368  0.2416470433379772  1.0000
  C   C32       1.0  0.5149846838041084  0.4960846600631612  0.7583535793481747  1.0000
  C   C33       1.0  0.3750466233158674  0.6293837332030705  0.21569357918075138  1.0000
  C   C34       1.0  0.6249509340596829  0.3706136758527379  0.7843106454184509  1.0000
  C   C35       1.0  0.37863413163965737  0.7608190130783896  0.24168753721620115  1.0000
  C   C36       1.0  0.6213659934863783  0.23917300978297362  0.7583151959596535  1.0000
  C   C37       1.0  0.4939056939949252  0.7668657196842545  0.2913158882077625  1.0000
  C   C38       1.0  0.5060939339565067  0.23313277143245875  0.7086857196250592  1.0000
  Br  Br1       1.0  0.6733292978116481  0.11976732749403848  0.3781861183267595  1.0000
  Br  Br2       1.0  0.3266824864058222  0.8802343962566541  0.6218189954123687  1.0000
  N   N1        1.0  0.7180209202605639  0.8554025209749766  0.6833302120969692  1.0000
  N   N2        1.0  0.28197579582222687  0.1445981229642967  0.3166727537535792  1.0000
