data_image0
_chemical_formula_structural       Co4H16C48N4O12F16
_chemical_formula_sum              "Co4 H16 C48 N4 O12 F16"
_cell_length_a       6.405484205314228
_cell_length_b       8.995638472438499
_cell_length_c       25.974656819527958
_cell_angle_alpha    90.00085305168957
_cell_angle_beta     89.79546164456572
_cell_angle_gamma    90.00069153458618

_space_group_name_H-M_alt    "P 1"
_space_group_IT_number       1

loop_
  _space_group_symop_operation_xyz
  'x, y, z'

loop_
  _atom_site_type_symbol
  _atom_site_label
  _atom_site_symmetry_multiplicity
  _atom_site_fract_x
  _atom_site_fract_y
  _atom_site_fract_z
  _atom_site_occupancy
  Co  Co1       1.0  0.006566126780562299  0.0088530938780522  0.7155791175159224  1.0000
  Co  Co2       1.0  0.49345334353561293  0.0088642747999472  0.7844137484195386  1.0000
  Co  Co3       1.0  0.9934439973783569  0.9911403610157803  0.2844323794814372  1.0000
  Co  Co4       1.0  0.5065554100800185  0.991142519304567  0.2155707998429577  1.0000
  H   H1        1.0  0.7470359566706505  0.8591274043381104  0.633867914067018  1.0000
  H   H2        1.0  0.7275684964453005  0.857369986044098  0.5390841370649255  1.0000
  H   H3        1.0  0.23276016226430576  0.1319580298292848  0.8674639967683149  1.0000
  H   H4        1.0  0.2221279589888212  0.13842538680318478  0.9620904083441174  1.0000
  H   H5        1.0  0.7529250720156069  0.8590690790978781  0.8661435625981255  1.0000
  H   H6        1.0  0.7723815608219128  0.8572970091639858  0.9609288754633952  1.0000
  H   H7        1.0  0.26724268362686837  0.1320008936276764  0.6325502971483559  1.0000
  H   H8        1.0  0.27786408269529517  0.1384686940456774  0.5379231536017812  1.0000
  H   H9        1.0  0.25296310927936355  0.14093274990135998  0.3661620676617545  1.0000
  H   H10       1.0  0.27245552916097887  0.1426890567015633  0.4609485283563828  1.0000
  H   H11       1.0  0.7672266503430122  0.8680198615513034  0.13253249603187814  1.0000
  H   H12       1.0  0.7778182740080339  0.8615436111864411  0.0379045627477268  1.0000
  H   H13       1.0  0.24700086296061124  0.1408899139720177  0.1338518026027131  1.0000
  H   H14       1.0  0.22750377780742068  0.1426086245714728  0.0390672778701031  1.0000
  H   H15       1.0  0.7328094236289145  0.8680192415421004  0.3674850504623207  1.0000
  H   H16       1.0  0.7221786575518506  0.8615525527372226  0.46211219823117483  1.0000
  C   C1        1.0  0.7553442214786157  0.49310132726395745  0.7957520477553928  1.0000
  C   C2        1.0  0.7616199997093673  0.3385709094689132  0.79578693895089  1.0000
  C   C3        1.0  0.8593713069015152  0.9209161788093351  0.6107345506682762  1.0000
  C   C4        1.0  0.85179580108651  0.9204136431233249  0.5573924213965142  1.0000
  C   C5        1.0  0.25919090423538893  0.5133405413281904  0.7040585532717286  1.0000
  C   C6        1.0  0.26681209117480614  0.6673163020438934  0.704097093851118  1.0000
  C   C7        1.0  0.3476258211274441  0.0710038711027536  0.8899348557063648  1.0000
  C   C8        1.0  0.34469152322987634  0.0744300047653397  0.9432867315733588  1.0000
  C   C9        1.0  0.7446882393578916  0.49310709100188893  0.704245971359491  1.0000
  C   C10       1.0  0.7384393617976314  0.338569952357922  0.7042002663238661  1.0000
  C   C11       1.0  0.640592418241219  0.920867974756163  0.8892768564703317  1.0000
  C   C12       1.0  0.6481647816010253  0.9203633557148692  0.9426205245418444  1.0000
  C   C13       1.0  0.24085187389263035  0.5133613512695235  0.7959353476075961  1.0000
  C   C14       1.0  0.2331899296280397  0.6673359382333643  0.7958787499048583  1.0000
  C   C15       1.0  0.15237437365691162  0.07104930832999659  0.6100752771225757  1.0000
  C   C16       1.0  0.15529155048269416  0.0744631560528788  0.5567249664595053  1.0000
  C   C17       1.0  0.24467225073537693  0.5068876807395098  0.2042448167041329  1.0000
  C   C18       1.0  0.23840121866942346  0.6614247682609431  0.2042010685893914  1.0000
  C   C19       1.0  0.1406324723007444  0.0791228540103504  0.3892911939796804  1.0000
  C   C20       1.0  0.14822044021854447  0.07962094322900268  0.44263716753874865  1.0000
  C   C21       1.0  0.7408333602914895  0.4866562482962136  0.2959402326538054  1.0000
  C   C22       1.0  0.733199795605273  0.33268382214064457  0.2958859130179903  1.0000
  C   C23       1.0  0.6523438457352313  0.9289640152790068  0.11005779487927471  1.0000
  C   C24       1.0  0.6552516037155625  0.925534546562908  0.0567059309588345  1.0000
  C   C25       1.0  0.25532978333350803  0.5069030383877334  0.2957524324206702  1.0000
  C   C26       1.0  0.2615802791639154  0.6614346186142938  0.2957900518971641  1.0000
  C   C27       1.0  0.35934445035642426  0.0790899066901289  0.11071773382006  1.0000
  C   C28       1.0  0.35174554961749743  0.0795711809726214  0.0573736926514457  1.0000
  C   C29       1.0  0.7591880324826121  0.4866587829712189  0.20405919642819006  1.0000
  C   C30       1.0  0.7668344630227822  0.332684195647296  0.2041019414347574  1.0000
  C   C31       1.0  0.8476762268690406  0.9289719383174387  0.38995237134496824  1.0000
  C   C32       1.0  0.8447356187970599  0.9255480856957942  0.4433046174933537  1.0000
  C   C33       1.0  0.0017189224375683987  0.9987254089074967  0.5284511480564262  1.0000
  C   C34       1.0  0.49822960239062997  0.9986691173932768  0.9715610672099685  1.0000
  C   C35       1.0  0.9982848376327664  0.0013047307716434003  0.47157729151600597  1.0000
  C   C36       1.0  0.5016791622762325  0.0012720892036882  0.028433920688549105  1.0000
  C   C37       1.0  0.7500216614919708  0.7435528022989074  0.7499977239008119  1.0000
  C   C38       1.0  0.7500310342315545  0.576195031770382  0.7500003707734351  1.0000
  C   C39       1.0  0.7500468690368932  0.2553706667510127  0.7499937666961004  1.0000
  C   C40       1.0  0.2500089923728623  0.2662928850073811  0.7499942055138931  1.0000
  C   C41       1.0  0.24999329206833923  0.4311394387224041  0.7500000248640218  1.0000
  C   C42       1.0  0.24998070919681933  0.7494748193140168  0.7499850615896264  1.0000
  C   C43       1.0  0.25002446750533375  0.25643620583741716  0.24999989718207163  1.0000
  C   C44       1.0  0.2500322323764833  0.42380731633917884  0.2500022475099187  1.0000
  C   C45       1.0  0.24999620301804973  0.7446272343724729  0.24999461599696102  1.0000
  C   C46       1.0  0.7499902963420056  0.7337239142078077  0.2500042067222097  1.0000
  C   C47       1.0  0.7499825544634218  0.5688617973780695  0.2500018628130221  1.0000
  C   C48       1.0  0.7499953007058195  0.2505353094869561  0.2499937265625363  1.0000
  N   N1        1.0  0.006817476327768197  0.9955206660284758  0.6371341786104452  1.0000
  N   N2        1.0  0.4931685070674802  0.9954907669313043  0.8628710735842945  1.0000
  N   N3        1.0  0.9932082053846469  0.004503915287905602  0.3628850112833462  1.0000
  N   N4        1.0  0.5067949397214447  0.004489347499415401  0.1371181149134415  1.0000
  O   O1        1.0  0.8488982063624135  0.8078947022716461  0.713838091382236  1.0000
  O   O2        1.0  0.33901638970136355  0.2003109539698684  0.7873527609125901  1.0000
  O   O3        1.0  0.6511401357349269  0.8079121614056461  0.7861457537171149  1.0000
  O   O4        1.0  0.16096137856100506  0.2003453253504972  0.7126322502468341  1.0000
  O   O5        1.0  0.15116827210914607  0.19207651938085488  0.2861518206638038  1.0000
  O   O6        1.0  0.6609923256707971  0.7996802771532217  0.21263717720454173  1.0000
  O   O7        1.0  0.3488811290212438  0.19209574433122606  0.2138357089826144  1.0000
  O   O8        1.0  0.8389567024860367  0.7997126046733455  0.2873700485875972  1.0000
  O   O9        1.0  0.7500314453924304  0.10553360906869359  0.7499933897033912  1.0000
  O   O10       1.0  0.25000548866434963  0.8980901738670963  0.7499854312374624  1.0000
  O   O11       1.0  0.24997103082498734  0.894466515211974  0.24999578126453062  1.0000
  O   O12       1.0  0.7500095340627838  0.10190995028816728  0.2499956492628641  1.0000
  F   F1        1.0  0.7660175293869783  0.5621358235801068  0.8420522375084047  1.0000
  F   F2        1.0  0.777236062902169  0.2649462719233567  0.8412240812467999  1.0000
  F   F3        1.0  0.2740458790349861  0.44367362095721313  0.6579620725969876  1.0000
  F   F4        1.0  0.2901950849675145  0.7409744483092948  0.6589376725080172  1.0000
  F   F5        1.0  0.7339303407119501  0.5621595132217009  0.6579450185693005  1.0000
  F   F6        1.0  0.7228000739194085  0.26496101615646944  0.6587654521590522  1.0000
  F   F7        1.0  0.22605961411349537  0.4437218731775019  0.8420337530225198  1.0000
  F   F8        1.0  0.20978486315229358  0.7410258655450048  0.8410393287358956  1.0000
  F   F9        1.0  0.23392556228096584  0.4378398443543999  0.15794542995421074  1.0000
  F   F10       1.0  0.22271486202325264  0.7350505173055311  0.1587697328290432  1.0000
  F   F11       1.0  0.7260064889846232  0.556292042573716  0.34203631559812914  1.0000
  F   F12       1.0  0.7098105758272196  0.2589867680485156  0.3410426421272916  1.0000
  F   F13       1.0  0.2660268021056567  0.43788396540765717  0.3420526427376275  1.0000
  F   F14       1.0  0.27719303557461217  0.7350713459326315  0.3412237231107795  1.0000
  F   F15       1.0  0.774028672359762  0.5563160477000578  0.15796307921308284  1.0000
  F   F16       1.0  0.7902472973281929  0.25900316168115  0.15894674900471983  1.0000
