data_image0
_chemical_formula_structural       Zn2H14C12N14
_chemical_formula_sum              "Zn2 H14 C12 N14"
_cell_length_a       6.055230802189941
_cell_length_b       7.707194888413425
_cell_length_c       10.092896452193028
_cell_angle_alpha    92.64203101018366
_cell_angle_beta     101.55811452036772
_cell_angle_gamma    94.36086595365661

_space_group_name_H-M_alt    "P 1"
_space_group_IT_number       1

loop_
  _space_group_symop_operation_xyz
  'x, y, z'

loop_
  _atom_site_type_symbol
  _atom_site_label
  _atom_site_symmetry_multiplicity
  _atom_site_fract_x
  _atom_site_fract_y
  _atom_site_fract_z
  _atom_site_occupancy
  Zn  Zn1       1.0  0.23433538761628367  0.05442254946118648  0.4492920760772847  1.0000
  Zn  Zn2       1.0  0.7656632082412285  0.9455695812490815  0.5507074813380513  1.0000
  H   H1        1.0  0.35911378992766163  0.4269644154660383  0.054068874588679684  1.0000
  H   H2        1.0  0.6408881985351939  0.5730420473499647  0.9459375451648807  1.0000
  H   H3        1.0  0.9808921539238183  0.3284462295464863  0.9087972086114033  1.0000
  H   H4        1.0  0.019121407722664713  0.6715445788336539  0.09119712594873866  1.0000
  H   H5        1.0  0.7142676089162163  0.12477418799242199  0.0031923022662994007  1.0000
  H   H6        1.0  0.2857473138119317  0.8752140132749916  0.9967991256990911  1.0000
  H   H7        1.0  0.8494340725699985  0.0177240941959695  0.2332365446518238  1.0000
  H   H8        1.0  0.15056493376570754  0.9822719549865223  0.7667572579494786  1.0000
  H   H9        1.0  0.6350676607172474  0.41506616270417135  0.2604614358346636  1.0000
  H   H10       1.0  0.3649230061902954  0.584944228829819  0.7395467665407123  1.0000
  H   H11       1.0  0.6078996999059995  0.23523024489465166  0.3628069497780969  1.0000
  H   H12       1.0  0.39209249379896244  0.7647788410179784  0.6372003941838071  1.0000
  H   H13       1.0  0.4848401086750371  0.43050922067313  0.39402561763748156  1.0000
  H   H14       1.0  0.5151485559550649  0.5694985685085852  0.6059802734469952  1.0000
  C   C1        1.0  0.30335150905136027  0.2772978239541997  0.22040777458067845  1.0000
  C   C2        1.0  0.6966438822969394  0.7227099557066123  0.7795969258960934  1.0000
  C   C3        1.0  0.24121740679179024  0.33618067390283796  0.09019817466251816  1.0000
  C   C4        1.0  0.758784106191058  0.6638218809395295  0.9098050753866783  1.0000
  C   C5        1.0  0.029893231434122897  0.28200159539583314  0.010121024448643798  1.0000
  C   C6        1.0  0.9701177448750968  0.7179957333671676  0.9898772050296567  1.0000
  C   C7        1.0  0.8820890141832507  0.16876039836035514  0.0618072523526436  1.0000
  C   C8        1.0  0.11791796479352706  0.8312317245315836  0.9381873461570148  1.0000
  C   C9        1.0  0.9551183125486844  0.11079997806596958  0.18994240837507445  1.0000
  C   C10       1.0  0.04488085228035742  0.8891973737744081  0.8100524507943515  1.0000
  C   C11       1.0  0.5208942487343505  0.3422799289010428  0.313544462602806  1.0000
  C   C12       1.0  0.4790947112151541  0.657730469095952  0.68646056677845  1.0000
  N   N1        1.0  0.49904183568067845  0.11324513276360187  0.6055798339225972  1.0000
  N   N2        1.0  0.5009561554497282  0.8867561241813319  0.39442295486232826  1.0000
  N   N3        1.0  0.4840826896141549  0.18213464896129486  0.7132008309864942  1.0000
  N   N4        1.0  0.5159172821264235  0.8178692138354503  0.2868012942498622  1.0000
  N   N5        1.0  0.4712129074611653  0.24733029639781978  0.8172472315971928  1.0000
  N   N6        1.0  0.5287908670063998  0.7526774754446703  0.18275250997390194  1.0000
  N   N7        1.0  0.014875455923252864  0.8388757684074049  0.449677915690735  1.0000
  N   N8        1.0  0.985124371412283  0.16111244786620912  0.5503216450143497  1.0000
  N   N9        1.0  0.037365900887380094  0.6953142919130569  0.40256075427042487  1.0000
  N   N10       1.0  0.9626299366946824  0.304683058855204  0.5974396582686339  1.0000
  N   N11       1.0  0.05999475969051097  0.5583937519911043  0.3572942839457553  1.0000
  N   N12       1.0  0.9399996803412234  0.4415918701902157  0.6427005859328145  1.0000
  N   N13       1.0  0.16056841500564895  0.16235929653796427  0.26716179625935865  1.0000
  N   N14       1.0  0.8394297129508246  0.8376432665643846  0.7328390742542223  1.0000
