data_image0
_chemical_formula_structural       Mg4H24C8O24
_chemical_formula_sum              "Mg4 H24 C8 O24"
_cell_length_a       7.061864886019361
_cell_length_b       8.610184118247481
_cell_length_c       9.423429456600765
_cell_angle_alpha    98.35837173169611
_cell_angle_beta     90.00006530138025
_cell_angle_gamma    90.00024971819039

_space_group_name_H-M_alt    "P 1"
_space_group_IT_number       1

loop_
  _space_group_symop_operation_xyz
  'x, y, z'

loop_
  _atom_site_type_symbol
  _atom_site_label
  _atom_site_symmetry_multiplicity
  _atom_site_fract_x
  _atom_site_fract_y
  _atom_site_fract_z
  _atom_site_occupancy
  Mg  Mg1       1.0  0.9999991383275884  0.9999988521221964  1.320661830590194e-06  1.0000
  Mg  Mg2       1.0  0.5000014685243244  8.010394694001098e-07  0.5000009430829877  1.0000
  Mg  Mg3       1.0  0.49999956916823857  0.5000011856327191  3.600532636236402e-07  1.0000
  Mg  Mg4       1.0  0.999998205573668  0.5000008052821769  0.4999979649375845  1.0000
  H   H1        1.0  0.6056304675345031  0.794836567117116  0.993220433831425  1.0000
  H   H2        1.0  0.105635936251474  0.20516247927051987  0.5067805707428406  1.0000
  H   H3        1.0  0.3943708836631572  0.2051619937470051  0.006779992541780207  1.0000
  H   H4        1.0  0.8943668310124765  0.7948396032405894  0.49322031659057325  1.0000
  H   H5        1.0  0.38521691236228867  0.766250049008342  0.9562177723647737  1.0000
  H   H6        1.0  0.8852204843341198  0.23375241604993147  0.5437902762160789  1.0000
  H   H7        1.0  0.6147816067402302  0.2337543862597684  0.043785545301176405  1.0000
  H   H8        1.0  0.1147822829306833  0.7662496689622529  0.45621167263190193  1.0000
  H   H9        1.0  0.0344103451387809  0.3322914636430312  0.8815779068641375  1.0000
  H   H10       1.0  0.5344092664439087  0.6677096515161338  0.6184190653099435  1.0000
  H   H11       1.0  0.9655895900006328  0.6677070922162684  0.1184203964789958  1.0000
  H   H12       1.0  0.4655878365757573  0.3322877204520863  0.381574838319942  1.0000
  H   H13       1.0  0.713153812548768  0.0804307125916495  0.7739430119947741  1.0000
  H   H14       1.0  0.2131450259041827  0.9195499927609774  0.7260705367016982  1.0000
  H   H15       1.0  0.2868503707879738  0.9195772393293211  0.2260586436050289  1.0000
  H   H16       1.0  0.7868563252586043  0.0804356579084029  0.2739292610020598  1.0000
  H   H17       1.0  0.3460732953941772  0.46718100613086483  0.7231662229026198  1.0000
  H   H18       1.0  0.8460774151356176  0.5328212785820695  0.7768279745211828  1.0000
  H   H19       1.0  0.653929471871322  0.5328222452595385  0.2768326950547433  1.0000
  H   H20       1.0  0.1539239360618865  0.46717844615919557  0.2231683594468308  1.0000
  H   H21       1.0  0.3986666364088051  0.2991415270605984  0.7635889898637132  1.0000
  H   H22       1.0  0.8986800828122837  0.7008562657738793  0.736406785135344  1.0000
  H   H23       1.0  0.6013304666322057  0.700861729321261  0.2364120511190677  1.0000
  H   H24       1.0  0.10132126838692561  0.2991434639695285  0.2635916718618105  1.0000
  C   C1        1.0  0.7804528130264644  0.970167712669337  0.7242524180211305  1.0000
  C   C2        1.0  0.2804719373107787  0.029816688511836296  0.7757277116747758  1.0000
  C   C3        1.0  0.2195442900277058  0.029839075361131506  0.2757533299792101  1.0000
  C   C4        1.0  0.7195209175029901  0.9701654404971904  0.22427162506411946  1.0000
  C   C5        1.0  0.8927162331084305  0.32878084094762977  0.9309298082359447  1.0000
  C   C6        1.0  0.39271861846791734  0.6712263079393992  0.5690618805838383  1.0000
  C   C7        1.0  0.10728370203029408  0.6712165485334579  0.0690715259978063  1.0000
  C   C8        1.0  0.6072799006093065  0.3287699026554307  0.43093717696675066  1.0000
  O   O1        1.0  0.8964687935149059  0.9041456092065588  0.7989116941592229  1.0000
  O   O2        1.0  0.396442836554101  0.0958275787664391  0.7011042045297273  1.0000
  O   O3        1.0  0.1035198131798083  0.0958529691410206  0.2010961628076018  1.0000
  O   O4        1.0  0.6035514343428829  0.9041651076749772  0.2988933305442174  1.0000
  O   O5        1.0  0.7354361325214142  0.9173839502809429  0.5957726976705402  1.0000
  O   O6        1.0  0.23542883760278946  0.08261212219576919  0.9042524314461672  1.0000
  O   O7        1.0  0.2645694668710163  0.08262399914163153  0.4042278964156267  1.0000
  O   O8        1.0  0.7645710975125083  0.9173758837370442  0.09575085810656248  1.0000
  O   O9        1.0  0.7795920103840787  0.44025010164004647  0.9181438222388962  1.0000
  O   O10       1.0  0.2795867422874281  0.5597507605971261  0.5818511956272943  1.0000
  O   O11       1.0  0.22040792475943496  0.5597496306017717  0.08185569627189443  1.0000
  O   O12       1.0  0.720407528630588  0.44025013801220325  0.4181452919891555  1.0000
  O   O13       1.0  0.8534699671921472  0.21226749205830936  0.9955089168921916  1.0000
  O   O14       1.0  0.35347145395770235  0.7877324778236954  0.504487105978356  1.0000
  O   O15       1.0  0.1465328000776154  0.787735771837468  0.004495308638027517  1.0000
  O   O16       1.0  0.6465242330184042  0.2122695896675992  0.4955074122629739  1.0000
  O   O17       1.0  0.5148171069347853  0.7223352761647703  0.9364758050090884  1.0000
  O   O18       1.0  0.014821636090452702  0.27767164191826055  0.5635250942156915  1.0000
  O   O19       1.0  0.48517999610537993  0.2776679777160068  0.06352417445911841  1.0000
  O   O20       1.0  0.9851825472332932  0.7223316144769639  0.43647594677175044  1.0000
  O   O21       1.0  0.38561375798032327  0.4113834752749739  0.8037353890953796  1.0000
  O   O22       1.0  0.8856208785389582  0.5886177898954942  0.6962608296962216  1.0000
  O   O23       1.0  0.6143918413917718  0.5886174283578997  0.19626322155765757  1.0000
  O   O24       1.0  0.11438472082988228  0.41138193985593574  0.3037376273037253  1.0000
