data_image0
_chemical_formula_structural       Zn4H39C44N17O2
_chemical_formula_sum              "Zn4 H39 C44 N17 O2"
_cell_length_a       14.915018721820513
_cell_length_b       14.875996169226315
_cell_length_c       14.912917754122445
_cell_angle_alpha    93.93900780137375
_cell_angle_beta     117.63386943478255
_cell_angle_gamma    117.70379948289964

_space_group_name_H-M_alt    "P 1"
_space_group_IT_number       1

loop_
  _space_group_symop_operation_xyz
  'x, y, z'

loop_
  _atom_site_type_symbol
  _atom_site_label
  _atom_site_symmetry_multiplicity
  _atom_site_fract_x
  _atom_site_fract_y
  _atom_site_fract_z
  _atom_site_occupancy
  Zn  Zn1       1.0  0.3489501518706745  0.9960975703082371  0.8541450622483352  1.0000
  Zn  Zn2       1.0  0.6538468518070532  0.9972604846716777  0.1564406836936314  1.0000
  Zn  Zn3       1.0  0.3530906983130464  0.8477133799740316  0.0052734029435014505  1.0000
  Zn  Zn4       1.0  0.6499127252689547  0.1449765698394286  0.003444619507931208  1.0000
  H   H1        1.0  0.33236631660869154  0.17117077173882939  0.9801088652481127  1.0000
  H   H2        1.0  0.6709147865001555  0.14061925474917555  0.3472413038269976  1.0000
  H   H3        1.0  0.3040238614825697  0.7637459976320785  0.18965134911557155  1.0000
  H   H4        1.0  0.6983003383742173  0.3789338801764473  0.9709226703074236  1.0000
  H   H5        1.0  0.6997463111770514  0.952836161200274  0.38613776558580065  1.0000
  H   H6        1.0  0.3027616597047356  0.1810932866968571  0.7761573481927257  1.0000
  H   H7        1.0  0.6759285624156915  0.3398028552487418  0.1480257327277456  1.0000
  H   H8        1.0  0.32895854504635474  0.9682251652401846  0.17558789671516448  1.0000
  H   H9        1.0  0.29925120085408  0.8223569115040378  0.661408032243628  1.0000
  H   H10       1.0  0.7022391618005699  0.8444384609288634  0.04715918020579587  1.0000
  H   H11       1.0  0.08339203457291691  0.6131089123156315  0.821151783077177  1.0000
  H   H12       1.0  0.9178925593335947  0.22908031174118565  0.03744007673315511  1.0000
  H   H13       1.0  0.9315382207837929  0.048154875257864646  0.2530289491747411  1.0000
  H   H14       1.0  0.0741501316573689  0.8162170127884354  0.6272423833817697  1.0000
  H   H15       1.0  0.6963649158607197  0.02102329351369289  0.8613812450902356  1.0000
  H   H16       1.0  0.3056764692080947  0.6475192595185462  0.8490990359416839  1.0000
  H   H17       1.0  0.6216313579393784  0.5044898671720263  0.8278318812980886  1.0000
  H   H18       1.0  0.6969346200429172  0.5333832041986993  0.9690106050752191  1.0000
  H   H19       1.0  0.7007769451580828  0.6902974132683185  0.9945845553563403  1.0000
  H   H20       1.0  0.6249512340235412  0.6627618709869693  0.8534103612087947  1.0000
  H   H21       1.0  0.4018253501469006  0.5451076390325796  0.7321878595132816  1.0000
  H   H22       1.0  0.42075907302911014  0.3839636375621894  0.9741993772095654  1.0000
  H   H23       1.0  0.5818207786238291  0.46681148247358095  0.05296908323624905  1.0000
  H   H24       1.0  0.5748224063055289  0.6202931207655951  0.07599821560742724  1.0000
  H   H25       1.0  0.414282462431281  0.538562521443133  0.9899645018723292  1.0000
  H   H26       1.0  0.30497503109980073  0.34549373882840234  0.78263837538735  1.0000
  H   H27       1.0  0.30713790751542547  0.5019581868633624  0.7818424444571193  1.0000
  H   H28       1.0  0.8876067241485045  0.6464080377327474  0.4711201768491547  1.0000
  H   H29       1.0  0.9127641110117822  0.49823708628184693  0.6013984026987416  1.0000
  H   H30       1.0  0.7631587605106204  0.4899388917899542  0.3106938900135603  1.0000
  H   H31       1.0  0.761342896403491  0.35082049787101244  0.453959971977774  1.0000
  H   H32       1.0  0.682359836798483  0.9100564654878197  0.5402828413662989  1.0000
  H   H33       1.0  0.40697623266878225  0.8140781802174998  0.40943897229757903  1.0000
  H   H34       1.0  0.684399931886773  0.9450455746349034  0.7001947259834223  1.0000
  H   H35       1.0  0.4030399720393021  0.8052693770210838  0.554436645364298  1.0000
  H   H36       1.0  0.13262889425345753  0.09584450482001472  0.2822758686179583  1.0000
  H   H37       1.0  0.0848895097245901  0.17452047303379456  0.0897593283571894  1.0000
  H   H38       1.0  0.2548472013825958  0.05563221924559513  0.24872812452229445  1.0000
  H   H39       1.0  0.24210704845746991  0.18811490234219264  0.09911652024894124  1.0000
  C   C1        1.0  0.3362102094385974  0.1128607291139829  0.019202780426439876  1.0000
  C   C2        1.0  0.6673226706115258  0.17576751464868332  0.28514939274800355  1.0000
  C   C3        1.0  0.4011481336311605  0.8118986985586787  0.22233566074692848  1.0000
  C   C4        1.0  0.601176491186564  0.31516101571880745  0.9246262525518034  1.0000
  C   C5        1.0  0.602699977714117  0.9074204037490149  0.322628495558412  1.0000
  C   C6        1.0  0.3998634410141548  0.214593810011138  0.8263707704906267  1.0000
  C   C7        1.0  0.6702210493247449  0.2780098655859505  0.1840315456592379  1.0000
  C   C8        1.0  0.3342608179575847  0.009485516732162544  0.11917687220775257  1.0000
  C   C9        1.0  0.3146421753383066  0.09248676120303405  0.10053162454694593  1.0000
  C   C10       1.0  0.6907226607719252  0.27946209631080887  0.2867213596158108  1.0000
  C   C11       1.0  0.5012831451813184  0.8511181567324756  0.3299589322302694  1.0000
  C   C12       1.0  0.500511687945462  0.32306891622805284  0.8723575149711706  1.0000
  C   C13       1.0  0.3963387273452028  0.8794223622292137  0.7237125100476406  1.0000
  C   C14       1.0  0.6050388280337488  0.8098766069586675  0.0053756730518160194  1.0000
  C   C15       1.0  0.09919651212376118  0.6783122883277388  0.7890229236254882  1.0000
  C   C16       1.0  0.9030114783179642  0.1818733728334365  0.08755099056992326  1.0000
  C   C17       1.0  0.910949344595231  0.09053454671489179  0.19814696138939775  1.0000
  C   C18       1.0  0.0932352235482483  0.7813619318441454  0.6898862805407049  1.0000
  C   C19       1.0  0.5990074495706637  0.9806343083588869  0.8253114834982966  1.0000
  C   C20       1.0  0.4031020335868263  0.7094040360651093  0.9044707391865145  1.0000
  C   C21       1.0  0.4978410880824455  0.8994383342813849  0.7223749280252036  1.0000
  C   C22       1.0  0.5038430143940998  0.7046899497464308  0.930698879370503  1.0000
  C   C23       1.0  0.030501592219316403  0.6720328218274575  0.6818450682076076  1.0000
  C   C24       1.0  0.9732342630292764  0.1449920938302469  0.1512468557035475  1.0000
  C   C25       1.0  0.6169553086373796  0.5228564574301585  0.8974469976810582  1.0000
  C   C26       1.0  0.619333269858508  0.6281325297448105  0.9148600127001528  1.0000
  C   C27       1.0  0.38411301005868376  0.40848224809357697  0.7849959839086651  1.0000
  C   C28       1.0  0.4999303902452753  0.45446893935994853  0.9821197373162532  1.0000
  C   C29       1.0  0.501679746739832  0.42487737976775014  0.881128639958682  1.0000
  C   C30       1.0  0.5036538362638439  0.6043697095636772  0.9078684547898206  1.0000
  C   C31       1.0  0.39247246026229027  0.5166110261588912  0.7953137971890955  1.0000
  C   C32       1.0  0.49755955058266477  0.5566219657137523  0.9957347386321304  1.0000
  C   C33       1.0  0.8675792147624293  0.5695155452103009  0.48380465490798485  1.0000
  C   C34       1.0  0.9306568366216156  0.5741599829791255  0.5872030375684644  1.0000
  C   C35       1.0  0.7853119462885872  0.47368718260146647  0.3860573038393937  1.0000
  C   C36       1.0  0.743846823667603  0.3690411805974705  0.38001257870807587  1.0000
  C   C37       1.0  0.5932534857812115  0.8799399717986277  0.5270826105428768  1.0000
  C   C38       1.0  0.4965946464305445  0.8441989465205353  0.42388420917792746  1.0000
  C   C39       1.0  0.5935200899444908  0.8938497562162199  0.6242204019561868  1.0000
  C   C40       1.0  0.4946135365902363  0.8597307951746133  0.6291211432569314  1.0000
  C   C41       1.0  0.1449353190493525  0.11987472103491112  0.21901095968247117  1.0000
  C   C42       1.0  0.07360973240977839  0.15068143269422757  0.1535380521814105  1.0000
  C   C43       1.0  0.22741940223486523  0.10421999158753441  0.20562080801162352  1.0000
  C   C44       1.0  0.2632518519350384  0.1344856224300486  0.13793477316627892  1.0000
  N   N1        1.0  0.36341684846291866  0.045878432681917096  0.9909848035445279  1.0000
  N   N2        1.0  0.6384245131184089  0.11949495809297873  0.19060025343591044  1.0000
  N   N3        1.0  0.439598817246697  0.8420169434900516  0.15718504520486226  1.0000
  N   N4        1.0  0.563431836100996  0.21040501686096752  0.9111094939383477  1.0000
  N   N5        1.0  0.56549868700467  0.9020835627454886  0.22002763038756265  1.0000
  N   N6        1.0  0.43785415867847627  0.14782418088015703  0.8495373060020412  1.0000
  N   N7        1.0  0.6400862166177532  0.18244390078491782  0.1286204297628473  1.0000
  N   N8        1.0  0.3622500566346715  0.982580059277808  0.052540174064382814  1.0000
  N   N9        1.0  0.4349842661263068  0.9453722010446269  0.8182635299623584  1.0000
  N   N10       1.0  0.5663606869605218  0.8711562321439175  0.02272266419743827  1.0000
  N   N11       1.0  0.1943766815380812  0.781773012405715  0.8545491254453595  1.0000
  N   N12       1.0  0.8076389145519584  0.15181541070636936  0.09561388575003338  1.0000
  N   N13       1.0  0.8122794873088993  0.09414976946710847  0.1641919015941227  1.0000
  N   N14       1.0  0.19059751839517253  0.8458619473733224  0.792357872775142  1.0000
  N   N15       1.0  0.5594588847448206  0.007335305913706136  0.8805100109701911  1.0000
  N   N16       1.0  0.44232243206621297  0.8094433410468653  0.9607466538734002  1.0000
  N   N17       1.0  0.3585331156725005  0.3590282466674708  0.6762470231326461  1.0000
  O   O1        1.0  0.42743722497637293  0.4163292955772563  0.6504418152928365  1.0000
  O   O2        1.0  0.2704053118230831  0.26282794023327943  0.6207792832762281  1.0000
