data_image0
_chemical_formula_structural       Zn16H44C96S16N16Cl4O52
_chemical_formula_sum              "Zn16 H44 C96 S16 N16 Cl4 O52"
_cell_length_a       19.672566527221655
_cell_length_b       19.66644637838966
_cell_length_c       33.37933166384635
_cell_angle_alpha    79.22657790638269
_cell_angle_beta     79.19848662121896
_cell_angle_gamma    63.935028207185745

_space_group_name_H-M_alt    "P 1"
_space_group_IT_number       1

loop_
  _space_group_symop_operation_xyz
  'x, y, z'

loop_
  _atom_site_type_symbol
  _atom_site_label
  _atom_site_symmetry_multiplicity
  _atom_site_fract_x
  _atom_site_fract_y
  _atom_site_fract_z
  _atom_site_occupancy
  Zn  Zn1       1.0  0.0548904837412678  0.4002180692380009  0.47806361770060585  1.0000
  Zn  Zn2       1.0  0.9843470091403221  0.48332548398116887  0.5606247410910327  1.0000
  Zn  Zn3       1.0  0.059315767356892514  0.5595757161420637  0.4820217427951832  1.0000
  Zn  Zn4       1.0  0.9015039015546338  0.5565270235349685  0.4797546138380255  1.0000
  Zn  Zn5       1.0  0.6933712317932575  0.3490926504886786  0.2717799550708335  1.0000
  Zn  Zn6       1.0  0.6895712197587899  0.18917537503099174  0.2665123183037537  1.0000
  Zn  Zn7       1.0  0.7683935563608559  0.2675700463931674  0.1907723314069543  1.0000
  Zn  Zn8       1.0  0.8482587405899764  0.1944893919062451  0.27192603500640183  1.0000
  Zn  Zn9       1.0  0.2670279473017629  0.7667278027907899  0.6904646059997717  1.0000
  Zn  Zn10      1.0  0.3488648003297996  0.6955478064776556  0.7721787283476331  1.0000
  Zn  Zn11      1.0  0.19215433493980075  0.8488686713997353  0.7710085126830251  1.0000
  Zn  Zn12      1.0  0.19014764580504112  0.6891024196049997  0.7674645415157855  1.0000
  Zn  Zn13      1.0  0.5597223403631943  0.05986766606360309  0.983131233188132  1.0000
  Zn  Zn14      1.0  0.40195438941434963  0.05498468545669503  0.9787226820980378  1.0000
  Zn  Zn15      1.0  0.5562238712213771  0.9001664498330015  0.978657722139438  1.0000
  Zn  Zn16      1.0  0.48276208870540677  0.9827390673522348  0.06039966634038755  1.0000
  H   H1        1.0  0.9554504418588723  0.2492084670259728  0.35184193614187365  1.0000
  H   H2        1.0  0.7469245318374504  0.45302956149247836  0.3496106654096991  1.0000
  H   H3        1.0  0.9985597633722423  0.3016988181157956  0.4001447220207766  1.0000
  H   H4        1.0  0.09649308311571052  0.5964473552777959  0.6999267888541567  1.0000
  H   H5        1.0  0.2023680468900935  0.7007318975067419  0.5989321116379713  1.0000
  H   H6        1.0  0.050521829751637916  0.5506546867613125  0.649652826476526  1.0000
  H   H7        1.0  0.5501306798985085  0.05018975966817146  0.15385537972152719  1.0000
  H   H8        1.0  0.6499974862927829  0.15207241637865818  0.04864007613154094  1.0000
  H   H9        1.0  0.6009836931092567  0.10000891149861244  0.1996384565964391  1.0000
  H   H10       1.0  0.5013841235304072  0.7948267442213606  0.8980288758467694  1.0000
  H   H11       1.0  0.29751413296344253  0.0033727260915199673  0.899932181523738  1.0000
  H   H12       1.0  0.44892120772198046  0.7513321547993144  0.849911273742144  1.0000
  H   H13       1.0  0.31516739251530623  0.5546681634489588  0.3955250212625431  1.0000
  H   H14       1.0  0.2336177965831041  0.5520925640953819  0.42612928990094195  1.0000
  H   H15       1.0  0.42535919455716004  0.20276601177746292  0.3448868811735082  1.0000
  H   H16       1.0  0.513962308371923  0.19942326955257517  0.3217153058823711  1.0000
  H   H17       1.0  0.7652075199364957  0.5232736286608811  0.685603873608251  1.0000
  H   H18       1.0  0.8348549910079228  0.5169277847306119  0.6437513760917781  1.0000
  H   H19       1.0  0.48438908143744197  0.7033383536559015  0.5646078034523541  1.0000
  H   H20       1.0  0.41518475125980814  0.7273249532312177  0.6069699680722564  1.0000
  H   H21       1.0  0.0468249911257459  0.265746704818838  0.6856879024540491  1.0000
  H   H22       1.0  0.02273461142998911  0.33473484288453653  0.6433135601586599  1.0000
  H   H23       1.0  0.22561023057558321  0.9848100782989208  0.5645732606757574  1.0000
  H   H24       1.0  0.2330434415370135  0.9148973563567963  0.6064851130692759  1.0000
  H   H25       1.0  0.743736267318731  0.8037905330192529  0.38480632711478796  1.0000
  H   H26       1.0  0.7957216675622335  0.725284519657315  0.4179008042895517  1.0000
  H   H27       1.0  0.015136429879937904  0.934718070601484  0.35498510705687647  1.0000
  H   H28       1.0  0.9559239462951014  0.02178834178247498  0.3302274785941819  1.0000
  H   H29       1.0  0.7238632092458844  0.48453432996146995  0.06481306245959924  1.0000
  H   H30       1.0  0.7330054363612463  0.4144889123830991  0.1069592756693822  1.0000
  H   H31       1.0  0.5440440155194325  0.7660898590193029  0.18596933954020045  1.0000
  H   H32       1.0  0.5210708732796904  0.8353019027297107  0.1433776311431387  1.0000
  H   H33       1.0  0.14566541340960984  0.08645671868993078  0.2261028720969875  1.0000
  H   H34       1.0  0.047544825213307704  0.11791135362091149  0.23927484998824158  1.0000
  H   H35       1.0  0.10426443575613582  0.1846348911440145  0.025012537659314698  1.0000
  H   H36       1.0  0.20233873307766706  0.13678192601842912  0.011026287530455604  1.0000
  H   H37       1.0  0.5158850567517491  0.4350350252687108  0.8552633461241044  1.0000
  H   H38       1.0  0.4569285675901257  0.5216253955464153  0.8298958805391408  1.0000
  H   H39       1.0  0.24520403095037585  0.30334185177412815  0.8840124878851157  1.0000
  H   H40       1.0  0.29670761618750424  0.22527295705493333  0.917297320042728  1.0000
  H   H41       1.0  0.9244203018376782  0.7028953460252436  0.8450576259211147  1.0000
  H   H42       1.0  0.013214568218302204  0.6990970487486904  0.8220236880403533  1.0000
  H   H43       1.0  0.8156897017140567  0.05508518969001112  0.8952369395356214  1.0000
  H   H44       1.0  0.7339483241654534  0.05287831664937665  0.9257648884832861  1.0000
  C   C1        1.0  0.060205978968028304  0.3156151603759554  0.5624546198684612  1.0000
  C   C2        1.0  0.0690706693942644  0.5696561891231582  0.5691031569297706  1.0000
  C   C3        1.0  0.18488253303975455  0.43843248434164656  0.43856319423871776  1.0000
  C   C4        1.0  0.937239189655017  0.6850723180890625  0.4383170612937093  1.0000
  C   C5        1.0  0.9297831151561554  0.43231772998197454  0.4308029325993772  1.0000
  C   C6        1.0  0.816042794473809  0.5623450925410792  0.56306735501866  1.0000
  C   C7        1.0  0.5650209806219239  0.310313557888584  0.3119806521976117  1.0000
  C   C8        1.0  0.682174802041729  0.18010633542688473  0.18072534289397882  1.0000
  C   C9        1.0  0.6883822892553085  0.43450000026842156  0.18807222887608793  1.0000
  C   C10       1.0  0.9361867000007253  0.18786597168543287  0.18937189336753593  1.0000
  C   C11       1.0  0.8207096952357631  0.3186873671869606  0.318902287842775  1.0000
  C   C12       1.0  0.8123850046866536  0.06495302364277218  0.3118945989226702  1.0000
  C   C13       1.0  0.43429444478909573  0.6894684433075045  0.6879722094507557  1.0000
  C   C14       1.0  0.3184686022163774  0.8200732345564958  0.8190099056597475  1.0000
  C   C15       1.0  0.18715978312653195  0.9340615951346437  0.6873925813903625  1.0000
  C   C16       1.0  0.06439475754377362  0.8099219577853914  0.8117934169776647  1.0000
  C   C17       1.0  0.181025257662462  0.6795699703450921  0.6813677778486138  1.0000
  C   C18       1.0  0.31309269706358134  0.564953959629122  0.8119123725653878  1.0000
  C   C19       1.0  0.43710907059706733  0.1850296125261579  0.9386502630121568  1.0000
  C   C20       1.0  0.4317676281130503  0.9304175083245381  0.9304616807761265  1.0000
  C   C21       1.0  0.6851347651448094  0.9393202363360159  0.9388555344730419  1.0000
  C   C22       1.0  0.5606169271919725  0.8152154223053214  0.06241776242689671  1.0000
  C   C23       1.0  0.5679882296562014  0.06906810055619424  0.0700183946409538  1.0000
  C   C24       1.0  0.31424645838594506  0.06151856439690557  0.061078416284978204  1.0000
  C   C25       1.0  0.8981691390015953  0.40643509579398074  0.4020281097280217  1.0000
  C   C26       1.0  0.8485461267212104  0.3483308482815701  0.34762589454666687  1.0000
  C   C27       1.0  0.8263438861082193  0.449108973589631  0.38744938160984793  1.0000
  C   C28       1.0  0.9198010951889871  0.305142639073047  0.3618698874874653  1.0000
  C   C29       1.0  0.8023640808592988  0.4198522053667872  0.3605615794965829  1.0000
  C   C30       1.0  0.9435121188501582  0.33430217472459134  0.3885980741686624  1.0000
  C   C31       1.0  0.0997682662986534  0.5995687106348555  0.5963018357748665  1.0000
  C   C32       1.0  0.15232543684183503  0.6514525555999383  0.6523276057643629  1.0000
  C   C33       1.0  0.14322904226427366  0.6424811837205199  0.582105527299106  1.0000
  C   C34       1.0  0.10928086534726593  0.60905053387593  0.6669434577818265  1.0000
  C   C35       1.0  0.16893890035627382  0.667800662396175  0.6101049715811016  1.0000
  C   C36       1.0  0.08392473377374192  0.5838255372186937  0.6390767542265648  1.0000
  C   C37       1.0  0.3041233238706198  0.4540339834832424  0.40171208666759384  1.0000
  C   C38       1.0  0.4465293137246321  0.2941052306764219  0.3495939907193629  1.0000
  C   C39       1.0  0.25878391250761723  0.41317073938563453  0.41446630550842656  1.0000
  C   C40       1.0  0.49188635454378743  0.3348738979232095  0.33689092883756194  1.0000
  C   C41       1.0  0.37766358250213017  0.3385881923718443  0.3730917777970291  1.0000
  C   C42       1.0  0.3724947561656223  0.40994736841695806  0.37771147183400444  1.0000
  C   C43       1.0  0.726550864758238  0.5767721655040886  0.6302163877929061  1.0000
  C   C44       1.0  0.5236511627679192  0.6752159557435679  0.6207997680755142  1.0000
  C   C45       1.0  0.742105929420198  0.5873368106685177  0.5872242403067885  1.0000
  C   C46       1.0  0.5081819570593424  0.665078675864791  0.663828392956276  1.0000
  C   C47       1.0  0.6038723211285842  0.6419791823953604  0.6088404181937292  1.0000
  C   C48       1.0  0.6463050762948156  0.608585795503032  0.6421066642947935  1.0000
  C   C49       1.0  0.0744548031837269  0.22624902801564417  0.6296109776533713  1.0000
  C   C50       1.0  0.17314272627513821  0.023311010673239662  0.6202181611697242  1.0000
  C   C51       1.0  0.0845481663572514  0.24165943081693086  0.5865940190860287  1.0000
  C   C52       1.0  0.16233569573112314  0.00787872152857009  0.6632281707573142  1.0000
  C   C53       1.0  0.14122690520722614  0.10357079480500175  0.6083119480603258  1.0000
  C   C54       1.0  0.1076798458128891  0.14605933482203434  0.6415781803426768  1.0000
  C   C55       1.0  0.8429510391753683  0.8006083694847419  0.39794953387443843  1.0000
  C   C56       1.0  0.9056643092042125  0.9499721879116765  0.35314647890604073  1.0000
  C   C57       1.0  0.9127976001913608  0.7588681401241998  0.41421649622989076  1.0000
  C   C58       1.0  0.8359127419577775  0.9918785053556931  0.336807536678414  1.0000
  C   C59       1.0  0.9079072919857512  0.8796044464870504  0.37502025128002  1.0000
  C   C60       1.0  0.8414508301524251  0.8701666794759364  0.37519426649236454  1.0000
  C   C61       1.0  0.6541879659191637  0.15350135517907418  0.15048818533974637  1.0000
  C   C62       1.0  0.5972841485461515  0.09803774591582479  0.09835664503034988  1.0000
  C   C63       1.0  0.6677590023110727  0.1681241422535535  0.10728920748283599  1.0000
  C   C64       1.0  0.5831262793789095  0.08315708059169673  0.1410993861158261  1.0000
  C   C65       1.0  0.6393174388079998  0.14044932262147813  0.08182102782623701  1.0000
  C   C66       1.0  0.6113197029256554  0.1107843152758506  0.16635151524926778  1.0000
  C   C67       1.0  0.6734443671006647  0.5232433468865237  0.12072376226164747  1.0000
  C   C68       1.0  0.5744300938253843  0.7264181126463145  0.129686520326473  1.0000
  C   C69       1.0  0.6629668784413597  0.5081617843704223  0.16379409417342575  1.0000
  C   C70       1.0  0.5847538866946778  0.7414883322409054  0.08662536667640808  1.0000
  C   C71       1.0  0.6076976205021297  0.6462376590926697  0.14180900405255406  1.0000
  C   C72       1.0  0.6412442068428562  0.6034848223500121  0.10865707770179259  1.0000
  C   C73       1.0  0.08148733022638772  0.1225214967033281  0.1782425565390326  1.0000
  C   C74       1.0  0.16880734563270036  0.12457534636489241  0.0721150807368502  1.0000
  C   C75       1.0  0.009280004469452801  0.16227867513558888  0.1644698918942851  1.0000
  C   C76       1.0  0.24110540606681505  0.08494833991976947  0.08589081247986029  1.0000
  C   C77       1.0  0.11082282800894921  0.13869023658052265  0.10629172605046482  1.0000
  C   C78       1.0  0.1395223302181066  0.1097258180101264  0.1441383283392668  1.0000
  C   C79       1.0  0.34433737712532053  0.8518048021921986  0.8477309943981696  1.0000
  C   C80       1.0  0.4024414198274755  0.9021292092710168  0.9018028947229695  1.0000
  C   C81       1.0  0.3014986651528275  0.9237428240188875  0.8622291646761938  1.0000
  C   C82       1.0  0.44561014100195007  0.8305745410383167  0.8878402128350444  1.0000
  C   C83       1.0  0.33086192760335825  0.9479845301589548  0.8889297792502474  1.0000
  C   C84       1.0  0.4164096279789434  0.8066107698480208  0.8612414265182693  1.0000
  C   C85       1.0  0.40659413353579055  0.4497916834874047  0.8530529691223876  1.0000
  C   C86       1.0  0.34328033867346625  0.3009143472499858  0.8980874488758771  1.0000
  C   C87       1.0  0.33687164152856036  0.4917055875789913  0.8367004719939501  1.0000
  C   C88       1.0  0.4129132237303921  0.2589463816773332  0.9145181060100996  1.0000
  C   C89       1.0  0.3419602739018331  0.3703497587128126  0.8753361500467918  1.0000
  C   C90       1.0  0.40852415242695633  0.3796132962421126  0.8751657454385365  1.0000
  C   C91       1.0  0.9459333686582386  0.7940555669722541  0.8496759538369291  1.0000
  C   C92       1.0  0.8042566108092757  0.9545990098486712  0.9015770445997902  1.0000
  C   C93       1.0  0.9914131123940139  0.8346412876216012  0.8367624823034419  1.0000
  C   C94       1.0  0.7587714554230801  0.9140001492029981  0.9145569342692995  1.0000
  C   C95       1.0  0.8724040913914595  0.9102260154850229  0.8775408600765218  1.0000
  C   C96       1.0  0.8772251768972694  0.8388716551918379  0.8731479342075943  1.0000
  S   S1        1.0  0.299909638443701  0.3227393269075947  0.39777314975115274  1.0000
  S   S2        1.0  0.45108209258236104  0.42504930825236903  0.35385737192247285  1.0000
  S   S3        1.0  0.6600952760871551  0.635886759516481  0.5622247330725756  1.0000
  S   S4        1.0  0.5902087723661255  0.6167134965769845  0.6888052768610748  1.0000
  S   S5        1.0  0.1330300994127427  0.1596139815310237  0.5616233673124712  1.0000
  S   S6        1.0  0.11351266300769683  0.08997045598506048  0.6882082792893699  1.0000
  S   S7        1.0  0.9742565933431425  0.8044464925316672  0.4022937027427318  1.0000
  S   S8        1.0  0.7744458562427781  0.9462729443427236  0.3487284338904005  1.0000
  S   S9        1.0  0.6139672494632863  0.5905044847472637  0.18856007366670013  1.0000
  S   S10       1.0  0.6332907668450148  0.6591585352792888  0.06185356719068122  1.0000
  S   S11       1.0  0.0127577694567904  0.18229746304944433  0.11099242150582711  1.0000
  S   S12       1.0  0.2375446336282039  0.06461910322069996  0.1393889612537365  1.0000
  S   S13       1.0  0.27512100511258103  0.4464138243618621  0.8487589733966842  1.0000
  S   S14       1.0  0.4745093675683023  0.3043987229129499  0.902663890625476  1.0000
  S   S15       1.0  0.951051387812612  0.9249622404246834  0.8534789347317188  1.0000
  S   S16       1.0  0.7994001788545192  0.8234296439596919  0.8980740302569643  1.0000
  N   N1        1.0  0.28676804768406333  0.5242394786319481  0.41167683917484504  1.0000
  N   N2        1.0  0.4663050577695601  0.2218966407428199  0.3417599470723331  1.0000
  N   N3        1.0  0.78021214208146  0.5434469903743632  0.6568046628803402  1.0000
  N   N4        1.0  0.47014569662647443  0.7134528837901611  0.5943365100036857  1.0000
  N   N5        1.0  0.036030212747341715  0.279902797975538  0.6560749437656099  1.0000
  N   N6        1.0  0.2067618372072531  0.9696895268719316  0.5936483260506051  1.0000
  N   N7        1.0  0.7845238200539627  0.7790758030556975  0.40395498333198526  1.0000
  N   N8        1.0  0.9620848871351272  0.9737569189428896  0.3498195012924867  1.0000
  N   N9        1.0  0.7071998769610134  0.46948538798108075  0.09432867872521203  1.0000
  N   N10       1.0  0.536259029309889  0.7801606667194676  0.15593818014565392  1.0000
  N   N11       1.0  0.09421609314048142  0.09762955172618598  0.2182680754785835  1.0000
  N   N12       1.0  0.15575778341307261  0.1445446990606314  0.0320722577388608  1.0000
  N   N13       1.0  0.463021807011451  0.473552367929983  0.8494480063986813  1.0000
  N   N14       1.0  0.28446080572003046  0.2796895861860235  0.9040847209021052  1.0000
  N   N15       1.0  0.9655473180033101  0.7217582499377644  0.8420349916260719  1.0000
  N   N16       1.0  0.7871542572836746  0.024823280672897897  0.9114351947991679  1.0000
  Cl  Cl1       1.0  0.7622797599679175  0.5380937804036491  0.4009484818043134  1.0000
  Cl  Cl2       1.0  0.16895433018312644  0.6669360008259986  0.5308700002715341  1.0000
  Cl  Cl3       1.0  0.7182973301243935  0.22001158000406923  0.08211255579394107  1.0000
  Cl  Cl4       1.0  0.21210638788816286  0.9871009776000219  0.8492234423812093  1.0000
  O   O1        1.0  0.0004066723425780012  0.498617024153738  0.5007019187431183  1.0000
  O   O2        1.0  0.0760478598434489  0.3171509121385654  0.5233509661065199  1.0000
  O   O3        1.0  0.03524558700392791  0.5274902364645939  0.5870378743288284  1.0000
  O   O4        1.0  0.15758953042366394  0.505488297652228  0.45043899270329757  1.0000
  O   O5        1.0  0.0242850440091473  0.3745483020849818  0.5823920816710242  1.0000
  O   O6        1.0  0.1518192963292648  0.39303951490361294  0.44631161644201717  1.0000
  O   O7        1.0  0.07849354338200243  0.5884965121809599  0.5306973651036984  1.0000
  O   O8        1.0  0.0050352570484762  0.6550310135800714  0.44859361077459425  1.0000
  O   O9        1.0  0.8901098839008483  0.49847603979769456  0.44171041868187894  1.0000
  O   O10       1.0  0.8889157344478491  0.6547978613811127  0.44765878821535665  1.0000
  O   O11       1.0  0.9946791009058276  0.38546238507178965  0.44198251821147483  1.0000
  O   O12       1.0  0.8753118848074097  0.5272923264007189  0.5827194854912321  1.0000
  O   O13       1.0  0.8171026703665946  0.5768722951743825  0.5239097821714936  1.0000
  O   O14       1.0  0.7497923853407259  0.24946108834330977  0.25074076078585955  1.0000
  O   O15       1.0  0.5966684023562294  0.3569632067199606  0.3034123080461626  1.0000
  O   O16       1.0  0.6608941914876  0.16570925373175519  0.2187497123242608  1.0000
  O   O17       1.0  0.7241031437336504  0.37529390888457936  0.1683348326113006  1.0000
  O   O18       1.0  0.592840952873587  0.2432193546794678  0.3001436250949182  1.0000
  O   O19       1.0  0.673865775117264  0.4331018340783075  0.22727725988691108  1.0000
  O   O20       1.0  0.724788452978146  0.21439659491097263  0.1664725463070056  1.0000
  O   O21       1.0  0.8769981901685995  0.22642156667938454  0.1705804501203332  1.0000
  O   O22       1.0  0.8657765586936393  0.2535254446184254  0.3074765983134427  1.0000
  O   O23       1.0  0.9360820873394575  0.17010065492989648  0.22872517362210937  1.0000
  O   O24       1.0  0.754490331466414  0.3609946382446624  0.3083903106417765  1.0000
  O   O25       1.0  0.746782052911229  0.09287433064886119  0.2990399496930038  1.0000
  O   O26       1.0  0.8597089411119327  0.09654829231834569  0.3043604734528317  1.0000
  O   O27       1.0  0.2503208202546148  0.7490537674873606  0.7502525577392732  1.0000
  O   O28       1.0  0.37535934047922853  0.7260995570024918  0.6681327634039604  1.0000
  O   O29       1.0  0.3649995281209328  0.7545307570689704  0.8083398510218416  1.0000
  O   O30       1.0  0.1720378714157818  0.9326938562639384  0.726538234027565  1.0000
  O   O31       1.0  0.43264932852081023  0.672978372533386  0.7270922718241906  1.0000
  O   O32       1.0  0.22292118107510825  0.8747707024533893  0.6676710479890247  1.0000
  O   O33       1.0  0.2529173747108544  0.8601316378259086  0.80753895692731  1.0000
  O   O34       1.0  0.09562237070704781  0.856883387350365  0.8026625057200222  1.0000
  O   O35       1.0  0.16230452489914174  0.6651249672267242  0.7195971250683826  1.0000
  O   O36       1.0  0.09262780762090732  0.7423894002721667  0.8004449902311777  1.0000
  O   O37       1.0  0.22175344885152268  0.7155838237025801  0.6652486643943122  1.0000
  O   O38       1.0  0.36012315430488673  0.5968034759969358  0.8040862413815972  1.0000
  O   O39       1.0  0.24707191360197814  0.5926736097088181  0.7995238139857506  1.0000
  O   O40       1.0  0.5000315835256613  0.9994025246058346  0.00029787530458245406  1.0000
  O   O41       1.0  0.5042254445526596  0.1554891530424386  0.9497452270180701  1.0000
  O   O42       1.0  0.3890882745949967  0.9970016086010032  0.9407381465347058  1.0000
  O   O43       1.0  0.6525619075048399  0.8935013816239136  0.9468731273408224  1.0000
  O   O44       1.0  0.3891353653716153  0.15421369939226542  0.9471516386799338  1.0000
  O   O45       1.0  0.6575696029458129  0.006480708802818827  0.9506423359833179  1.0000
  O   O46       1.0  0.4966234988494308  0.8858071909641011  0.9420874695513319  1.0000
  O   O47       1.0  0.5767070544024621  0.8165493414387727  0.02328178864347309  1.0000
  O   O48       1.0  0.5312799494098499  0.029261455548805815  0.08669740910738  1.0000
  O   O49       1.0  0.5246468521761046  0.8743688779951457  0.08216506239695315  1.0000
  O   O50       1.0  0.582363614655833  0.08669981712870356  0.03162649471708793  1.0000
  O   O51       1.0  0.3141201913594643  0.077093164857672  0.021617569173166387  1.0000
  O   O52       1.0  0.3737471842102451  0.02726012081261334  0.07997877538034001  1.0000
