data_image0
_chemical_formula_structural       Y4H60C44O24
_chemical_formula_sum              "Y4 H60 C44 O24"
_cell_length_a       8.154561579007288
_cell_length_b       10.692025755008734
_cell_length_c       14.76659610202457
_cell_angle_alpha    89.99985560917727
_cell_angle_beta     90.00015171715404
_cell_angle_gamma    90.00002098723638

_space_group_name_H-M_alt    "P 1"
_space_group_IT_number       1

loop_
  _space_group_symop_operation_xyz
  'x, y, z'

loop_
  _atom_site_type_symbol
  _atom_site_label
  _atom_site_symmetry_multiplicity
  _atom_site_fract_x
  _atom_site_fract_y
  _atom_site_fract_z
  _atom_site_occupancy
  Y   Y1        1.0  0.9212942850974029  0.6994485873169439  0.49801256820902057  1.0000
  Y   Y2        1.0  0.5787043274208299  0.3005522593389571  0.9980148479184836  1.0000
  Y   Y3        1.0  0.07870201019304089  0.1994505196692913  0.0019847596979545006  1.0000
  Y   Y4        1.0  0.421295639500883  0.800550018072535  0.5019866215914278  1.0000
  H   H1        1.0  0.7272622775525547  0.6710671793205947  0.19656925143824114  1.0000
  H   H2        1.0  0.7727348869220305  0.3289328395972859  0.6965704078555393  1.0000
  H   H3        1.0  0.27274258968807885  0.1710690640237331  0.303428128576627  1.0000
  H   H4        1.0  0.22726018696690176  0.8289313661837314  0.8034289779376068  1.0000
  H   H5        1.0  0.40682332960325596  0.7927820801492305  0.2299232413153689  1.0000
  H   H6        1.0  0.09317173611627538  0.2072204748900005  0.7299257134814994  1.0000
  H   H7        1.0  0.5931754584270904  0.2927785674797079  0.27007323805592887  1.0000
  H   H8        1.0  0.9068208328469108  0.7072277440826724  0.7700806677784798  1.0000
  H   H9        1.0  0.46780368522321675  0.6946324629683288  0.13991346497194002  1.0000
  H   H10       1.0  0.0321934007309181  0.30536759762217264  0.6399156679524867  1.0000
  H   H11       1.0  0.5321975132265422  0.19463423175552927  0.36008387178004153  1.0000
  H   H12       1.0  0.9678077945785118  0.8053736389819974  0.8600891787315917  1.0000
  H   H13       1.0  0.6466387034452978  0.0165400138013467  0.2602682918998127  1.0000
  H   H14       1.0  0.8533636722547083  0.9834569789234779  0.7602717504681993  1.0000
  H   H15       1.0  0.35335996582073637  0.51654254077215  0.23972937178550785  1.0000
  H   H16       1.0  0.1466351470007581  0.48345530396337477  0.7397307376785565  1.0000
  H   H17       1.0  0.8502694485058624  0.0591260434532757  0.22837411808824026  1.0000
  H   H18       1.0  0.6497315476728927  0.9408776065451793  0.7283753259862706  1.0000
  H   H19       1.0  0.14972433384564707  0.5591265266822845  0.27162617623400115  1.0000
  H   H20       1.0  0.3502697058898149  0.4408702724333082  0.7716272403331816  1.0000
  H   H21       1.0  0.8162091752798586  0.9583651996085154  0.3217170547490583  1.0000
  H   H22       1.0  0.6837922692913735  0.0416353216482506  0.8217192859538333  1.0000
  H   H23       1.0  0.18378355241342348  0.4583693603426229  0.17828250665977666  1.0000
  H   H24       1.0  0.3162088126214613  0.5416277616850921  0.6782840132807026  1.0000
  H   H25       1.0  0.5577409329787812  0.5119562768300767  0.6068439205501763  1.0000
  H   H26       1.0  0.9422619319809299  0.4880524700025078  0.10682783823686752  1.0000
  H   H27       1.0  0.442261362472358  0.011959774009014304  0.8931546927298726  1.0000
  H   H28       1.0  0.05773571367267749  0.9880375399612475  0.3931594790197225  1.0000
  H   H29       1.0  0.008874341812436596  0.8017924317104032  0.25330544712586806  1.0000
  H   H30       1.0  0.4911269677610262  0.1982053660615577  0.7533064850939584  1.0000
  H   H31       1.0  0.9911244501034273  0.30179754023390604  0.24669507892146925  1.0000
  H   H32       1.0  0.5088729551496627  0.6982032405628545  0.7466917862799607  1.0000
  H   H33       1.0  0.04342657629045729  0.9022880562794104  0.15872637283540317  1.0000
  H   H34       1.0  0.45657550526257745  0.0977119392322621  0.6587275448543721  1.0000
  H   H35       1.0  0.9565771640570231  0.4022909564034336  0.3412719371187977  1.0000
  H   H36       1.0  0.5434243744432193  0.5977076266567067  0.841271588207981  1.0000
  H   H37       1.0  0.9803708034517553  0.7445978127447077  0.1420259929025462  1.0000
  H   H38       1.0  0.5196285516228156  0.25539958903502946  0.6420248832475934  1.0000
  H   H39       1.0  0.019626737560983498  0.24460036591435855  0.35797260652968543  1.0000
  H   H40       1.0  0.4803701695656314  0.7553980050518945  0.8579712515173912  1.0000
  H   H41       1.0  0.44598383135354414  0.8845779038179058  0.05439322720352642  1.0000
  H   H42       1.0  0.05401774902215099  0.115423387895504  0.5543971651389514  1.0000
  H   H43       1.0  0.5540199013787513  0.38457657766012676  0.4456051152662256  1.0000
  H   H44       1.0  0.9459772330871487  0.6154225797375547  0.9456093846480801  1.0000
  H   H45       1.0  0.4781452222795932  0.9783027322356759  0.1503022008406703  1.0000
  H   H46       1.0  0.021861724045081094  0.0216982276896189  0.6503069410969644  1.0000
  H   H47       1.0  0.5218585507470975  0.4783017279405967  0.3496952923679261  1.0000
  H   H48       1.0  0.9781442545401188  0.5217033729044971  0.8497011351582701  1.0000
  H   H49       1.0  0.8829661152083543  0.8096577321940901  0.0071125763107105  1.0000
  H   H50       1.0  0.6170264602502511  0.19034013630135857  0.5071130826697259  1.0000
  H   H51       1.0  0.11703390638742657  0.3096579781573041  0.4928845492824437  1.0000
  H   H52       1.0  0.3829795908159567  0.6903361849877427  0.992885203149058  1.0000
  H   H53       1.0  0.6855267656438143  0.8266593819630615  0.9586113201446269  1.0000
  H   H54       1.0  0.8144741102195637  0.17333785989033154  0.45861459075520383  1.0000
  H   H55       1.0  0.3144817966419139  0.3266575096766218  0.5413846838115718  1.0000
  H   H56       1.0  0.1855319843199439  0.6733419564870717  0.04138887992734651  1.0000
  H   H57       1.0  0.719265162524273  0.7095550076774018  0.04164115615844821  1.0000
  H   H58       1.0  0.7807349366467304  0.2904399355391973  0.5416430721142477  1.0000
  H   H59       1.0  0.28073726865130766  0.2095610352713067  0.45835683040037634  1.0000
  H   H60       1.0  0.2192748363885498  0.7904360531453279  0.9583590931723196  1.0000
  C   C1        1.0  0.6714925879856891  0.747185360027835  0.324147628624921  1.0000
  C   C2        1.0  0.8285039630337107  0.2528132822648884  0.8241510377945291  1.0000
  C   C3        1.0  0.3285098593625547  0.24719331495064267  0.17584758003511075  1.0000
  C   C4        1.0  0.17148372029131304  0.7528028802181909  0.6758525509638675  1.0000
  C   C5        1.0  0.6717547752568365  0.7578243061109975  0.22221756085724564  1.0000
  C   C6        1.0  0.8282425124232586  0.24217562407987708  0.7222182803575664  1.0000
  C   C7        1.0  0.32824522405959294  0.2578291024992012  0.2777816914981203  1.0000
  C   C8        1.0  0.17175252416985384  0.7421723517039354  0.7777832963154836  1.0000
  C   C9        1.0  0.5019184441495523  0.7784565542558963  0.1784856062811926  1.0000
  C   C10       1.0  0.9980786334598762  0.22154446249491846  0.6784879659654807  1.0000
  C   C11       1.0  0.4980852429542678  0.2784575106745563  0.32151157659201607  1.0000
  C   C12       1.0  0.0019176205833417999  0.7215475333470138  0.8215183890055684  1.0000
  C   C13       1.0  0.7729277195021494  0.9824047219925094  0.25337694540326083  1.0000
  C   C14       1.0  0.7270746230934931  0.017595100402388705  0.7533799611199826  1.0000
  C   C15       1.0  0.22706992375803028  0.4824077243924521  0.24662324908344865  1.0000
  C   C16       1.0  0.27292399587069127  0.5175900964951622  0.7466240594467453  1.0000
  C   C17       1.0  0.6618825874728386  0.5649584592123631  0.578333653651228  1.0000
  C   C18       1.0  0.8381250457872367  0.4350457098484385  0.07832835190145462  1.0000
  C   C19       1.0  0.33812586229655744  0.06495995507334132  0.9216621535190371  1.0000
  C   C20       1.0  0.1618848401654701  0.9350344544551704  0.4216644803017645  1.0000
  C   C21       1.0  0.7858736706176472  0.8687893201368341  0.18979774854209813  1.0000
  C   C22       1.0  0.71412468764035  0.13121165748020758  0.6898005367871748  1.0000
  C   C23       1.0  0.2141251501020918  0.3687911633185763  0.3102026545177098  1.0000
  C   C24       1.0  0.28587152755413564  0.6312083081784226  0.8102019207947109  1.0000
  C   C25       1.0  0.9653032850599457  0.8272256696270192  0.18535207247160204  1.0000
  C   C26       1.0  0.5346975044545558  0.17277345281861053  0.6853538453112408  1.0000
  C   C27       1.0  0.03469551778852059  0.32722837732750076  0.31464772968436  1.0000
  C   C28       1.0  0.4653036338308282  0.6727701435193153  0.8146451499558156  1.0000
  C   C29       1.0  0.5196470465115793  0.892713778266831  0.11616444904058203  1.0000
  C   C30       1.0  0.9803497317281396  0.1072865187998389  0.6161676698013852  1.0000
  C   C31       1.0  0.4803554634115911  0.3927145136177045  0.3838338784908332  1.0000
  C   C32       1.0  0.019644020576293997  0.6072903148086439  0.8838388949179007  1.0000
  C   C33       1.0  0.7044564440869364  0.9007824722430657  0.09567847410210822  1.0000
  C   C34       1.0  0.7955426883615215  0.0992150898618789  0.5956827943313814  1.0000
  C   C35       1.0  0.29554606930403077  0.40078495023906413  0.4043191614113511  1.0000
  C   C36       1.0  0.20445719200814236  0.5992170014935425  0.9043231080072192  1.0000
  C   C37       1.0  0.7513637340196266  0.8053890848513987  0.021721809074186606  1.0000
  C   C38       1.0  0.7486313642355071  0.1946068625496693  0.5217238541017155  1.0000
  C   C39       1.0  0.24863751204942014  0.3053940983541921  0.4782753243517207  1.0000
  C   C40       1.0  0.25137468867712437  0.6946057269830633  0.978279164310756  1.0000
  C   C41       1.0  0.7566171533324065  0.026788206079849903  0.057266264014707205  1.0000
  C   C42       1.0  0.7433817945954855  0.9732122947382321  0.5572702580652023  1.0000
  C   C43       1.0  0.24339133081093675  0.5267899968347861  0.4427361212941464  1.0000
  C   C44       1.0  0.25661211503541637  0.47321182200469275  0.9427363121085367  1.0000
  O   O1        1.0  0.7968323316576756  0.6980122184725701  0.3621477210905868  1.0000
  O   O2        1.0  0.7031717597487769  0.3019881629159896  0.8621515342462874  1.0000
  O   O3        1.0  0.20317622608196462  0.19801371923581707  0.13784622344187625  1.0000
  O   O4        1.0  0.2968196236277548  0.8019769957445606  0.6378465466088841  1.0000
  O   O5        1.0  0.6418667818925171  0.6825797877613056  0.5617223907538432  1.0000
  O   O6        1.0  0.858129734823393  0.31742537402594456  0.06172478338167761  1.0000
  O   O7        1.0  0.35812822907965364  0.18257655593925654  0.9382799725272337  1.0000
  O   O8        1.0  0.14186783751199525  0.8174196666577559  0.4382790999969829  1.0000
  O   O9        1.0  0.7966402439124279  0.5121247392420117  0.56303169576956  1.0000
  O   O10       1.0  0.7033587316810425  0.48788977080165813  0.0630220370903913  1.0000
  O   O11       1.0  0.20335346745660124  0.012118658356811801  0.936966917203762  1.0000
  O   O12       1.0  0.29664136652227296  0.9878738276743704  0.43696731208001455  1.0000
  O   O13       1.0  0.5505996328942755  0.7898319998203006  0.36900008578763294  1.0000
  O   O14       1.0  0.9493959072615608  0.21016181093627745  0.8689983320779364  1.0000
  O   O15       1.0  0.4493930223382064  0.28985043525327814  0.13099775338297803  1.0000
  O   O16       1.0  0.05058930510404738  0.7101496561733426  0.6310026261617951  1.0000
  O   O17       1.0  0.6465216567839603  0.0986745289244553  0.02498853680160811  1.0000
  O   O18       1.0  0.8534820413175124  0.9013260835589564  0.5249907919098717  1.0000
  O   O19       1.0  0.3534819530326487  0.5986753067231659  0.4750123621299452  1.0000
  O   O20       1.0  0.14652042155447725  0.40132640045740686  0.975013878623152  1.0000
  O   O21       1.0  0.9091391458034932  0.051315860369541604  0.05403744348024021  1.0000
  O   O22       1.0  0.5908634655239949  0.9486883927344107  0.5540358422957752  1.0000
  O   O23       1.0  0.0908632173542614  0.55131011066171  0.44596828282475803  1.0000
  O   O24       1.0  0.40913656508760704  0.4486879558954159  0.945965355269401  1.0000
