data_image0
_chemical_formula_structural       NaH7C8SO8
_chemical_formula_sum              "Na1 H7 C8 S1 O8"
_cell_length_a       5.2940770678152935
_cell_length_b       5.557628827858736
_cell_length_c       9.262371570611437
_cell_angle_alpha    104.27796237326199
_cell_angle_beta     90.49685518569146
_cell_angle_gamma    105.20313461997365

_space_group_name_H-M_alt    "P 1"
_space_group_IT_number       1

loop_
  _space_group_symop_operation_xyz
  'x, y, z'

loop_
  _atom_site_type_symbol
  _atom_site_label
  _atom_site_symmetry_multiplicity
  _atom_site_fract_x
  _atom_site_fract_y
  _atom_site_fract_z
  _atom_site_occupancy
  Na  Na1       1.0  0.28306818730511907  0.847532958787127  0.8969277066713416  1.0000
  H   H1        1.0  0.10213473451000968  0.2941338377032139  0.23739185454096656  1.0000
  H   H2        1.0  0.7856707648299377  0.8845930501013016  0.504939497175009  1.0000
  H   H3        1.0  0.5633702869600654  0.5965657899800829  0.03329962244588807  1.0000
  H   H4        1.0  0.43048618381622106  0.5032269357757642  0.6368310628980751  1.0000
  H   H5        1.0  0.3729328999911345  0.20240100683218998  0.4183284096488719  1.0000
  H   H6        1.0  0.5863266896936921  0.4028215488823433  0.7748788937425175  1.0000
  H   H7        1.0  0.7610635647021482  0.6307698761452302  0.7022984778211594  1.0000
  C   C1        1.0  0.8392848688846468  0.43433971074687633  0.12169287344634944  1.0000
  C   C2        1.0  0.9789629621713871  0.4261861806218691  0.24802518039837207  1.0000
  C   C3        1.0  0.9547919890512588  0.5861166705625321  0.38725498491723437  1.0000
  C   C4        1.0  0.797686743945114  0.7558592514611605  0.3972954561786466  1.0000
  C   C5        1.0  0.6586817532910769  0.761545223132515  0.2696823581899536  1.0000
  C   C6        1.0  0.6772705938369229  0.597406996829335  0.1315519826875757  1.0000
  C   C7        1.0  0.09864800036028497  0.5850091423075625  0.5266946946613942  1.0000
  C   C8        1.0  0.4913646778759215  0.9405079892326429  0.27627599347431436  1.0000
  S   S1        1.0  0.8813829617621636  0.2456106956482104  0.9425315718066257  1.0000
  O   O1        1.0  0.10048874147583572  0.4085573596366315  0.8855343979662108  1.0000
  O   O2        1.0  0.9285104552094836  0.010447763572933899  0.9656435751654868  1.0000
  O   O3        1.0  0.6289417920935705  0.19073265773605638  0.8515166598415148  1.0000
  O   O4        1.0  0.049366295634896966  0.7092847360476  0.6518534780553863  1.0000
  O   O5        1.0  0.27389595192050104  0.4586290922118223  0.5121857653114148  1.0000
  O   O6        1.0  0.3775461727232425  0.9633951269033149  0.1657848030962512  1.0000
  O   O7        1.0  0.47866887324251167  0.0760327169306407  0.41568202552261363  1.0000
  O   O8        1.0  0.5784117886908787  0.5554311724096905  0.7332395806918511  1.0000
