data_image0
_chemical_formula_structural       Co3H48C72N30
_chemical_formula_sum              "Co3 H48 C72 N30"
_cell_length_a       9.350970824687689
_cell_length_b       16.487765851716063
_cell_length_c       16.488064675134193
_cell_angle_alpha    116.48670526975259
_cell_angle_beta     100.8936178771377
_cell_angle_gamma    100.90868829775715

_space_group_name_H-M_alt    "P 1"
_space_group_IT_number       1

loop_
  _space_group_symop_operation_xyz
  'x, y, z'

loop_
  _atom_site_type_symbol
  _atom_site_label
  _atom_site_symmetry_multiplicity
  _atom_site_fract_x
  _atom_site_fract_y
  _atom_site_fract_z
  _atom_site_occupancy
  Co  Co1       1.0  0.9999999404012028  0.499999034727196  0.5000001656084336  1.0000
  Co  Co2       1.0  0.5000029708875998  0.500001332506642  3.2365383609067684e-07  1.0000
  Co  Co3       1.0  0.5000033171046638  9.881916298999523e-07  0.5000023879419262  1.0000
  H   H1        1.0  0.9205623664134066  0.28075935900703536  0.42224399425196424  1.0000
  H   H2        1.0  0.4985104949846005  0.5777113956588521  0.85857042826774  1.0000
  H   H3        1.0  0.6394808266945446  0.1414130114554268  0.7191153382176128  1.0000
  H   H4        1.0  0.0794380994676231  0.7192370056986589  0.5777536123461573  1.0000
  H   H5        1.0  0.501488843398313  0.4222892473992061  0.1414283598253476  1.0000
  H   H6        1.0  0.36052322377256735  0.8585883440772051  0.2808866990090236  1.0000
  H   H7        1.0  0.6763940959971109  0.1436110554058629  0.3327097316456787  1.0000
  H   H8        1.0  0.34391196694326703  0.667153297964134  0.8107683328609668  1.0000
  H   H9        1.0  0.5322347104229124  0.18908537526625926  0.8561636683950625  1.0000
  H   H10       1.0  0.32360345931292755  0.856386022238972  0.667287880964146  1.0000
  H   H11       1.0  0.656092441148388  0.3328487716891786  0.18923042233758744  1.0000
  H   H12       1.0  0.4677678940659433  0.8109152668256812  0.143839108468029  1.0000
  H   H13       1.0  0.4292424787491456  0.17497544651167368  0.2849467004608642  1.0000
  H   H14       1.0  0.14437077622962144  0.7148696492781995  0.8897136383003785  1.0000
  H   H15       1.0  0.2537554032630069  0.1100312852567882  0.8247868450289036  1.0000
  H   H16       1.0  0.5707568775517089  0.8250230560099681  0.7150559864966796  1.0000
  H   H17       1.0  0.8556321864061757  0.28513170747132927  0.11028403733217118  1.0000
  H   H18       1.0  0.7462460932128676  0.8899714962618359  0.1752155545862592  1.0000
  H   H19       1.0  0.4391945267415024  0.34489537341481474  0.33119153558037345  1.0000
  H   H20       1.0  0.10797711116630639  0.6687967336594198  0.013544168000897978  1.0000
  H   H21       1.0  0.09374287198824045  0.9863882455794554  0.6548232720636664  1.0000
  H   H22       1.0  0.5608019374287069  0.6551017020464586  0.668813237050884  1.0000
  H   H23       1.0  0.8920254757528736  0.3312060493268802  0.9864534971961024  1.0000
  H   H24       1.0  0.9062564463871535  0.0136145358673616  0.34517889397476154  1.0000
  H   H25       1.0  0.41951764263314567  0.6344522817709403  0.38435005289829155  1.0000
  H   H26       1.0  0.03580055318816012  0.6158051643907426  0.25033928422873686  1.0000
  H   H27       1.0  0.7851910007695649  0.7498871577685335  0.3654267722704745  1.0000
  H   H28       1.0  0.5804849618557028  0.365548360321  0.6156527239648001  1.0000
  H   H29       1.0  0.9641919134504136  0.3841926261214326  0.7496581008160633  1.0000
  H   H30       1.0  0.2148068921574904  0.2501127723857408  0.6345709362566084  1.0000
  H   H31       1.0  0.34514057082455446  0.7783382704147073  0.40399584896238855  1.0000
  H   H32       1.0  0.9419643509469395  0.5961910153013509  0.3746782994936952  1.0000
  H   H33       1.0  0.5670588199401009  0.6254317124221699  0.22160446288532398  1.0000
  H   H34       1.0  0.6548645883520621  0.22166094640712689  0.5960041399089138  1.0000
  H   H35       1.0  0.0580310069516159  0.4038082013763288  0.6253200318814721  1.0000
  H   H36       1.0  0.4329412321247119  0.37457035726649934  0.778393218758936  1.0000
  H   H37       1.0  0.7603449992835678  0.9606382549144428  0.6109931426405097  1.0000
  H   H38       1.0  0.148892033646014  0.38850118648690574  0.34939849354031344  1.0000
  H   H39       1.0  0.7993199975776972  0.6505734681997236  0.03914791971476435  1.0000
  H   H40       1.0  0.23966053578379842  0.039359535849591495  0.3890062502655313  1.0000
  H   H41       1.0  0.8511065915774052  0.6114980304774491  0.650599581799142  1.0000
  H   H42       1.0  0.20067860816059374  0.34942788769030386  0.9608517143675857  1.0000
  H   H43       1.0  0.8554037136251934  0.8241840009759469  0.595138289018351  1.0000
  H   H44       1.0  0.2593706198714755  0.4041822113807997  0.22849497732115515  1.0000
  H   H45       1.0  0.030682691011101174  0.7714993954915456  0.17555388268252153  1.0000
  H   H46       1.0  0.14460106948654777  0.1758166417247082  0.40486290221903  1.0000
  H   H47       1.0  0.7406250754699711  0.5958198576273473  0.7715040563720807  1.0000
  H   H48       1.0  0.9693181117904144  0.22849982100770214  0.8244462454361214  1.0000
  C   C1        1.0  0.8107952712705141  0.2908004431466154  0.3998543802670937  1.0000
  C   C2        1.0  0.41114620796164286  0.6001269484017726  0.8909683025339491  1.0000
  C   C3        1.0  0.5196572728185203  0.1090164969062428  0.709042934875207  1.0000
  C   C4        1.0  0.18919974883689153  0.7091959208426531  0.6001444615916329  1.0000
  C   C5        1.0  0.5888567546741541  0.39987440834775617  0.10902937309860052  1.0000
  C   C6        1.0  0.48034279699009375  0.8909834320670387  0.29095925203433387  1.0000
  C   C7        1.0  0.6743574027879049  0.21515987748480817  0.349591722815319  1.0000
  C   C8        1.0  0.3249822386426331  0.650356710141736  0.8655018040917  1.0000
  C   C9        1.0  0.4587185582552066  0.13438762825379064  0.7846284779411052  1.0000
  C   C10       1.0  0.32564413213583526  0.7848386256455556  0.6504093785165143  1.0000
  C   C11       1.0  0.6750210807470437  0.349645359833616  0.13449562151685515  1.0000
  C   C12       1.0  0.5412829575316705  0.8656130141601893  0.21537296933198047  1.0000
  C   C13       1.0  0.537598052825352  0.23268331576705487  0.3230144863697434  1.0000
  C   C14       1.0  0.21470203092758305  0.6768970896359717  0.9094966149036666  1.0000
  C   C15       1.0  0.3044025719275112  0.09032643882515859  0.767085735067589  1.0000
  C   C16       1.0  0.4623995014398902  0.7673137608039582  0.6769867646449869  1.0000
  C   C17       1.0  0.7852987344708638  0.3231064063253655  0.09050117309340776  1.0000
  C   C18       1.0  0.6956000336061406  0.9096742043406107  0.23291340339059713  1.0000
  C   C19       1.0  0.5417374114810725  0.3257738086840049  0.3478756431094681  1.0000
  C   C20       1.0  0.19391609425610304  0.6521164641559238  0.9777988988728128  1.0000
  C   C21       1.0  0.21547179250526227  0.0221437974162626  0.673991070344748  1.0000
  C   C22       1.0  0.4582601232990413  0.6742254068126811  0.6521271666481496  1.0000
  C   C23       1.0  0.806084689930934  0.34788489216385443  0.022199755984637207  1.0000
  C   C24       1.0  0.7845347733310888  0.977860410339673  0.3260125091775165  1.0000
  C   C25       1.0  0.6820922836320377  0.39818905184382186  0.3984541477626991  1.0000
  C   C26       1.0  0.28368795025399146  0.6015806153233355  0.9997468944698229  1.0000
  C   C27       1.0  0.28352610768671843  0.0003114345040558  0.6016262142933472  1.0000
  C   C28       1.0  0.31790525114808316  0.601810163652864  0.6015486619949186  1.0000
  C   C29       1.0  0.7163135667518076  0.3984200283434447  0.0002503079975468898  1.0000
  C   C30       1.0  0.7164772099616313  0.9996906336815812  0.3983772753233694  1.0000
  C   C31       1.0  0.7025601424818786  0.49773893882498743  0.4321578370064785  1.0000
  C   C32       1.0  0.27036551789733915  0.5678327760313095  0.06557109832733224  1.0000
  C   C33       1.0  0.20454846930252296  0.9345360987598638  0.5020935441001342  1.0000
  C   C34       1.0  0.29743667896460824  0.5022588503990235  0.5678448663983319  1.0000
  C   C35       1.0  0.7296301774441002  0.43216929297683027  0.9344279353659034  1.0000
  C   C36       1.0  0.7954508882172603  0.0654624050145785  0.49790489805169363  1.0000
  C   C37       1.0  0.6951824358094569  0.6364884324007107  0.475552475523287  1.0000
  C   C38       1.0  0.21937670079962862  0.5242284861528432  0.16079144308123722  1.0000
  C   C39       1.0  0.05844914331544966  0.8393206809816646  0.36331631622628174  1.0000
  C   C40       1.0  0.3048183854323908  0.3635086440990348  0.5244497322573595  1.0000
  C   C41       1.0  0.7806208164108172  0.47577287023819537  0.8392062550102894  1.0000
  C   C42       1.0  0.9415531051160567  0.16067924860033858  0.6366842850575483  1.0000
  C   C43       1.0  0.6441859173068636  0.7178879240232378  0.4882223285752759  1.0000
  C   C44       1.0  0.15575175555985507  0.5114954204648895  0.22951964787224452  1.0000
  C   C45       1.0  0.9260830323310144  0.7705880980837634  0.28191622462330906  1.0000
  C   C46       1.0  0.35581593522636007  0.2821155700053239  0.5117822466191485  1.0000
  C   C47       1.0  0.8442414047530844  0.48850593506666223  0.7704800086690755  1.0000
  C   C48       1.0  0.07391957268023222  0.2294125445450916  0.7180847330373299  1.0000
  C   C49       1.0  0.49795893083472004  0.7058330620743761  0.43489773990837943  1.0000
  C   C50       1.0  0.06334465157068084  0.565067417282947  0.27102523001696716  1.0000
  C   C51       1.0  0.7921030531128822  0.7291223950878776  0.29401711796753466  1.0000
  C   C52       1.0  0.5020455139634733  0.2941647274009611  0.5651057810150065  1.0000
  C   C53       1.0  0.9366532413563744  0.43493251287132745  0.7289724785101158  1.0000
  C   C54       1.0  0.2078977307258896  0.27087896087396507  0.7059827496915434  1.0000
  C   C55       1.0  0.4564893871907286  0.7858756732826676  0.44654569897110014  1.0000
  C   C56       1.0  0.010402649269693089  0.5534718420640772  0.33950747207187254  1.0000
  C   C57       1.0  0.6706525689435522  0.6605957649446166  0.21401661063408273  1.0000
  C   C58       1.0  0.5435117915015298  0.21412211715878732  0.5534538331822817  1.0000
  C   C59       1.0  0.9895937975049804  0.44652737447052715  0.6604915824924762  1.0000
  C   C60       1.0  0.329342413412526  0.33940487814880527  0.7859811039047033  1.0000
  C   C61       1.0  0.6882169821715535  0.8872109878244602  0.5611724219088999  1.0000
  C   C62       1.0  0.12682109646819842  0.4384578217068978  0.325876545223217  1.0000
  C   C63       1.0  0.8007571200075533  0.6741400543040187  0.11259009776097882  1.0000
  C   C64       1.0  0.31178673120093237  0.11278751573565418  0.43882770019803274  1.0000
  C   C65       1.0  0.8731749742415926  0.5615428207065348  0.6741237117072105  1.0000
  C   C66       1.0  0.19924039702875976  0.3258613019080557  0.8874082067313654  1.0000
  C   C67       1.0  0.7404345959344028  0.8115138553215145  0.5529936024759508  1.0000
  C   C68       1.0  0.18695560032290354  0.4465378939057984  0.2582139136516873  1.0000
  C   C69       1.0  0.9285628524936769  0.7418197486008609  0.18826353725580697  1.0000
  C   C70       1.0  0.2595644237942309  0.18848179576451676  0.4470053501594365  1.0000
  C   C71       1.0  0.8130408468000283  0.5534613229867561  0.7417839281110334  1.0000
  C   C72       1.0  0.07144119849583319  0.2581816074686926  0.8117366807683768  1.0000
  N   N1        1.0  0.816365972222627  0.381224079877171  0.4241946540828678  1.0000
  N   N2        1.0  0.3922570470563969  0.5758305913667173  0.9570869392099086  1.0000
  N   N3        1.0  0.4348403446104924  0.042947758084068303  0.6186274181012197  1.0000
  N   N4        1.0  0.18363593841772996  0.6187729970164212  0.5758064576845215  1.0000
  N   N5        1.0  0.6077422913265239  0.42417005169134114  0.042911848883178984  1.0000
  N   N6        1.0  0.5651626166322429  0.9570535972336955  0.3813751087378705  1.0000
  N   N7        1.0  0.8472438164894028  0.5576279943610841  0.4863616011229723  1.0000
  N   N8        1.0  0.36076632905957234  0.5135635562677479  0.07121864983009361  1.0000
  N   N9        1.0  0.289461995329134  0.9287978789405998  0.44224458734330346  1.0000
  N   N10       1.0  0.1527580938026887  0.4423690821745652  0.513640723446045  1.0000
  N   N11       1.0  0.6392344551274647  0.48643780005203746  0.9287800050273562  1.0000
  N   N12       1.0  0.7105391633555983  0.07120204988961379  0.5577583227554186  1.0000
  N   N13       1.0  0.8436375245720312  0.6470455946114271  0.5153030755420432  1.0000
  N   N14       1.0  0.3280706188028333  0.4845021576260535  0.13160568180759927  1.0000
  N   N15       1.0  0.19646841082375494  0.8684276444298861  0.35282589173766615  1.0000
  N   N16       1.0  0.1563640101775761  0.35295290833996523  0.4846986321906004  1.0000
  N   N17       1.0  0.6719276305298365  0.5154984853961009  0.8683929894971173  1.0000
  N   N18       1.0  0.8035349263097231  0.131572284830078  0.647176039136163  1.0000
  N   N19       1.0  0.6033272096269968  0.5443339514334012  0.4229264750289303  1.0000
  N   N20       1.0  0.18027115001243735  0.576974914830309  0.12134630718237815  1.0000
  N   N21       1.0  0.058642063021402215  0.8788129731836705  0.45544586161358325  1.0000
  N   N22       1.0  0.39667359178145023  0.4556652636340814  0.5770785042962387  1.0000
  N   N23       1.0  0.8197281887187415  0.42302572858569226  0.8786512681090743  1.0000
  N   N24       1.0  0.9413598093452152  0.12118838227715399  0.5445559420363182  1.0000
  N   N25       1.0  0.549174050091004  0.8757412046863988  0.5083600199269397  1.0000
  N   N26       1.0  0.04105185992484188  0.4915096516675063  0.3674214628269255  1.0000
  N   N27       1.0  0.6734212599117697  0.6326128986985398  0.12414782057943091  1.0000
  N   N28       1.0  0.4508310896004841  0.12426015106110809  0.49164152768724995  1.0000
  N   N29       1.0  0.9589453193203212  0.5084888518561499  0.6325773521489779  1.0000
  N   N30       1.0  0.32657697028403726  0.36738988360723107  0.8758511966665382  1.0000
