data_image0
_chemical_formula_structural       Ag4H56C32N8O16
_chemical_formula_sum              "Ag4 H56 C32 N8 O16"
_cell_length_a       8.44655638176606
_cell_length_b       9.678045437021476
_cell_length_c       14.025000452449797
_cell_angle_alpha    90.00020467476973
_cell_angle_beta     98.28742190378983
_cell_angle_gamma    89.99984097571662

_space_group_name_H-M_alt    "P 1"
_space_group_IT_number       1

loop_
  _space_group_symop_operation_xyz
  'x, y, z'

loop_
  _atom_site_type_symbol
  _atom_site_label
  _atom_site_symmetry_multiplicity
  _atom_site_fract_x
  _atom_site_fract_y
  _atom_site_fract_z
  _atom_site_occupancy
  Ag  Ag1       1.0  0.8917258362670779  0.4040661530832992  0.8350619980645106  1.0000
  Ag  Ag2       1.0  0.6082694359824999  0.9040657730367626  0.6649389767838798  1.0000
  Ag  Ag3       1.0  0.10827365109462053  0.5959346778679944  0.16493714452707314  1.0000
  Ag  Ag4       1.0  0.3917276402568106  0.09593402465599611  0.3350620882256763  1.0000
  H   H1        1.0  0.3628244805819279  0.8938561663963753  0.9848096482299198  1.0000
  H   H2        1.0  0.1371759888172264  0.3938575631582566  0.5151897156833698  1.0000
  H   H3        1.0  0.6371774117946032  0.10614156474938599  0.015188284411593094  1.0000
  H   H4        1.0  0.862822283813081  0.6061432677998083  0.4848114568265132  1.0000
  H   H5        1.0  0.4433334552975055  0.9633326565396985  0.09654183187614507  1.0000
  H   H6        1.0  0.05666925980433039  0.4633352413695204  0.40345843037952284  1.0000
  H   H7        1.0  0.5566660442888536  0.03666920767435041  0.9034558857716066  1.0000
  H   H8        1.0  0.9433302153299794  0.5366666228519961  0.5965421371581884  1.0000
  H   H9        1.0  0.6250737841803798  0.7899949455552858  0.963862252519192  1.0000
  H   H10       1.0  0.8749218194940838  0.29000103984483866  0.5361349070843673  1.0000
  H   H11       1.0  0.3749268812441784  0.20999865253502756  0.036139134981020504  1.0000
  H   H12       1.0  0.12507407257480452  0.7100018576448194  0.4638646254844688  1.0000
  H   H13       1.0  0.7165876273093162  0.8643050366448933  0.0731807202368984  1.0000
  H   H14       1.0  0.7834138351808805  0.3643071920056968  0.4268133960817623  1.0000
  H   H15       1.0  0.28341425283573335  0.13569682757053408  0.926818637354181  1.0000
  H   H16       1.0  0.21658445578437122  0.6356967387462334  0.5731856390140777  1.0000
  H   H17       1.0  0.5364999899155904  0.7258260865665276  0.16469041780906932  1.0000
  H   H18       1.0  0.9635041939328702  0.2258231935863506  0.3353078813371297  1.0000
  H   H19       1.0  0.4635030621724924  0.2741737111222236  0.8353118971688575  1.0000
  H   H20       1.0  0.0364916981387395  0.7741776373703358  0.6646916512294184  1.0000
  H   H21       1.0  0.43971583143996174  0.6557074245481688  0.0563221202681561  1.0000
  H   H22       1.0  0.0602828972481149  0.15570607734624534  0.44367845494332414  1.0000
  H   H23       1.0  0.5602860120297423  0.3442923731454854  0.9436815121555784  1.0000
  H   H24       1.0  0.9397153937212295  0.8442947536062206  0.5563205801490839  1.0000
  H   H25       1.0  0.7753908113579443  0.7150728698622614  0.2712830765442718  1.0000
  H   H26       1.0  0.7246074494586168  0.21506793511455405  0.22871109890204624  1.0000
  H   H27       1.0  0.22460868211404525  0.2849300276201348  0.7287153535771083  1.0000
  H   H28       1.0  0.27539205624484  0.7849308292981688  0.7712859062697746  1.0000
  H   H29       1.0  0.846846362526769  0.5557587264710548  0.32365975242178996  1.0000
  H   H30       1.0  0.653152287920939  0.0557557587600002  0.17633763219853194  1.0000
  H   H31       1.0  0.1531566956743333  0.44424107121582795  0.6763418500836522  1.0000
  H   H32       1.0  0.34684599693947854  0.9442419723948772  0.8236621153629287  1.0000
  H   H33       1.0  0.6372105837361348  0.5795271135803048  0.2865764847481316  1.0000
  H   H34       1.0  0.862788010136086  0.07952279633735772  0.21342024009139496  1.0000
  H   H35       1.0  0.36279251114439864  0.420471650828901  0.7134208429212165  1.0000
  H   H36       1.0  0.13721026249967141  0.9204739015547646  0.786580932413898  1.0000
  H   H37       1.0  0.9535015425644957  0.39679649328378014  0.22618902112482434  1.0000
  H   H38       1.0  0.5464949875252927  0.8968009644942115  0.273811861956375  1.0000
  H   H39       1.0  0.046499128974439016  0.6031960715381857  0.7738116539017527  1.0000
  H   H40       1.0  0.45349851175751615  0.1032029662642771  0.7261874556152534  1.0000
  H   H41       1.0  0.9433360356977261  0.1628159559581093  0.052244917962234204  1.0000
  H   H42       1.0  0.5566599273623396  0.6628192433735194  0.4477539139516012  1.0000
  H   H43       1.0  0.05665746359053261  0.8371838417344364  0.9477543996048112  1.0000
  H   H44       1.0  0.4433431552880833  0.33718262083887396  0.5522448386661694  1.0000
  H   H45       1.0  0.09527894533592023  0.24289122539752125  0.1361338034974224  1.0000
  H   H46       1.0  0.4047171606087829  0.7428952954102571  0.36386675000336777  1.0000
  H   H47       1.0  0.9047157503446996  0.757108572293852  0.8638656215687989  1.0000
  H   H48       1.0  0.5952835109233376  0.2571024357441373  0.6361339250289362  1.0000
  H   H49       1.0  0.0844274450940148  0.271135245343963  0.008610985359148102  1.0000
  H   H50       1.0  0.4155733780373155  0.7711399542469124  0.4913893482819915  1.0000
  H   H51       1.0  0.9155708458807794  0.72886145254256  0.991388049728677  1.0000
  H   H52       1.0  0.5844296923925328  0.22885777690326853  0.5086108292761722  1.0000
  H   H53       1.0  0.6958382935840959  0.5420932012095463  0.03246694892522583  1.0000
  H   H54       1.0  0.8041591965091328  0.04209448526742679  0.4675302979049151  1.0000
  H   H55       1.0  0.30416116932691756  0.45790659648272936  0.9675350435551737  1.0000
  H   H56       1.0  0.19583670167413206  0.957907378953877  0.5324685221902854  1.0000
  C   C1        1.0  0.47435996736033564  0.9354518030808879  0.02517963081471923  1.0000
  C   C2        1.0  0.025638041825686707  0.43545173584818286  0.4748194271585006  1.0000
  C   C3        1.0  0.5256383236090018  0.0645490278715783  0.9748194042776889  1.0000
  C   C4        1.0  0.9743590405280003  0.5645470285762214  0.5251809253774198  1.0000
  C   C5        1.0  0.6025718169729474  0.8231314752488572  0.035965271342725216  1.0000
  C   C6        1.0  0.897428539384606  0.323132514273702  0.4640307836134951  1.0000
  C   C7        1.0  0.39742886066946437  0.176868322436647  0.964034691219382  1.0000
  C   C8        1.0  0.10256856130539659  0.6768683166780746  0.5359674315072454  1.0000
  C   C9        1.0  0.5544344936327334  0.6975536361031942  0.09144098026150262  1.0000
  C   C10       1.0  0.9455673597730224  0.19755220214233296  0.4085584661544886  1.0000
  C   C11       1.0  0.4455709390154042  0.3024451283204499  0.9085629746586152  1.0000
  C   C12       1.0  0.0544309311976789  0.8024475955436471  0.5914405689367684  1.0000
  C   C13       1.0  0.7572333529209134  0.6027061898551124  0.2693676579453665  1.0000
  C   C14       1.0  0.7427675725995826  0.1027022542211142  0.2306293332796656  1.0000
  C   C15       1.0  0.24277091389584632  0.3972956743598387  0.730632627116556  1.0000
  C   C16       1.0  0.2572319086504676  0.8972975434655625  0.7693705217832588  1.0000
  C   C17       1.0  0.7732427769554064  0.5465385837502481  0.17209677353856284  1.0000
  C   C18       1.0  0.7267582905893377  0.04654036083523751  0.32790080564482343  1.0000
  C   C19       1.0  0.22676266180983623  0.45345708087207737  0.8279064689056312  1.0000
  C   C20       1.0  0.27323760148364334  0.9534594368549637  0.6720987269205736  1.0000
  C   C21       1.0  0.8927276593414677  0.44561823843549325  0.1609415040871696  1.0000
  C   C22       1.0  0.6072711408815223  0.9456187691994131  0.3390589897506189  1.0000
  C   C23       1.0  0.10727060717854901  0.554380525991462  0.8390603808929029  1.0000
  C   C24       1.0  0.39272952453349325  0.05438206175630002  0.6609423977576088  1.0000
  C   C25       1.0  0.9032185952602916  0.3776848532443324  0.07121550017225793  1.0000
  C   C26       1.0  0.5967815927525847  0.8776900106743992  0.428783525620304  1.0000
  C   C27       1.0  0.09678087988083209  0.6223118446447484  0.9287850673597264  1.0000
  C   C28       1.0  0.40321670432704343  0.12231288680916921  0.5712147970019005  1.0000
  C   C29       1.0  0.0148887205346355  0.25727421574037374  0.0683257900836196  1.0000
  C   C30       1.0  0.48510975248612465  0.7572774107650986  0.43167358535585987  1.0000
  C   C31       1.0  0.9851083740464336  0.7427235154138074  0.9316731375061736  1.0000
  C   C32       1.0  0.514890925157644  0.2427213536539199  0.5683263772050964  1.0000
  N   N1        1.0  0.6740013098985075  0.58888383229462  0.09571643702441433  1.0000
  N   N2        1.0  0.8259984312256137  0.08888679982268849  0.40428326595566233  1.0000
  N   N3        1.0  0.32600054579586407  0.41111699866178963  0.9042857704554877  1.0000
  N   N4        1.0  0.17399744861588567  0.9111171309371857  0.595717691559301  1.0000
  N   N5        1.0  0.6197984071696754  0.6111028319702854  0.7235902508936221  1.0000
  N   N6        1.0  0.880200042797739  0.11110086752614019  0.7764088645229208  1.0000
  N   N7        1.0  0.3802010863036713  0.38889903224562516  0.276408179226614  1.0000
  N   N8        1.0  0.1198102059848978  0.8888978968834848  0.22359195803144877  1.0000
  O   O1        1.0  0.8165692127809904  0.41463800628207537  0.9931653152631058  1.0000
  O   O2        1.0  0.6834356271743262  0.9146386851906456  0.5068336931271133  1.0000
  O   O3        1.0  0.18343147097306914  0.5853628246680457  0.006833934827653807  1.0000
  O   O4        1.0  0.3165614551752682  0.08536317903321589  0.49316665941223903  1.0000
  O   O5        1.0  0.4826378968904946  0.6630369706692318  0.6974555433355931  1.0000
  O   O6        1.0  0.0173607824108757  0.16303602480714827  0.8025438063358621  1.0000
  O   O7        1.0  0.5173615904712036  0.33696386028206154  0.3025435992559906  1.0000
  O   O8        1.0  0.9826506199798432  0.8369575732819358  0.19746211101939085  1.0000
  O   O9        1.0  0.7445307121055932  0.6831430392432835  0.718317098279286  1.0000
  O   O10       1.0  0.7554675600751395  0.18314347212330517  0.7816807519040837  1.0000
  O   O11       1.0  0.2554687752547479  0.31685882497449575  0.2816820443134418  1.0000
  O   O12       1.0  0.24454753539070134  0.8168676914607929  0.2183133759358213  1.0000
  O   O13       1.0  0.6321374609917996  0.48794166699816793  0.7550621167499401  1.0000
  O   O14       1.0  0.8678600011574319  0.9879400398496897  0.7449371216253127  1.0000
  O   O15       1.0  0.36786202025552933  0.5120601972214799  0.24493773831527932  1.0000
  O   O16       1.0  0.13214186676432152  0.012059757836503603  0.2550636609084549  1.0000
