data_image0
_chemical_formula_structural       Nd2H40C36N14O24
_chemical_formula_sum              "Nd2 H40 C36 N14 O24"
_cell_length_a       11.08815726857008
_cell_length_b       10.864909840360996
_cell_length_c       14.051468903010829
_cell_angle_alpha    82.37498136864266
_cell_angle_beta     67.28302712819105
_cell_angle_gamma    64.59157226440453

_space_group_name_H-M_alt    "P 1"
_space_group_IT_number       1

loop_
  _space_group_symop_operation_xyz
  'x, y, z'

loop_
  _atom_site_type_symbol
  _atom_site_label
  _atom_site_symmetry_multiplicity
  _atom_site_fract_x
  _atom_site_fract_y
  _atom_site_fract_z
  _atom_site_occupancy
  Nd  Nd1       1.0  0.2807740646088135  0.3874506179156755  0.3668799271842713  1.0000
  Nd  Nd2       1.0  0.719225813284048  0.6125503754351627  0.6331215627537146  1.0000
  H   H1        1.0  0.8163978697978324  0.14951750219213983  0.18787427914156032  1.0000
  H   H2        1.0  0.18360567985794757  0.850475312382095  0.812128292684768  1.0000
  H   H3        1.0  0.0712993781728031  0.042706164153031495  0.08434410602231418  1.0000
  H   H4        1.0  0.9287039271019775  0.9572959378748183  0.9156548335488206  1.0000
  H   H5        1.0  0.12535452531056987  0.2122376450501804  0.268334682172842  1.0000
  H   H6        1.0  0.8746456507976462  0.7877561278208915  0.731669521161791  1.0000
  H   H7        1.0  0.41063073278730394  0.8024164245880812  0.8233562291697181  1.0000
  H   H8        1.0  0.5893697065082009  0.19758766084162  0.17664480719260905  1.0000
  H   H9        1.0  0.3688450518490712  0.015789896817985  0.2709827330960976  1.0000
  H   H10       1.0  0.6311543753020956  0.9842121495569601  0.7290166590402118  1.0000
  H   H11       1.0  0.3473045588160985  0.8262664388373011  0.2828925901205465  1.0000
  H   H12       1.0  0.6526937933796333  0.17373146804320072  0.7171082176289825  1.0000
  H   H13       1.0  0.18931125780599709  0.8176116793740319  0.38060228928542716  1.0000
  H   H14       1.0  0.8106871990662013  0.18239035029886003  0.6193973944072295  1.0000
  H   H15       1.0  0.3538941059712145  0.7455820496228609  0.4011650372406234  1.0000
  H   H16       1.0  0.646105213511241  0.25441586280440737  0.5988361926127863  1.0000
  H   H17       1.0  0.23568547951427354  0.9666486115766307  0.5652198569435639  1.0000
  H   H18       1.0  0.7643167567895618  0.03334937326734182  0.4347790709203278  1.0000
  H   H19       1.0  0.10050627376106992  0.9364229985885617  0.5462962645892872  1.0000
  H   H20       1.0  0.899493102547993  0.0635769919678282  0.4537033327453343  1.0000
  H   H21       1.0  0.0996508633837792  0.1037434552031939  0.5309582679968654  1.0000
  H   H22       1.0  0.9003509102093902  0.8962555380437466  0.46904141670627525  1.0000
  H   H23       1.0  0.6811044909239712  0.7543462491982211  0.969380337000302  1.0000
  H   H24       1.0  0.31889835762462576  0.24565688354316248  0.030617932089612113  1.0000
  H   H25       1.0  0.673759829632708  0.4097897488926421  0.4514518641691222  1.0000
  H   H26       1.0  0.32624332012349555  0.590206174524255  0.548548404657211  1.0000
  H   H27       1.0  0.04975189402242825  0.33923380384834445  0.6402857090771402  1.0000
  H   H28       1.0  0.9502426488452899  0.6607661701295058  0.3597110640778493  1.0000
  H   H29       1.0  0.4229142082124752  0.1660800057088565  0.606784708219301  1.0000
  H   H30       1.0  0.5770808272622927  0.8339209375975972  0.3932160985197513  1.0000
  H   H31       1.0  0.3940836596716011  0.01821632018474161  0.6639876800784987  1.0000
  H   H32       1.0  0.6059137342141553  0.9817816146148389  0.33601056458645917  1.0000
  H   H33       1.0  0.3768803743013295  0.14477128023165872  0.7434158346793818  1.0000
  H   H34       1.0  0.6231122130472215  0.8552286045656814  0.25658508988946943  1.0000
  H   H35       1.0  0.9960902439711178  0.23906591796026794  0.784173716803714  1.0000
  H   H36       1.0  0.0039061497392863503  0.7609300224056953  0.2158200289942797  1.0000
  H   H37       1.0  0.12025514973974075  0.1826851247911847  0.8493822311313506  1.0000
  H   H38       1.0  0.8797392406016442  0.8173086817309922  0.15061515761860272  1.0000
  H   H39       1.0  0.1228665987405932  0.06404079161701762  0.7722947459164754  1.0000
  H   H40       1.0  0.8771293352513893  0.9359561683072002  0.22769904306053226  1.0000
  C   C1        1.0  0.9380149214858097  0.3764159978550907  0.4384211419706004  1.0000
  C   C2        1.0  0.06198587285165757  0.6235829452239585  0.5615809752695851  1.0000
  C   C3        1.0  0.8406239540343634  0.19577952741483534  0.23857887495906022  1.0000
  C   C4        1.0  0.15937428151591587  0.8042142120521377  0.761425911488274  1.0000
  C   C5        1.0  0.015174794078937666  0.22898568171830655  0.2846289071304041  1.0000
  C   C6        1.0  0.9848301257553871  0.7710040407153187  0.7153756761395794  1.0000
  C   C7        1.0  0.9037010399954896  0.3142328686516791  0.36812592374755565  1.0000
  C   C8        1.0  0.09630056012562693  0.6857598790526183  0.6318793721721786  1.0000
  C   C9        1.0  0.9832347987097095  0.16696734963372964  0.22186685039811482  1.0000
  C   C10       1.0  0.016765828140194092  0.8330253702132351  0.7781394507382017  1.0000
  C   C11       1.0  0.3276549131161059  0.9364121623732733  0.05605137936447591  1.0000
  C   C12       1.0  0.6723432874061147  0.0635991101320954  0.9439475267139125  1.0000
  C   C13       1.0  0.3083706328003188  0.04691142668428941  0.3533861528737247  1.0000
  C   C14       1.0  0.6916282329482045  0.9530875276117923  0.6466136928382437  1.0000
  C   C15       1.0  0.28778270929712585  0.8304827340343124  0.3661691032101471  1.0000
  C   C16       1.0  0.7122162132779976  0.16951829839089072  0.6338291099830327  1.0000
  C   C17       1.0  0.1672601240669138  0.9939134611273843  0.5195172881520234  1.0000
  C   C18       1.0  0.8327416525184929  0.0060855432748426015  0.48048168289088256  1.0000
  C   C19       1.0  0.5769187691480299  0.31198783442318506  0.34346231451524983  1.0000
  C   C20       1.0  0.42308636901596935  0.68801016706108  0.6565378796602842  1.0000
  C   C21       1.0  0.7297702738853644  0.2838467077709126  0.32115480878435665  1.0000
  C   C22       1.0  0.27023225464933637  0.7161440342827275  0.6788482597966516  1.0000
  C   C23       1.0  0.473071974742652  0.8785901459715432  0.05779218801151129  1.0000
  C   C24       1.0  0.5269294408163105  0.12141397847076262  0.942207129474006  1.0000
  C   C25       1.0  0.5601315577428921  0.7702617457025414  0.8862670942688023  1.0000
  C   C26       1.0  0.4398713446400677  0.2297434540126773  0.11373025596255806  1.0000
  C   C27       1.0  0.3024254293169406  0.9012531640784047  0.9707130855563473  1.0000
  C   C28       1.0  0.6975772167160271  0.0987612784692971  0.02928348706074495  1.0000
  C   C29       1.0  0.7608326401166892  0.3420605760370705  0.386773154496069  1.0000
  C   C30       1.0  0.23916794486783727  0.6579301214571914  0.6132312108578686  1.0000
  C   C31       1.0  0.16640461806866108  0.29254639483403366  0.6221448021850545  1.0000
  C   C32       1.0  0.8335937460960637  0.7074515566676001  0.377853150923542  1.0000
  C   C33       1.0  0.3599625743319165  0.12823944832339151  0.6748803404970473  1.0000
  C   C34       1.0  0.6400276635823943  0.8717634784466669  0.3251210051652078  1.0000
  C   C35       1.0  0.1055349686529254  0.17051579983191092  0.7787297612906341  1.0000
  C   C36       1.0  0.8944590247811203  0.829481126688208  0.22126461079908208  1.0000
  N   N1        1.0  0.09274226146712998  0.07382174831402472  0.14082630983424588  1.0000
  N   N2        1.0  0.9072604195939035  0.9261751611952747  0.8591761431517991  1.0000
  N   N3        1.0  0.22545838052959516  0.0217375469761691  0.13449301318074444  1.0000
  N   N4        1.0  0.7745443513735493  0.9782614183516926  0.8655092346069746  1.0000
  N   N5        1.0  0.4219680073138362  0.8211925254533768  0.8903388172357861  1.0000
  N   N6        1.0  0.5780339666555249  0.17881467991250596  0.10966076033430738  1.0000
  N   N7        1.0  0.25330786425734425  0.9612528647178209  0.4100097400402943  1.0000
  N   N8        1.0  0.7466920196199992  0.038748150943583005  0.5899903225772289  1.0000
  N   N9        1.0  0.30018329964624263  0.5948085305351467  0.2023202693767061  1.0000
  N   N10       1.0  0.6998210117883801  0.4051955882368929  0.7976817417409235  1.0000
  N   N11       1.0  0.5781533885146715  0.7936666020370852  0.9726229129399395  1.0000
  N   N12       1.0  0.4218494600339254  0.2063365307042986  0.027375356149974595  1.0000
  N   N13       1.0  0.20885839045971719  0.2016672806097262  0.689345633607523  1.0000
  N   N14       1.0  0.7911375255787831  0.7983296123827943  0.31065243733087994  1.0000
  O   O1        1.0  0.8532547826947267  0.3999579353468832  0.5323447985620289  1.0000
  O   O2        1.0  0.14674417875352216  0.6000451082757436  0.4676560640737575  1.0000
  O   O3        1.0  0.04917365761026097  0.4002416553328487  0.3990856861710837  1.0000
  O   O4        1.0  0.9508257695409055  0.5997603910420894  0.6009137059652259  1.0000
  O   O5        1.0  0.2916331157280966  0.15406050360329715  0.3911218226129946  1.0000
  O   O6        1.0  0.7083634035784243  0.8459415038207894  0.6088777305321357  1.0000
  O   O7        1.0  0.5504004214243423  0.2368231655902235  0.2970009145267836  1.0000
  O   O8        1.0  0.44960044170870334  0.7631779002390787  0.7029967155536878  1.0000
  O   O9        1.0  0.5084374044161776  0.9009883411667661  0.12491778248587337  1.0000
  O   O10       1.0  0.49156390048182164  0.0990116381725841  0.8750840863769792  1.0000
  O   O11       1.0  0.18031641316955652  0.9437033032954292  0.9666774866402007  1.0000
  O   O12       1.0  0.8196873646454464  0.05631735687583729  0.033316037844883746  1.0000
  O   O13       1.0  0.47672837720188704  0.40592342196906367  0.40796080147323  1.0000
  O   O14       1.0  0.523274318820377  0.5940735433166537  0.5920380832116476  1.0000
  O   O15       1.0  0.6659156861102105  0.7058683978911943  0.8096838566714976  1.0000
  O   O16       1.0  0.33408577430636655  0.29413776005910114  0.1903166829361566  1.0000
  O   O17       1.0  0.18421081438201972  0.5768513014873592  0.2501801522573713  1.0000
  O   O18       1.0  0.8157915146293033  0.4231507615278787  0.7498205061905805  1.0000
  O   O19       1.0  0.30592260615306077  0.6817020811224596  0.13592771438159448  1.0000
  O   O20       1.0  0.6940827592912696  0.3183060990570398  0.8640778767444385  1.0000
  O   O21       1.0  0.4083771485087837  0.5188199077551161  0.2272892979329909  1.0000
  O   O22       1.0  0.5916266015231885  0.48118111893806076  0.7727131667602901  1.0000
  O   O23       1.0  0.2511282426926797  0.3242718529735811  0.5447053895700262  1.0000
  O   O24       1.0  0.7488677660533084  0.6757291181902049  0.4552944119524369  1.0000
