data_image0
_chemical_formula_structural       Co2H32C32N4O8
_chemical_formula_sum              "Co2 H32 C32 N4 O8"
_cell_length_a       4.309037459050316
_cell_length_b       10.51552619637623
_cell_length_c       15.35011770969466
_cell_angle_alpha    96.02739952841662
_cell_angle_beta     90.00037967568159
_cell_angle_gamma    89.99956060407393

_space_group_name_H-M_alt    "P 1"
_space_group_IT_number       1

loop_
  _space_group_symop_operation_xyz
  'x, y, z'

loop_
  _atom_site_type_symbol
  _atom_site_label
  _atom_site_symmetry_multiplicity
  _atom_site_fract_x
  _atom_site_fract_y
  _atom_site_fract_z
  _atom_site_occupancy
  Co  Co1       1.0  0.4999991677871947  0.5000003262637591  0.4999995454892384  1.0000
  Co  Co2       1.0  2.2820711648999998e-06  0.49999923495462884  0.9999999855298825  1.0000
  H   H1        1.0  0.2570924442779159  0.43755853092567076  0.7629566900892328  1.0000
  H   H2        1.0  0.757091265811397  0.5624410663919406  0.7370446183078272  1.0000
  H   H3        1.0  0.742908212016708  0.5624402090945608  0.23704226903390693  1.0000
  H   H4        1.0  0.2429093904826658  0.43755863407395174  0.2629550585001468  1.0000
  H   H5        1.0  0.5694277723737713  0.05871611292685942  0.7500898952136694  1.0000
  H   H6        1.0  0.06944010077863541  0.9412907157288902  0.7499109111742185  1.0000
  H   H7        1.0  0.43057056322402326  0.9412835917360666  0.2499104333485818  1.0000
  H   H8        1.0  0.9305582348273301  0.05870803268206259  0.250089351459394  1.0000
  H   H9        1.0  0.623699410371067  0.1794658766132287  0.6195346175385055  1.0000
  H   H10       1.0  0.12370314238513201  0.8205398349271678  0.880465561318104  1.0000
  H   H11       1.0  0.37630124593061953  0.8205338280463509  0.3804657110256713  1.0000
  H   H12       1.0  0.8762975139171088  0.17945890928675112  0.11953404956123849  1.0000
  H   H13       1.0  0.7439764281904077  0.16431276811277234  0.9665134801113524  1.0000
  H   H14       1.0  0.24397172438892764  0.8356868586884616  0.5334865029809279  1.0000
  H   H15       1.0  0.2560219073915917  0.8356878886084405  0.0334862626233274  1.0000
  H   H16       1.0  0.7560289319045808  0.16431380222309136  0.4665138915118803  1.0000
  H   H17       1.0  0.0686311472874266  0.07110138526188343  0.9295189221424494  1.0000
  H   H18       1.0  0.568626157398583  0.9288987393738494  0.5704794661385719  1.0000
  H   H19       1.0  0.9313671883103677  0.9288983194010426  0.07048140641979467  1.0000
  H   H20       1.0  0.4313721781752449  0.07110287359933659  0.42952034252474647  1.0000
  H   H21       1.0  0.6928285843205018  0.0219774924662914  0.8931039351657404  1.0000
  H   H22       1.0  0.1928206199731761  0.9780241819262372  0.6068941395413178  1.0000
  H   H23       1.0  0.3071697512696686  0.9780222080029477  0.106895741640308  1.0000
  H   H24       1.0  0.8071777156088232  0.0219764747949753  0.39310560319336224  1.0000
  H   H25       1.0  0.4259282230116597  0.3760626777027554  0.9054827838267983  1.0000
  H   H26       1.0  0.9259248654198801  0.6239364321894529  0.5945188050529281  1.0000
  H   H27       1.0  0.5740724332824102  0.6239370227631368  0.09451689298117569  1.0000
  H   H28       1.0  0.0740757908660115  0.3760642245284131  0.4054809376836843  1.0000
  H   H29       1.0  0.2290552151518668  0.2717442616234181  0.9573790990445019  1.0000
  H   H30       1.0  0.7290533268118864  0.7282554208323334  0.5426228145303185  1.0000
  H   H31       1.0  0.7709477618460949  0.7282554388391206  0.0426205777653976  1.0000
  H   H32       1.0  0.2709473294821834  0.2717442796335591  0.4573768622776555  1.0000
  C   C1        1.0  0.9486368875666572  0.31484924705925715  0.6831751988101686  1.0000
  C   C2        1.0  0.4486393380881566  0.6851526534395376  0.816824670317267  1.0000
  C   C3        1.0  0.0513614480235205  0.6851504534099817  0.3168244779958727  1.0000
  C   C4        1.0  0.5513589974944039  0.3148470428360143  0.1831743547325786  1.0000
  C   C5        1.0  0.1038455128667977  0.35506541702879707  0.7610775497883822  1.0000
  C   C6        1.0  0.6038451549521325  0.6449355789631782  0.738923569951055  1.0000
  C   C7        1.0  0.8961551434272651  0.644934283437088  0.2389221270195918  1.0000
  C   C8        1.0  0.3961531806380449  0.35506412150606087  0.2610761068549934  1.0000
  C   C9        1.0  0.06254773753843071  0.2913973334104725  0.8355779817384459  1.0000
  C   C10       1.0  0.562546758066283  0.7086037776153021  0.6644224176368638  1.0000
  C   C11       1.0  0.937452918755639  0.7086023670554129  0.16442169506952814  1.0000
  C   C12       1.0  0.4374538982277869  0.29139592285058313  0.3355772591711101  1.0000
  C   C13       1.0  0.8725323967695927  0.1815941265610519  0.8318077269756827  1.0000
  C   C14       1.0  0.3725335020487818  0.8184089582925509  0.6681933851603716  1.0000
  C   C15       1.0  0.1274682595320868  0.8184055780985274  0.168192601588494  1.0000
  C   C16       1.0  0.6274671542447265  0.18159170261900215  0.3318070093324438  1.0000
  C   C17       1.0  0.7190126310588241  0.1426694451024062  0.7529635194344593  1.0000
  C   C18       1.0  0.2190171807703507  0.857335995461419  0.7470374695215228  1.0000
  C   C19       1.0  0.2809857045313535  0.8573302553668333  0.24703615737158913  1.0000
  C   C20       1.0  0.780981154835622  0.14266275294954062  0.2529627931120899  1.0000
  C   C21       1.0  0.7509904513066205  0.2086022985702414  0.6795651531832619  1.0000
  C   C22       1.0  0.2509933183765156  0.7914011329784714  0.8204351052821508  1.0000
  C   C23       1.0  0.24901020498744939  0.7913974018956438  0.3204345236247121  1.0000
  C   C24       1.0  0.7490050172452456  0.20859666337420182  0.1795657431790261  1.0000
  C   C25       1.0  0.9901202039171789  0.38664235834377086  0.6053346124037233  1.0000
  C   C26       1.0  0.4901188651912634  0.6133565578360135  0.8946657796064983  1.0000
  C   C27       1.0  0.0098804523768905  0.6133573421221143  0.39466506440425053  1.0000
  C   C28       1.0  0.5098817911186017  0.38664219057159244  0.1053344830290399  1.0000
  C   C29       1.0  0.841123286928841  0.105998066412397  0.9092499724490037  1.0000
  C   C30       1.0  0.3411165161449147  0.8940022319873153  0.5907495862026906  1.0000
  C   C31       1.0  0.1588773693570502  0.8940025903054617  0.0907497702876086  1.0000
  C   C32       1.0  0.6588841401491478  0.10599746847857722  0.4092500906052834  1.0000
  N   N1        1.0  0.2092816854508044  0.3393332904208394  0.9148245709506213  1.0000
  N   N2        1.0  0.7092820621845275  0.6606664407303953  0.5851760062641986  1.0000
  N   N3        1.0  0.7907189708432584  0.660666410045046  0.08517510585735269  1.0000
  N   N4        1.0  0.29072091481343426  0.3393332597321432  0.4148236705457009  1.0000
  O   O1        1.0  0.7955773634576173  0.3664740939215961  0.5421112400136963  1.0000
  O   O2        1.0  0.2955748118858992  0.6335253839047326  0.9578888288042648  1.0000
  O   O3        1.0  0.2044209721325601  0.6335256065476428  0.457888436792345  1.0000
  O   O4        1.0  0.7044235237118954  0.3664743207582005  0.0421114997579792  1.0000
  O   O5        1.0  0.21597906669629907  0.4653483217552504  0.6056429882729192  1.0000
  O   O6        1.0  0.7159821045059047  0.5346504296111546  0.8943568823855443  1.0000
  O   O7        1.0  0.7840192688938784  0.5346513787139884  0.3943566885331293  1.0000
  O   O8        1.0  0.28402087250022834  0.4653483145994101  0.10564272849572379  1.0000
