data_image0
_chemical_formula_structural       Co2H26C38N10O8
_chemical_formula_sum              "Co2 H26 C38 N10 O8"
_cell_length_a       7.7225552359223455
_cell_length_b       10.080354513124597
_cell_length_c       12.558601975006932
_cell_angle_alpha    66.8464792500028
_cell_angle_beta     75.86930844666493
_cell_angle_gamma    86.74782581431529

_space_group_name_H-M_alt    "P 1"
_space_group_IT_number       1

loop_
  _space_group_symop_operation_xyz
  'x, y, z'

loop_
  _atom_site_type_symbol
  _atom_site_label
  _atom_site_symmetry_multiplicity
  _atom_site_fract_x
  _atom_site_fract_y
  _atom_site_fract_z
  _atom_site_occupancy
  Co  Co1       1.0  0.8267566244024709  0.9384746056707554  0.28642597134929537  1.0000
  Co  Co2       1.0  0.1732436161065891  0.06149299900278038  0.7135378947280272  1.0000
  H   H1        1.0  0.028527294506169188  0.633263017381324  0.0690112519266464  1.0000
  H   H2        1.0  0.9714909125410645  0.3667967749228963  0.9309343733257547  1.0000
  H   H3        1.0  0.8732101376069678  0.8746402742831731  0.9175267112154157  1.0000
  H   H4        1.0  0.1266894543278951  0.12542755603261918  0.08243319425724135  1.0000
  H   H5        1.0  0.44985420873181436  0.0008744811574174976  0.2662424474499403  1.0000
  H   H6        1.0  0.5502544677652637  0.999197951638436  0.7338044598338838  1.0000
  H   H7        1.0  0.09538713132199919  0.7380898548612506  0.5978902652984032  1.0000
  H   H8        1.0  0.9045547511214735  0.2619214417210642  0.40208689059589614  1.0000
  H   H9        1.0  0.6708945313718431  0.7233428577678322  0.5372820065642684  1.0000
  H   H10       1.0  0.3290237489496732  0.2765654355620342  0.46272174293775936  1.0000
  H   H11       1.0  0.2264041742943377  0.5251082645529975  0.003964820908564086  1.0000
  H   H12       1.0  0.7737262281299236  0.47492159111358473  0.9960359157942519  1.0000
  H   H13       1.0  0.4012105427175429  0.31050866440672553  0.016545012005707287  1.0000
  H   H14       1.0  0.5987639876936087  0.6894741248458232  0.9834490100296733  1.0000
  H   H15       1.0  0.554134770659374  0.2775599164907091  0.8279346620367392  1.0000
  H   H16       1.0  0.4459036894266149  0.7224099555065278  0.17206950497516257  1.0000
  H   H17       1.0  0.5336931231974164  0.4633838212056105  0.632893653516774  1.0000
  H   H18       1.0  0.4662724497424975  0.5365707712836709  0.36711007475255986  1.0000
  H   H19       1.0  0.029271061044681808  0.6176910044347466  0.41373709134285247  1.0000
  H   H20       1.0  0.9708853308406732  0.3823490840658365  0.5861901966290545  1.0000
  H   H21       1.0  0.13610658682487303  0.4721679192431337  0.2616423585929083  1.0000
  H   H22       1.0  0.8640541731686401  0.527850422724235  0.7382753466687431  1.0000
  H   H23       1.0  0.6877464598885938  0.09709270256967525  0.8692996183336913  1.0000
  H   H24       1.0  0.3121091435126218  0.9028874481757612  0.1307981864121856  1.0000
  H   H25       1.0  0.6252938216704536  0.16712217141356686  0.0700803513607227  1.0000
  H   H26       1.0  0.374581248050589  0.8328420283754735  0.930017185612705  1.0000
  C   C1        1.0  0.42889153310852635  0.9195439391739625  0.3566892751379882  1.0000
  C   C2        1.0  0.5711129583383187  0.08050600241657689  0.6433428948467039  1.0000
  C   C3        1.0  0.2541195447231956  0.8771199229472157  0.4257336861045357  1.0000
  C   C4        1.0  0.7458588814813966  0.12295643697495247  0.5742796748352742  1.0000
  C   C5        1.0  0.2297504488204467  0.7731176681659304  0.5419210700878592  1.0000
  C   C6        1.0  0.7702078569868008  0.22692679059334608  0.4580826341240112  1.0000
  C   C7        1.0  0.3804828516678427  0.7151020283881947  0.5848215344301549  1.0000
  C   C8        1.0  0.619443179775658  0.2848629611533581  0.4151961412336433  1.0000
  C   C9        1.0  0.5494233288355801  0.7631658797218106  0.5076636523945552  1.0000
  C   C10       1.0  0.4504989618929828  0.23676982874084015  0.49235769304166854  1.0000
  C   C11       1.0  0.10658551718293553  0.9390842649625878  0.36422420238774583  1.0000
  C   C12       1.0  0.893406569515719  0.06101561809933998  0.6357499685230151  1.0000
  C   C13       1.0  0.3738171226144474  0.6043430040855069  0.7059161194194629  1.0000
  C   C14       1.0  0.6261286249796143  0.39561359281638175  0.29409880816027817  1.0000
  C   C15       1.0  0.2833895062434806  0.6203681744326345  0.8123063093535234  1.0000
  C   C16       1.0  0.7166201948453833  0.37961547156975667  0.187708239001715  1.0000
  C   C17       1.0  0.2957443825492022  0.5128190742829233  0.9221731816286007  1.0000
  C   C18       1.0  0.7042890917036717  0.4871573259926833  0.07783841281616324  1.0000
  C   C19       1.0  0.3950776124610585  0.3914641075453174  0.9293275803147549  1.0000
  C   C20       1.0  0.6049316383601778  0.6085128566570643  0.07067486222067744  1.0000
  C   C21       1.0  0.4801497333459538  0.37359711683883023  0.8246449285425397  1.0000
  C   C22       1.0  0.5198715536695746  0.6263842210752485  0.17534626366034434  1.0000
  C   C23       1.0  0.46872231792704616  0.478813247918893  0.7144889380729535  1.0000
  C   C24       1.0  0.5312539624675594  0.5211436078899252  0.2855092065086211  1.0000
  C   C25       1.0  0.1785364545837993  0.7504327956255279  0.8150580562181984  1.0000
  C   C26       1.0  0.8215289547912905  0.249575492738927  0.1849486180091587  1.0000
  C   C27       1.0  0.008709073697232795  0.6424623161035751  0.3257336081381085  1.0000
  C   C28       1.0  0.9913960421383481  0.357559845114494  0.6742114363184438  1.0000
  C   C29       1.0  0.06239234685438081  0.5693611786885383  0.2510247632253453  1.0000
  C   C30       1.0  0.9377348748265464  0.43063559938661194  0.7489401687532861  1.0000
  C   C31       1.0  0.9208088182833407  0.7613600940901718  0.16260027521307294  1.0000
  C   C32       1.0  0.07920744346768062  0.2386035279062212  0.8373703461341575  1.0000
  C   C33       1.0  0.8382340765778196  0.8787172649351404  0.08878047304472138  1.0000
  C   C34       1.0  0.16176391370076004  0.12125381276602097  0.9112017338780303  1.0000
  C   C35       1.0  0.7206131739737743  0.04412082660225989  0.9546406531588187  1.0000
  C   C36       1.0  0.27920065286679835  0.95585214414055  0.04545721592526062  1.0000
  C   C37       1.0  0.6920906128791416  0.0769782336425564  0.054270618837108466  1.0000
  C   C38       1.0  0.30780292296186224  0.9229755308622738  0.945834580630773  1.0000
  N   N1        1.0  0.5740379748006319  0.8633112347168675  0.39571553817444255  1.0000
  N   N2        1.0  0.4259269033216314  0.13664808725800978  0.6043170317381835  1.0000
  N   N3        1.0  0.9200410299442724  0.7627204597992685  0.26962220091128586  1.0000
  N   N4        1.0  0.0799957688297042  0.237259604026704  0.7303375227566135  1.0000
  N   N5        1.0  0.005001523569873696  0.6460794747266759  0.14884518777470382  1.0000
  N   N6        1.0  0.9950660194347308  0.35389683383232284  0.8511205179177279  1.0000
  N   N7        1.0  0.7678424587270599  0.973487177430385  0.13767240214259152  1.0000
  N   N8        1.0  0.23217274126592713  0.02646197549663039  0.8623500425601163  1.0000
  N   N9        1.0  0.8125867121724185  0.9193873752459749  0.9780206496457705  1.0000
  N   N10       1.0  0.18729324869303812  0.08060483307635738  0.021981073401946098  1.0000
  O   O1        1.0  0.14834974023401065  0.028148404212359396  0.25744182726636916  1.0000
  O   O2        1.0  0.8517199922619343  0.9719779505529471  0.7425523166015038  1.0000
  O   O3        1.0  0.9441254303341469  0.8899834080435125  0.4191671355079122  1.0000
  O   O4        1.0  0.05585244966610502  0.11008190900275847  0.5807551123344225  1.0000
  O   O5        1.0  0.23889984756396393  0.8697645868766481  0.7270702386212163  1.0000
  O   O6        1.0  0.7611422781154645  0.13020924224391445  0.2729026146599764  1.0000
  O   O7        1.0  0.04764937470821451  0.7332183643665288  0.9031278703089922  1.0000
  O   O8        1.0  0.9524529877248185  0.26684161977593124  0.09688900196241693  1.0000
