data_image0
_chemical_formula_structural       H12Pb4C28N4O16
_chemical_formula_sum              "H12 Pb4 C28 N4 O16"
_cell_length_a       4.531629893933965
_cell_length_b       11.708628966449277
_cell_length_c       14.241604195021553
_cell_angle_alpha    90.15980097462393
_cell_angle_beta     90.00138107385102
_cell_angle_gamma    89.99721137360403

_space_group_name_H-M_alt    "P 1"
_space_group_IT_number       1

loop_
  _space_group_symop_operation_xyz
  'x, y, z'

loop_
  _atom_site_type_symbol
  _atom_site_label
  _atom_site_symmetry_multiplicity
  _atom_site_fract_x
  _atom_site_fract_y
  _atom_site_fract_z
  _atom_site_occupancy
  H   H1        1.0  0.7520796281976844  0.9618822776567341  0.0144440661485206  1.0000
  H   H2        1.0  0.2518373916848375  0.0381415510025462  0.4855561245158597  1.0000
  H   H3        1.0  0.24822334648369795  0.0381400369107183  0.9855457099484468  1.0000
  H   H4        1.0  0.7480153946657636  0.9618663504990437  0.5144687258147513  1.0000
  H   H5        1.0  0.9604905075620208  0.0012382209290465005  0.17242657417265406  1.0000
  H   H6        1.0  0.460362615342106  0.9987924086662757  0.3275814423634174  1.0000
  H   H7        1.0  0.03943073900278899  0.9988499576414966  0.827599784168207  1.0000
  H   H8        1.0  0.5395078254307107  0.0012172010642928003  0.67244481508704  1.0000
  H   H9        1.0  0.8847354705253847  0.8562486769123224  0.30078633786502  1.0000
  H   H10       1.0  0.3844724229142074  0.143768047714012  0.19920432713291797  1.0000
  H   H11       1.0  0.1154770293733378  0.14377364607972248  0.6992020306852351  1.0000
  H   H12       1.0  0.6152391225132163  0.8562159326409643  0.8008050402940086  1.0000
  Pb  Pb1       1.0  0.9840572545188806  0.39067171597718453  0.1404846508323843  1.0000
  Pb  Pb2       1.0  0.483681847691166  0.6093115421430895  0.3594954835784065  1.0000
  Pb  Pb3       1.0  0.016161830290201403  0.609304514140483  0.8595219162098359  1.0000
  Pb  Pb4       1.0  0.5162437761535373  0.39069883374520487  0.6404774119852448  1.0000
  C   C1        1.0  0.5202385961285502  0.7260399014735274  0.1322185870230683  1.0000
  C   C2        1.0  0.020096868362131193  0.2740082089980902  0.3677798806858803  1.0000
  C   C3        1.0  0.4800798167451317  0.27396274508547686  0.8677564192787272  1.0000
  C   C4        1.0  0.9796433637553719  0.7259749139322976  0.6322294866807353  1.0000
  C   C5        1.0  0.5574983422158865  0.8008558422960164  0.056247631130979386  1.0000
  C   C6        1.0  0.05733128994648239  0.1991835556448365  0.44374645519200573  1.0000
  C   C7        1.0  0.44286199667013887  0.1991450933621906  0.9437287788426829  1.0000
  C   C8        1.0  0.9424133581729067  0.80080469549943  0.5562657274734804  1.0000
  C   C9        1.0  0.7184291827452824  0.9011414224649384  0.07109728244597592  1.0000
  C   C10       1.0  0.21824933759171466  0.0988885523091696  0.42890052291460273  1.0000
  C   C11       1.0  0.28184069055589583  0.09887832838837343  0.9288889783965997  1.0000
  C   C12       1.0  0.781572552025615  0.9011142251437932  0.5711222133485733  1.0000
  C   C13       1.0  0.8369283401850253  0.9230856307564894  0.1594009002928161  1.0000
  C   C14       1.0  0.3367730764663861  0.0769422748256261  0.34060252955691067  1.0000
  C   C15       1.0  0.16319148849080278  0.07695893041469762  0.8406015363764041  1.0000
  C   C16       1.0  0.6630554310270398  0.9230579428492903  0.6594223102196253  1.0000
  C   C17       1.0  0.7921817801896934  0.843848992939897  0.2308693268382811  1.0000
  C   C18       1.0  0.2920021688205594  0.1561731398115782  0.2691295054189951  1.0000
  C   C19       1.0  0.2080263032973164  0.1561690612718252  0.7691197383401303  1.0000
  C   C20       1.0  0.7077645418968999  0.84380999074552  0.7308868845860701  1.0000
  C   C21       1.0  0.3444688924332624  0.6168387521568661  0.1235636329209768  1.0000
  C   C22       1.0  0.8444191520649652  0.38323944792192327  0.3764207401327794  1.0000
  C   C23       1.0  0.6556354993758049  0.38321175502989047  0.8764163413006542  1.0000
  C   C24       1.0  0.1553740516888169  0.6167547535545168  0.623576706223183  1.0000
  C   C25       1.0  0.4304950184886351  0.7750625223060511  0.9609829687812237  1.0000
  C   C26       1.0  0.9303609020131629  0.22494649968979272  0.5390184669873221  1.0000
  C   C27       1.0  0.5699116279026555  0.2248905916108512  0.03900110638822699  1.0000
  C   C28       1.0  0.06932635486027998  0.7750152786597653  0.4609915737451331  1.0000
  N   N1        1.0  0.6366002270727191  0.747856629373899  0.2174148717775708  1.0000
  N   N2        1.0  0.13645503839471468  0.252176244020724  0.2825855398219588  1.0000
  N   N3        1.0  0.3636872880765623  0.25214175578599196  0.7825636388937838  1.0000
  N   N4        1.0  0.8633050511149277  0.74780346458342  0.717426632620203  1.0000
  O   O1        1.0  0.15646773717738677  0.6058934312606824  0.05912759172421289  1.0000
  O   O2        1.0  0.6564650798795597  0.39423640692952233  0.440866637564973  1.0000
  O   O3        1.0  0.8434513356348177  0.3942459951979771  0.9409009376732909  1.0000
  O   O4        1.0  0.3433700727388  0.6057936725312771  0.5591385793843457  1.0000
  O   O5        1.0  0.3958658782222456  0.5393496296693031  0.1856637336309106  1.0000
  O   O6        1.0  0.895828434604887  0.460698591556472  0.3143017911509816  1.0000
  O   O7        1.0  0.6042274635269393  0.46066496912444416  0.8142909168426016  1.0000
  O   O8        1.0  0.10396476094221899  0.5392759404999199  0.6856787783523544  1.0000
  O   O9        1.0  0.5565176287984315  0.696293245214754  0.9119378363053485  1.0000
  O   O10       1.0  0.05652336446711809  0.30363242513512745  0.5881085004132203  1.0000
  O   O11       1.0  0.44378081500422434  0.30357457259911774  0.0881107269625616  1.0000
  O   O12       1.0  0.9432829811434758  0.6962423159819409  0.41196182129952774  1.0000
  O   O13       1.0  0.20821200310209778  0.8293517419531824  0.93342512177216  1.0000
  O   O14       1.0  0.7079716986472845  0.1707049237724689  0.5665415894009626  1.0000
  O   O15       1.0  0.7922873538052144  0.17062520337375986  0.0665119414512105  1.0000
  O   O16       1.0  0.2915523143381904  0.829314011893885  0.43341304627901417  1.0000
