data_image0
_chemical_formula_structural       Nd2H20C18O22F24
_chemical_formula_sum              "Nd2 H20 C18 O22 F24"
_cell_length_a       9.653685494455484
_cell_length_b       10.330922686609622
_cell_length_c       10.888572989560146
_cell_angle_alpha    83.7618682942448
_cell_angle_beta     86.87243872020646
_cell_angle_gamma    69.5677153878913

_space_group_name_H-M_alt    "P 1"
_space_group_IT_number       1

loop_
  _space_group_symop_operation_xyz
  'x, y, z'

loop_
  _atom_site_type_symbol
  _atom_site_label
  _atom_site_symmetry_multiplicity
  _atom_site_fract_x
  _atom_site_fract_y
  _atom_site_fract_z
  _atom_site_occupancy
  Nd  Nd1       1.0  0.3879885284420724  0.2814820538262381  0.4691491672844847  1.0000
  Nd  Nd2       1.0  0.6120114227821818  0.7185228109439167  0.5308517465179035  1.0000
  H   H1        1.0  0.42583743058850854  0.19466756493393692  0.7399758307022352  1.0000
  H   H2        1.0  0.574160025880566  0.8053414699381491  0.2600211005531321  1.0000
  H   H3        1.0  0.26908314525430654  0.1787914002123472  0.7367683176380805  1.0000
  H   H4        1.0  0.7309137174999307  0.8212134848308636  0.26323086592554285  1.0000
  H   H5        1.0  0.607437869293591  0.1619448209116001  0.2660049813812506  1.0000
  H   H6        1.0  0.39256363014605  0.8380641669260246  0.7339991600754203  1.0000
  H   H7        1.0  0.5628708692945068  0.029400795111890008  0.30655837325969765  1.0000
  H   H8        1.0  0.4371254138054186  0.9705999438531451  0.6934421432591263  1.0000
  H   H9        1.0  0.06677515572923909  0.3693747275629277  0.6098228910123707  1.0000
  H   H10       1.0  0.933224353258773  0.63062289350691  0.3901768898097798  1.0000
  H   H11       1.0  0.059705166275385635  0.34569696194883204  0.4697237829676267  1.0000
  H   H12       1.0  0.9402918588308042  0.6543016978445523  0.5302778235495464  1.0000
  H   H13       1.0  0.35778656792381014  0.5869976678499071  0.4064676451282097  1.0000
  H   H14       1.0  0.64220809984527  0.41300206442326737  0.5935275129065045  1.0000
  H   H15       1.0  0.20297856855114554  0.5857025332642395  0.36635440662057306  1.0000
  H   H16       1.0  0.7970255052332008  0.414297175696703  0.6336367485998905  1.0000
  H   H17       1.0  0.16980744850579296  0.4442553567863358  0.25250363348980187  1.0000
  H   H18       1.0  0.8301954458096505  0.5557443189248802  0.7474967514169819  1.0000
  H   H19       1.0  0.25751898658732136  0.2936547858059768  0.20920619135037546  1.0000
  H   H20       1.0  0.7424756530607157  0.7063449389658061  0.7907908053904503  1.0000
  C   C1        1.0  0.3925108958148442  0.5277601145252292  0.6749927066820333  1.0000
  C   C2        1.0  0.6075143773192125  0.472255011898156  0.3250054221789468  1.0000
  C   C3        1.0  0.25608426461865724  0.545824579799735  0.7646770518159727  1.0000
  C   C4        1.0  0.7439221726025664  0.45416579402408536  0.23531490746408676  1.0000
  C   C5        1.0  0.2511139653188935  0.6357854631696895  0.8728441153994806  1.0000
  C   C6        1.0  0.7488774625015823  0.36421738324799696  0.12715269768496276  1.0000
  C   C7        1.0  0.13249656714211974  0.6359950331286798  0.9771778106095041  1.0000
  C   C8        1.0  0.8674901772980731  0.3640139580496539  0.02284062732390878  1.0000
  C   C9        1.0  0.12046382015010695  0.729373085086209  0.08365534431470678  1.0000
  C   C10       1.0  0.8795416798039923  0.27062131154937674  0.916366576169764  1.0000
  C   C11       1.0  0.0007454858484692216  0.7179789657538651  0.18440310018512918  1.0000
  C   C12       1.0  0.999273438478106  0.2820184549241418  0.8155678300661717  1.0000
  C   C13       1.0  0.29199965058086985  0.9770330663195352  0.42737961952613546  1.0000
  C   C14       1.0  0.7080030813826143  0.022972834641507196  0.5726183424270985  1.0000
  C   C15       1.0  0.14405523405348933  0.006736641936157601  0.35958369952080455  1.0000
  C   C16       1.0  0.8559397915886963  0.9932703115331593  0.6404181076124685  1.0000
  C   C17       1.0  0.021926012211025595  0.9667710978402229  0.43784945532280506  1.0000
  C   C18       1.0  0.9780749996236507  0.0332274999159097  0.5621630388078812  1.0000
  O   O1        1.0  0.45018351400642603  0.4103235800376765  0.6338907416116795  1.0000
  O   O2        1.0  0.5498057156417319  0.589670978480875  0.36610877353895416  1.0000
  O   O3        1.0  0.4289614224074685  0.6329556938113187  0.6515949831943713  1.0000
  O   O4        1.0  0.5710336875978542  0.36705128216217286  0.3484013078205804  1.0000
  O   O5        1.0  0.8757446086780832  0.807998869373755  0.17358155873620254  1.0000
  O   O6        1.0  0.12424973251183502  0.19199764150433654  0.8264414720138403  1.0000
  O   O7        1.0  0.045802555577580555  0.6163303594229319  0.2681849525928327  1.0000
  O   O8        1.0  0.9542001869847285  0.38365787724422523  0.7318266283697809  1.0000
  O   O9        1.0  0.31838688069429827  0.0797867967588601  0.45690678291813913  1.0000
  O   O10       1.0  0.68159446649463  0.9202295686825936  0.543087263044704  1.0000
  O   O11       1.0  0.3696956875936905  0.8505224057258259  0.4434771189895058  1.0000
  O   O12       1.0  0.6303115919184634  0.1494824442465372  0.5565198643101964  1.0000
  O   O13       1.0  0.367744230691926  0.1590505573815051  0.6911146161232506  1.0000
  O   O14       1.0  0.6322540738932858  0.8409501580662991  0.30888950549622507  1.0000
  O   O15       1.0  0.5258155764097125  0.13246237890958668  0.2982536680178143  1.0000
  O   O16       1.0  0.4741858338931948  0.8675414551449449  0.7017445368922708  1.0000
  O   O17       1.0  0.1238542246670278  0.35910266776596  0.5292775487697696  1.0000
  O   O18       1.0  0.8761495039785814  0.6409032176857752  0.4707231350868425  1.0000
  O   O19       1.0  0.2820712988002755  0.543792414240258  0.4272007512954019  1.0000
  O   O20       1.0  0.7179336873030665  0.4562072567072023  0.5727986419467682  1.0000
  O   O21       1.0  0.24191189382339934  0.350941368594988  0.27713419490441277  1.0000
  O   O22       1.0  0.7580849890911167  0.6490552575416046  0.7228584248832914  1.0000
  F   F1        1.0  0.2563891318608285  0.41809394677384404  0.8154704996003089  1.0000
  F   F2        1.0  0.7436181614373042  0.5818963740337183  0.18453337511366635  1.0000
  F   F3        1.0  0.1301469896648371  0.6059656314159484  0.6963948898748382  1.0000
  F   F4        1.0  0.8698343792708343  0.394044471268721  0.30361077257209246  1.0000
  F   F5        1.0  0.38841463758923583  0.5850995165623657  0.9240662415397194  1.0000
  F   F6        1.0  0.61159293664479  0.4148763463436042  0.07592705688051637  1.0000
  F   F7        1.0  0.22381611742481775  0.770751228222295  0.8255929473125148  1.0000
  F   F8        1.0  0.776190921472008  0.22925156183841006  0.1744014847290956  1.0000
  F   F9        1.0  0.1640452722335581  0.50241460545233  0.030575896534337194  1.0000
  F   F10       1.0  0.8359568126856091  0.4975757328906596  0.9694290783115987  1.0000
  F   F11       1.0  0.9971878754656417  0.6777690731495127  0.923043601454836  1.0000
  F   F12       1.0  0.002814476603447228  0.3222213364566856  0.07694390568308757  1.0000
  F   F13       1.0  0.2574394026331674  0.686616956575712  0.13768708733444157  1.0000
  F   F14       1.0  0.7425725586585659  0.31338060965673986  0.8623131789713766  1.0000
  F   F15       1.0  0.0876266925344851  0.86324295057743  0.03484422788739746  1.0000
  F   F16       1.0  0.9123832783056188  0.13674324888723532  0.9651516777839003  1.0000
  F   F17       1.0  0.08537340048646062  0.14391687904326034  0.31670858910941746  1.0000
  F   F18       1.0  0.9145989497542433  0.8560870817149397  0.6832887894564478  1.0000
  F   F19       1.0  0.17275301167158125  0.9318195698626611  0.25848870269134483  1.0000
  F   F20       1.0  0.8272450554854489  0.06818222080258352  0.7415061400749535  1.0000
  F   F21       1.0  0.8974993521609491  0.006089871053141803  0.36770828658716675  1.0000
  F   F22       1.0  0.10250758803766763  0.9938983598372035  0.6323003916931567  1.0000
  F   F23       1.0  0.07033906844363004  0.825534253303303  0.4623905465159622  1.0000
  F   F24       1.0  0.9296591268445554  0.1744695672680336  0.5376142023328468  1.0000
