data_image0
_chemical_formula_structural       Ni4H20C20N20O12
_chemical_formula_sum              "Ni4 H20 C20 N20 O12"
_cell_length_a       8.0190340556073
_cell_length_b       8.019039853520168
_cell_length_c       13.998672399029772
_cell_angle_alpha    97.4031621602549
_cell_angle_beta     97.40323176611946
_cell_angle_gamma    116.71566750990802

_space_group_name_H-M_alt    "P 1"
_space_group_IT_number       1

loop_
  _space_group_symop_operation_xyz
  'x, y, z'

loop_
  _atom_site_type_symbol
  _atom_site_label
  _atom_site_symmetry_multiplicity
  _atom_site_fract_x
  _atom_site_fract_y
  _atom_site_fract_z
  _atom_site_occupancy
  Ni  Ni1       1.0  0.9104715269514401  0.6969589592884375  0.7355510969868247  1.0000
  Ni  Ni2       1.0  0.30304283000652527  0.08953033568077727  0.7644512361187167  1.0000
  Ni  Ni3       1.0  0.08952211824699673  0.30303883449083463  0.2644500519832533  1.0000
  Ni  Ni4       1.0  0.6969579607733181  0.9104746209130494  0.2355502717321087  1.0000
  H   H1        1.0  0.711782009190081  0.5248116491747652  0.5525380118032928  1.0000
  H   H2        1.0  0.47519022922652004  0.2882195576636803  0.9474621545156765  1.0000
  H   H3        1.0  0.2882179520690116  0.4751861880636881  0.44746147110242873  1.0000
  H   H4        1.0  0.5248130031723193  0.7117825646701021  0.0525386095253637  1.0000
  H   H5        1.0  0.6249966204284689  0.3852728070734769  0.6245254265853788  1.0000
  H   H6        1.0  0.6147306882174348  0.3750065953008034  0.8754764297201945  1.0000
  H   H7        1.0  0.37500534674417446  0.6147293045542028  0.3754759561101721  1.0000
  H   H8        1.0  0.3852700237993504  0.624995515692092  0.12452414442168451  1.0000
  H   H9        1.0  0.13643666625923595  0.5542951569037697  0.62575156646529  1.0000
  H   H10       1.0  0.44570829041568777  0.8635644412382321  0.874249210441363  1.0000
  H   H11       1.0  0.8635639468538086  0.44570408834557895  0.374250928384015  1.0000
  H   H12       1.0  0.5542948783255994  0.13643485060158164  0.1257484790784673  1.0000
  H   H13       1.0  0.07065806823862177  0.22357378604339564  0.8980672376685277  1.0000
  H   H14       1.0  0.7764295733501995  0.929343539315269  0.6019329377051506  1.0000
  H   H15       1.0  0.9293415662890964  0.7764340356591932  0.1019315409211998  1.0000
  H   H16       1.0  0.2235661029376317  0.07065855403151741  0.3980665430343109  1.0000
  H   H17       1.0  0.9482908424422547  0.46136136430757796  0.8874477431590222  1.0000
  H   H18       1.0  0.5386382644302828  0.05170862904155629  0.612553618707615  1.0000
  H   H19       1.0  0.05170348985632235  0.5386378727321741  0.11255142252600339  1.0000
  H   H20       1.0  0.4613625263495607  0.9482963275522707  0.3874478891432034  1.0000
  C   C1        1.0  0.3176293524407826  0.3313806255358998  0.6273133669690694  1.0000
  C   C2        1.0  0.6686194292676643  0.6823690402994556  0.8726877911440526  1.0000
  C   C3        1.0  0.6823654943263051  0.6686143484555134  0.372684088825288  1.0000
  C   C4        1.0  0.3313797610930607  0.31762450304192674  0.12731345494187  1.0000
  C   C5        1.0  0.19986350306871256  0.35981336477278336  0.6964004969949756  1.0000
  C   C6        1.0  0.6401882761522869  0.8001380748396372  0.8036024025195231  1.0000
  C   C7        1.0  0.8001357610199094  0.6401830191338791  0.3036023964039813  1.0000
  C   C8        1.0  0.35981553940778344  0.19986261997541277  0.1963990125479782  1.0000
  C   C9        1.0  0.1243945939394351  0.4845661804907167  0.6880851850777319  1.0000
  C   C10       1.0  0.5154331783064378  0.8756043599050329  0.8119129983741544  1.0000
  C   C11       1.0  0.8756009097167735  0.5154302065472365  0.3119145690561211  1.0000
  C   C12       1.0  0.48456889784027624  0.12440062753750418  0.18808503640580201  1.0000
  C   C13       1.0  0.08938292706438491  0.3008613736939197  0.8384862934132117  1.0000
  C   C14       1.0  0.6991390373479544  0.9106160765255494  0.661514161747206  1.0000
  C   C15       1.0  0.9106120671584819  0.6991392814280386  0.16151445700720757  1.0000
  C   C16       1.0  0.30085975255350655  0.08938461071469563  0.3384847327096949  1.0000
  C   C17       1.0  0.020211457623020096  0.4314854396876626  0.8321159767550341  1.0000
  C   C18       1.0  0.5685157275571343  0.9797897540937515  0.6678839246215774  1.0000
  C   C19       1.0  0.979793004755834  0.5685166581026309  0.1678891638601385  1.0000
  C   C20       1.0  0.431484342676029  0.020210958959559402  0.33211221036854965  1.0000
  N   N1        1.0  0.18024782527974986  0.2663453962940139  0.7709083596427533  1.0000
  N   N2        1.0  0.7336539690823755  0.8197517991033011  0.7290928167727841  1.0000
  N   N3        1.0  0.8197479146656337  0.7336595275467349  0.2290941956179182  1.0000
  N   N4        1.0  0.26633917171789534  0.18025026779562836  0.2709086148797795  1.0000
  N   N5        1.0  0.036680910702877136  0.5228270090713565  0.7566318521785718  1.0000
  N   N6        1.0  0.4771760256468269  0.9633225165357757  0.7433683323055932  1.0000
  N   N7        1.0  0.9633196085416031  0.47716937547009053  0.2433718497740571  1.0000
  N   N8        1.0  0.5228265599332289  0.0366782028227632  0.256628706187783  1.0000
  N   N9        1.0  0.0802454552948788  0.8744190988494225  0.6527899639199006  1.0000
  N   N10       1.0  0.12558236531238262  0.9197543001627793  0.8472125895523633  1.0000
  N   N11       1.0  0.9197577972446425  0.12558304362697473  0.3472079457047883  1.0000
  N   N12       1.0  0.8744144924034173  0.08024495325351207  0.1527860524277358  1.0000
  N   N13       1.0  0.11056877994910504  0.8457953858148103  0.5714261850019825  1.0000
  N   N14       1.0  0.154204657524403  0.8894333927870549  0.9285750327175607  1.0000
  N   N15       1.0  0.8894306265601273  0.15420667418674583  0.4285807166271312  1.0000
  N   N16       1.0  0.8457948094068612  0.1105687276423666  0.07142330566247068  1.0000
  N   N17       1.0  0.14415698997616735  0.8251945424273757  0.4934957698444223  1.0000
  N   N18       1.0  0.17480584326444396  0.8558396655310929  0.006506101080013576  1.0000
  N   N19       1.0  0.8558443404480299  0.1748061762963786  0.5065004600952818  1.0000
  N   N20       1.0  0.8251934611055277  0.1441567586608059  0.9934910834862195  1.0000
  O   O1        1.0  0.4116892661071033  0.24580598708318044  0.6573750372612039  1.0000
  O   O2        1.0  0.7541963660861767  0.5883106155224098  0.8426250317449446  1.0000
  O   O3        1.0  0.5883189131872868  0.7541932972244754  0.3426273136815042  1.0000
  O   O4        1.0  0.24581032679834178  0.4116801363833176  0.1573729959131711  1.0000
  O   O5        1.0  0.32776582695331763  0.39702612053169883  0.5511927156391749  1.0000
  O   O6        1.0  0.6029803600344225  0.6722391245534425  0.9488101136114011  1.0000
  O   O7        1.0  0.6722352502765505  0.6029688113127495  0.4488152053603613  1.0000
  O   O8        1.0  0.3970325149516753  0.3277673817270425  0.05118241585561378  1.0000
  O   O9        1.0  0.7463680007279196  0.48357465252541226  0.6123160853208915  1.0000
  O   O10       1.0  0.5164236553917548  0.2536302363760967  0.8876828725102753  1.0000
  O   O11       1.0  0.2536286893914266  0.5164188996177118  0.3876821164495113  1.0000
  O   O12       1.0  0.48357949320885746  0.746369035321095  0.11231767142592018  1.0000
