data_image0
_chemical_formula_structural       Zn8H28C41O27
_chemical_formula_sum              "Zn8 H28 C41 O27"
_cell_length_a       18.608562834138446
_cell_length_b       18.49303704498959
_cell_length_c       18.494039329020215
_cell_angle_alpha    119.958024563975
_cell_angle_beta     90.60877698096394
_cell_angle_gamma    119.09797907564112

_space_group_name_H-M_alt    "P 1"
_space_group_IT_number       1

loop_
  _space_group_symop_operation_xyz
  'x, y, z'

loop_
  _atom_site_type_symbol
  _atom_site_label
  _atom_site_symmetry_multiplicity
  _atom_site_fract_x
  _atom_site_fract_y
  _atom_site_fract_z
  _atom_site_occupancy
  Zn  Zn1       1.0  0.5412364527238509  0.0839942764467096  0.9504613154633146  1.0000
  Zn  Zn2       1.0  0.5400073761943247  0.0845035089787274  0.12649123725092437  1.0000
  Zn  Zn3       1.0  0.5393239700079916  0.9123722127340771  0.9545635349267342  1.0000
  Zn  Zn4       1.0  0.3690134384948251  0.9168799047394172  0.9537206730492753  1.0000
  Zn  Zn5       1.0  0.9580580673243303  0.9138360336293303  0.5455110245321393  1.0000
  Zn  Zn6       1.0  0.9602824664424575  0.0877327193873185  0.5448193445322644  1.0000
  Zn  Zn7       1.0  0.95931634199907  0.9126143236221083  0.37241805744336887  1.0000
  Zn  Zn8       1.0  0.13136232973953807  0.08564593084555128  0.5471456831882974  1.0000
  H   H1        1.0  0.27348189404033707  0.950941686066244  0.607433667180338  1.0000
  H   H2        1.0  0.2349255483931784  0.9595189924169956  0.15284187362253468  1.0000
  H   H3        1.0  0.7914347610681601  0.8837721145299752  0.18638781343373984  1.0000
  H   H4        1.0  0.22307594010619874  0.8316561905915733  0.6760579621331644  1.0000
  H   H5        1.0  0.8106833637924494  0.073444886311492  0.3447725455515779  1.0000
  H   H6        1.0  0.7141909509987058  0.9021765422737926  0.09291684592946575  1.0000
  H   H7        1.0  0.6880230914483504  0.03185674588265639  0.2627796979921867  1.0000
  H   H8        1.0  0.8027642894749148  0.592878706688424  0.18888394334625494  1.0000
  H   H9        1.0  0.7772995060460629  0.5809495462738636  0.34794784483198515  1.0000
  H   H10       1.0  0.6979674541586576  0.40715054282204477  0.09355708515684573  1.0000
  H   H11       1.0  0.72337404991012  0.41496986790410517  0.26290661626995154  1.0000
  H   H12       1.0  0.6827715439718176  0.0154606265683483  0.7577524664551872  1.0000
  H   H13       1.0  0.09605605316004774  0.8739820029570637  0.721984480111473  1.0000
  H   H14       1.0  0.22329323745865537  0.04680900012100148  0.8914676545152599  1.0000
  H   H15       1.0  0.2735853072577399  0.1660880580604527  0.8228354934366705  1.0000
  H   H16       1.0  0.40075398098264264  0.12374463056058721  0.7768918334076389  1.0000
  H   H17       1.0  0.8064898996260366  0.90110297635114  0.7090059886598962  1.0000
  H   H18       1.0  0.8136471992894838  0.0821565670281927  0.7336283238493023  1.0000
  H   H19       1.0  0.8729200276981217  0.017413139141531503  0.916128649454123  1.0000
  H   H20       1.0  0.8448495339499259  0.9007248017811448  0.816780216641831  1.0000
  H   H21       1.0  0.8090605384317369  0.9004788090985018  0.9061111631241585  1.0000
  H   H22       1.0  0.31346228043108937  0.40893260140062887  0.7132063765778368  1.0000
  H   H23       1.0  0.15353797046216033  0.41822586669166373  0.6967119549747165  1.0000
  H   H24       1.0  0.4031089380898649  0.5950991474123056  0.7940903147387102  1.0000
  H   H25       1.0  0.23266253399965814  0.5828495645562484  0.8047203576271753  1.0000
  H   H26       1.0  0.31262039335597086  0.1139815641580242  0.4067702778779533  1.0000
  H   H27       1.0  0.15448754981989749  0.9323061272071981  0.23606157538048933  1.0000
  H   H28       1.0  0.40457782183693075  0.1047495343346938  0.3120904921812482  1.0000
  C   C1        1.0  0.3621586058660994  0.007809123790209998  0.1363769626201048  1.0000
  C   C2        1.0  0.6844557388265214  0.9879862252666314  0.7974193370614628  1.0000
  C   C3        1.0  0.27956312190750043  0.4462652699397225  0.7256509883745892  1.0000
  C   C4        1.0  0.6290886141517685  0.9904292262355764  0.8532672292306739  1.0000
  C   C5        1.0  0.1917683357136539  0.3866864270938919  0.6891115396156663  1.0000
  C   C6        1.0  0.3325332230959645  0.5562584366690614  0.7795601299300114  1.0000
  C   C7        1.0  0.3018769050125271  0.6148068590901231  0.8142290249784236  1.0000
  C   C8        1.0  0.27972860916295156  0.05748816271326969  0.3352934352579949  1.0000
  C   C9        1.0  0.1920607776589946  0.9923238087454606  0.3061395574177794  1.0000
  C   C10       1.0  0.3339614881147952  0.057987025864207495  0.2794319233341084  1.0000
  C   C11       1.0  0.30424165657900903  0.0064207606530928  0.19046690763084934  1.0000
  C   C12       1.0  0.1639698053126181  0.9293686249266456  0.7346255764020311  1.0000
  C   C13       1.0  0.7793573185486834  0.942984413701673  0.21910963574246275  1.0000
  C   C14       1.0  0.8173487798737682  0.010340302270655898  0.30783936773867987  1.0000
  C   C15       1.0  0.7245041921863942  0.9441397518308104  0.16392301071514462  1.0000
  C   C16       1.0  0.6411639522881954  0.272049581597301  0.13354128478848537  1.0000
  C   C17       1.0  0.6836244080259914  0.9915016876166189  0.19347075105297049  1.0000
  C   C18       1.0  0.7779982548272101  0.5542050936074218  0.22126466324726823  1.0000
  C   C19       1.0  0.8007794975803076  0.6129683883660134  0.3103722801775461  1.0000
  C   C20       1.0  0.7224964607177995  0.4441537929693806  0.16478706310152078  1.0000
  C   C21       1.0  0.6998949513261293  0.38395416938077886  0.19314245605880126  1.0000
  C   C22       1.0  0.13971245581507927  0.2750182886554242  0.6368862052102242  1.0000
  C   C23       1.0  0.23357295503734576  0.025426742287095298  0.8276518902125216  1.0000
  C   C24       1.0  0.859527759761896  0.7247909714250723  0.3643133073666362  1.0000
  C   C25       1.0  0.8720490269876109  0.0113700387222053  0.6466588036099594  1.0000
  C   C26       1.0  0.13933805263881982  0.996716690626279  0.3654154549863334  1.0000
  C   C27       1.0  0.8693484025616482  0.003752048718965303  0.3622868058980585  1.0000
  C   C28       1.0  0.359500410422747  0.7266108718669669  0.8669274051581438  1.0000
  C   C29       1.0  0.13595971964291909  0.9954479437732714  0.6408604029903556  1.0000
  C   C30       1.0  0.6303024726708556  0.9929839723514532  0.1351070772811482  1.0000
  C   C31       1.0  0.36140921683236366  0.0028392080864421006  0.8580532489942596  1.0000
  C   C32       1.0  0.2335348696677855  0.9058417042028494  0.7079080410444973  1.0000
  C   C33       1.0  0.2632411551711939  0.9723593301017743  0.6712647658794564  1.0000
  C   C34       1.0  0.263284485157989  0.09197023638940749  0.7910252945106462  1.0000
  C   C35       1.0  0.19253561930200627  0.9951442158556174  0.6976519054653989  1.0000
  C   C36       1.0  0.822238540246033  0.9356287119846344  0.8703224285584666  1.0000
  C   C37       1.0  0.33282563431348666  0.0684426664982354  0.7642790196811047  1.0000
  C   C38       1.0  0.3043264719999357  0.0026745768958705  0.8012210190236075  1.0000
  C   C39       1.0  0.7917913779972563  0.9581382120933026  0.7349669109738242  1.0000
  C   C40       1.0  0.8228909895058791  0.021159176409028594  0.709552073001049  1.0000
  C   C41       1.0  0.7388180614101713  0.9573246835674637  0.7927548096379267  1.0000
  O   O1        1.0  0.4972398796492142  0.0004387832016093028  0.9966201576524083  1.0000
  O   O2        1.0  0.056620385134849  0.9340381119272935  0.325804674849813  1.0000
  O   O3        1.0  0.8900920519386942  0.0645923184108526  0.44605515182233546  1.0000
  O   O4        1.0  0.32281898036602275  0.9482220330983606  0.052560139591889835  1.0000
  O   O5        1.0  0.17571777556882037  0.057361778106447  0.6198511063078342  1.0000
  O   O6        1.0  0.8886890444857157  0.9393782797166849  0.3228964817559188  1.0000
  O   O7        1.0  0.05341905420134908  0.9346865658808595  0.617918624513173  1.0000
  O   O8        1.0  0.8896367849895909  0.9455412964127986  0.621680740402233  1.0000
  O   O9        1.0  0.17881866814413164  0.060779330041384604  0.4490019499276271  1.0000
  O   O10       1.0  0.05698570169758444  0.23153004333043006  0.6128563808147759  1.0000
  O   O11       1.0  0.8851068317002412  0.7678238318119952  0.3243381705162064  1.0000
  O   O12       1.0  0.6164948979424734  0.22917786260291  0.0500842805504078  1.0000
  O   O13       1.0  0.6062377073393747  0.051295815986129895  0.8708567928597828  1.0000
  O   O14       1.0  0.6201528158257047  0.22814163964186918  0.17321602058238028  1.0000
  O   O15       1.0  0.4418692956354559  0.7687227591182616  0.8871177801695462  1.0000
  O   O16       1.0  0.6032876055163285  0.04963430394445819  0.17459219232345188  1.0000
  O   O17       1.0  0.3218268634852207  0.9389247164483479  0.8770771173976896  1.0000
  O   O18       1.0  0.6157987296179072  0.9393246230865981  0.051906395678997734  1.0000
  O   O19       1.0  0.4437368262195989  0.06567441048908759  0.8829416529394577  1.0000
  O   O20       1.0  0.7409499647434924  0.9182669287225022  0.837949490295564  1.0000
  O   O21       1.0  0.32035005493303703  0.7714038854010211  0.8875246491571216  1.0000
  O   O22       1.0  0.4446350953761852  0.0665101493006688  0.17619179864561116  1.0000
  O   O23       1.0  0.6074892145050298  0.9328512566951869  0.8793471232480455  1.0000
  O   O24       1.0  0.0027925578899541006  6.729044816470069e-05  0.5025148084458593  1.0000
  O   O25       1.0  0.17956775777629727  0.2313685573263768  0.6203070045514563  1.0000
  O   O26       1.0  0.8799821105833343  0.769126593550439  0.4483217349713867  1.0000
  O   O27       1.0  0.8928516843865778  0.0712920949263989  0.6230637256242416  1.0000
