data_image0
_chemical_formula_structural       Cd2H48C56N8O12
_chemical_formula_sum              "Cd2 H48 C56 N8 O12"
_cell_length_a       9.781454315387323
_cell_length_b       11.3490369224637
_cell_length_c       12.218005520057046
_cell_angle_alpha    102.33508865915535
_cell_angle_beta     106.85616843956548
_cell_angle_gamma    99.3289886191609

_space_group_name_H-M_alt    "P 1"
_space_group_IT_number       1

loop_
  _space_group_symop_operation_xyz
  'x, y, z'

loop_
  _atom_site_type_symbol
  _atom_site_label
  _atom_site_symmetry_multiplicity
  _atom_site_fract_x
  _atom_site_fract_y
  _atom_site_fract_z
  _atom_site_occupancy
  Cd  Cd1       1.0  0.35315681727065135  0.08432798091303079  0.8822335784378125  1.0000
  Cd  Cd2       1.0  0.646841347752698  0.9156723018642123  0.11776472210473801  1.0000
  H   H1        1.0  0.9104139732597004  0.1672405382589588  0.3738167456649463  1.0000
  H   H2        1.0  0.08959231282502592  0.8327700533671557  0.6261886785205204  1.0000
  H   H3        1.0  0.8065094746387518  0.2678206169605915  0.22076130889853834  1.0000
  H   H4        1.0  0.1934925858045276  0.7321862319694289  0.7792424137519233  1.0000
  H   H5        1.0  0.8371734637037208  0.49803717050271246  0.27068775868077927  1.0000
  H   H6        1.0  0.16282001627880763  0.5019696405825371  0.7293163705207916  1.0000
  H   H7        1.0  0.15304935218895824  0.15743053374904997  0.5137317155419224  1.0000
  H   H8        1.0  0.8469462986569879  0.8425762267533513  0.4862680095980139  1.0000
  H   H9        1.0  0.980149047554207  0.10234402354416261  0.5275898069091342  1.0000
  H   H10       1.0  0.019845508051183538  0.897662785123586  0.4724137592802363  1.0000
  H   H11       1.0  0.22730853943910737  0.4348914197588768  0.4270326569757116  1.0000
  H   H12       1.0  0.7727090897508901  0.5651136723332327  0.572971988581493  1.0000
  H   H13       1.0  0.37115330222730597  0.3501650008677331  0.580528083757045  1.0000
  H   H14       1.0  0.6288692881966256  0.6498466778335654  0.41948305991447643  1.0000
  H   H15       1.0  0.6990431224491687  0.31185086016638053  0.6267439932906669  1.0000
  H   H16       1.0  0.30096145217152065  0.6881495110384747  0.373258304762409  1.0000
  H   H17       1.0  0.782989370484465  0.4612170369820276  0.7263522512287961  1.0000
  H   H18       1.0  0.21702296072484017  0.538780734019788  0.27365959486136393  1.0000
  H   H19       1.0  0.5651576043159565  0.15899767684912544  0.697568760106023  1.0000
  H   H20       1.0  0.4348453830343715  0.8410008503913388  0.3024344544467112  1.0000
  H   H21       1.0  0.4976744798680031  0.3868448642760212  0.9884918698357053  1.0000
  H   H22       1.0  0.5023297972413233  0.61315468095205  0.011517570790197003  1.0000
  H   H23       1.0  0.6171486826388702  0.5376455678605155  0.8690024725341488  1.0000
  H   H24       1.0  0.3828622443468603  0.46235859839023163  0.13100449857605415  1.0000
  H   H25       1.0  0.7664578019897519  0.14675780102873404  0.5162017563670744  1.0000
  H   H26       1.0  0.23353419699895997  0.8532433451042395  0.4837944186944938  1.0000
  H   H27       1.0  0.8799782671473437  0.056557022050846194  0.6782321012929203  1.0000
  H   H28       1.0  0.12001562481112416  0.9434432017746484  0.3217635342426205  1.0000
  H   H29       1.0  0.7275226014684222  0.9027383164570537  0.7376926540886328  1.0000
  H   H30       1.0  0.27247531508781714  0.09726102597379337  0.26230459393368477  1.0000
  H   H31       1.0  0.5863996416211067  0.7219910897905136  0.703715819647634  1.0000
  H   H32       1.0  0.4136001728093177  0.2780073188958951  0.2962800693393532  1.0000
  H   H33       1.0  0.40354737073069913  0.6722771007520902  0.7008601099129164  1.0000
  H   H34       1.0  0.5964550722619678  0.3277232295399343  0.2991400361273406  1.0000
  H   H35       1.0  0.3038441643238912  0.9075009217527068  0.06908881241926686  1.0000
  H   H36       1.0  0.6961532258715836  0.0924966086071208  0.9309112476184254  1.0000
  H   H37       1.0  0.844133385095006  0.8034562809556361  0.8896587152033033  1.0000
  H   H38       1.0  0.15586671541711894  0.1965394072067355  0.11034082879453422  1.0000
  H   H39       1.0  0.9830767324896712  0.9430163427339338  0.7706156918534502  1.0000
  H   H40       1.0  0.016920710033659202  0.0569774924445881  0.22938451214694305  1.0000
  H   H41       1.0  0.9578199944044102  0.7900480292209479  0.11597526113637006  1.0000
  H   H42       1.0  0.0421751873928002  0.20993740002484168  0.8840195677284723  1.0000
  H   H43       1.0  0.14959831849918004  0.8028205438353878  0.16543964894086122  1.0000
  H   H44       1.0  0.8503948412301626  0.1971574426979927  0.8345524963272622  1.0000
  H   H45       1.0  0.15183328648328143  0.6363101178974588  0.9230297677781036  1.0000
  H   H46       1.0  0.8481587223940252  0.36367519279428245  0.07695773552098474  1.0000
  H   H47       1.0  0.11151899883017077  0.40562438939740264  0.8543598704196282  1.0000
  H   H48       1.0  0.8884694970968499  0.5943636490708853  0.14562566690522522  1.0000
  C   C1        1.0  0.010629439857957777  0.3397812941827637  0.5128738272595754  1.0000
  C   C2        1.0  0.9893656273949247  0.6602273608668836  0.487129385442337  1.0000
  C   C3        1.0  0.9312716407398439  0.26816422562517067  0.39768607558795566  1.0000
  C   C4        1.0  0.06873042951228571  0.7318426004309232  0.6023160080438998  1.0000
  C   C5        1.0  0.8697552339719721  0.3264529054134257  0.31049191943218085  1.0000
  C   C6        1.0  0.13024316480522202  0.6735483520210862  0.6895098921585258  1.0000
  C   C7        1.0  0.8864573915999188  0.4533814734956536  0.3374346267375117  1.0000
  C   C8        1.0  0.11353692044278323  0.546624383388739  0.6625670674223159  1.0000
  C   C9        1.0  0.9681985761529719  0.5281017338531484  0.4548467605743838  1.0000
  C   C10       1.0  0.0317925139255806  0.4719041188468012  0.5451558031127561  1.0000
  C   C11       1.0  0.0883561273756754  0.16838590725546246  0.5741285751495013  1.0000
  C   C12       1.0  0.9116395087569986  0.8316208875578182  0.4258736085183514  1.0000
  C   C13       1.0  0.165758496833476  0.13550856050125756  0.6866616111499652  1.0000
  C   C14       1.0  0.8342400506595241  0.8645010162053097  0.31334014552626144  1.0000
  C   C15       1.0  0.3472687814743694  0.4637224480597056  0.4588028078341395  1.0000
  C   C16       1.0  0.6527519879253701  0.5362864120199261  0.5412057412888841  1.0000
  C   C17       1.0  0.4285617963576201  0.41563700388365993  0.5454391776552754  1.0000
  C   C18       1.0  0.571454327236694  0.5843782930082996  0.4545686440523298  1.0000
  C   C19       1.0  0.5824773829339095  0.45117852377795475  0.5872689952413096  1.0000
  C   C20       1.0  0.41753985880227873  0.5488330983891032  0.41274004643539536  1.0000
  C   C21       1.0  0.6759670267886335  0.3955981497146224  0.6750862766750527  1.0000
  C   C22       1.0  0.324045793166853  0.604405094228646  0.3249201549091154  1.0000
  C   C23       1.0  0.5633315233016418  0.2399227979753319  0.7624525565707926  1.0000
  C   C24       1.0  0.4366751878514918  0.7600776027053938  0.2375510739857916  1.0000
  C   C25       1.0  0.529869978251945  0.3625799990384095  0.9105700621166548  1.0000
  C   C26       1.0  0.47014454505929143  0.6374212450074523  0.0894249433095879  1.0000
  C   C27       1.0  0.5878139450317691  0.43747401504580796  0.8523504390331951  1.0000
  C   C28       1.0  0.4121848919062927  0.562513447757702  0.14765627896577627  1.0000
  C   C29       1.0  0.545240561161215  0.04504821765376478  0.4842327237873505  1.0000
  C   C30       1.0  0.4547533062751299  0.9549520633565365  0.51576700929472  1.0000
  C   C31       1.0  0.6994428905025245  0.0806642859930449  0.5436476996269022  1.0000
  C   C32       1.0  0.3005496773659715  0.9193349999035617  0.4563474464006134  1.0000
  C   C33       1.0  0.7613731217917064  0.0287939028069957  0.6325069472084834  1.0000
  C   C34       1.0  0.2386220844478828  0.9712072818213145  0.3674908168536959  1.0000
  C   C35       1.0  0.674903070526284  0.9402339923118103  0.6660171578696249  1.0000
  C   C36       1.0  0.32509322604943963  0.059767155588105005  0.3339775846524304  1.0000
  C   C37       1.0  0.5240512307543383  0.9024499128556724  0.6078714987204492  1.0000
  C   C38       1.0  0.4759413224008783  0.0975494073518206  0.3921261058349828  1.0000
  C   C39       1.0  0.4908507387118277  0.7546595484187505  0.7171269624196908  1.0000
  C   C40       1.0  0.5091512024421977  0.24533891261744864  0.28287189808941804  1.0000
  C   C41       1.0  0.5303983071352577  0.8315686558305514  0.846205541454566  1.0000
  C   C42       1.0  0.4696041979941299  0.16842795640624084  0.1537931095297935  1.0000
  C   C43       1.0  0.198872492241648  0.8983800610491739  0.0024663644938698105  1.0000
  C   C44       1.0  0.801127526516062  0.1016193909162695  0.9975379525970991  1.0000
  C   C45       1.0  0.958731368543546  0.8449625307350174  0.9059493063741326  1.0000
  C   C46       1.0  0.041261532830091596  0.15503035089320596  0.09405045813623758  1.0000
  C   C47       1.0  0.028495799171288545  0.9152338286108088  0.8502099630878204  1.0000
  C   C48       1.0  0.9715010613797971  0.0847654704896996  0.14978456990948522  1.0000
  C   C49       1.0  0.04912293269713072  0.7676731910271496  0.08693718311314302  1.0000
  C   C50       1.0  0.9508727754608441  0.23231405028966623  0.913054833736325  1.0000
  C   C51       1.0  0.02230482318848463  0.629114225943411  0.03874496111966867  1.0000
  C   C52       1.0  0.9776815362060917  0.3708737830490065  0.9612392437016765  1.0000
  C   C53       1.0  0.08437801001329599  0.5765704281562805  0.9563006769585697  1.0000
  C   C54       1.0  0.9156115288264246  0.4234212573279663  0.04368087535414837  1.0000
  C   C55       1.0  0.06247506546400671  0.4480990269151732  0.9177570268326818  1.0000
  C   C56       1.0  0.9375132114224555  0.5518880025849596  0.08222254091610641  1.0000
  N   N1        1.0  0.5154580082292455  0.2395233196542108  0.8540272254125085  1.0000
  N   N2        1.0  0.4845452128749273  0.7604761822435295  0.14597950018837488  1.0000
  N   N3        1.0  0.6090850635081395  0.35842960377826216  0.7588409258596724  1.0000
  N   N4        1.0  0.39092000314234804  0.6415726595563455  0.2411642967431717  1.0000
  N   N5        1.0  0.17795964903830708  0.9481415766743522  0.9112826080828427  1.0000
  N   N6        1.0  0.8220379847198557  0.05185690546883138  0.08871932398438527  1.0000
  N   N7        1.0  0.06864694768254512  0.8358329632416073  0.002254592154500379  1.0000
  N   N8        1.0  0.9313518238351861  0.1641617984288359  0.9977452818446151  1.0000
  O   O1        1.0  0.496538959838233  0.9345956550985403  0.8688667093278184  1.0000
  O   O2        1.0  0.5034627279442533  0.06540187702822918  0.13113191817036104  1.0000
  O   O3        1.0  0.597044240764788  0.7820370861155014  0.9238492763184637  1.0000
  O   O4        1.0  0.40295371831047083  0.21795858400795962  0.0761497546851686  1.0000
  O   O5        1.0  0.1860812215823273  0.2072635172022927  0.7876931665629812  1.0000
  O   O6        1.0  0.8139186598094882  0.792746974559236  0.21230744060265747  1.0000
  O   O7        1.0  0.2067397658185897  0.03390251483658349  0.6707505580927487  1.0000
  O   O8        1.0  0.793257691338283  0.9661070985983712  0.32925422012360184  1.0000
  O   O9        1.0  0.4308998765312424  0.8149073696080649  0.6296587416082885  1.0000
  O   O10       1.0  0.569097767035764  0.1850910896611921  0.3703415514403261  1.0000
  O   O11       1.0  0.07412132844479662  0.2933382935599482  0.6043040122526405  1.0000
  O   O12       1.0  0.9258743076878772  0.7066685012533327  0.3956981714152192  1.0000
