data_image0
_chemical_formula_structural       Ag2H46C62S2N16O10
_chemical_formula_sum              "Ag2 H46 C62 S2 N16 O10"
_cell_length_a       12.463593100747525
_cell_length_b       12.463590579471855
_cell_length_c       12.713793372413809
_cell_angle_alpha    115.33175790026834
_cell_angle_beta     117.30135127510485
_cell_angle_gamma    95.4904131811034

_space_group_name_H-M_alt    "P 1"
_space_group_IT_number       1

loop_
  _space_group_symop_operation_xyz
  'x, y, z'

loop_
  _atom_site_type_symbol
  _atom_site_label
  _atom_site_symmetry_multiplicity
  _atom_site_fract_x
  _atom_site_fract_y
  _atom_site_fract_z
  _atom_site_occupancy
  Ag  Ag1       1.0  0.378033084372568  0.18276534573111994  0.9278426192463127  1.0000
  Ag  Ag2       1.0  0.24507801043920813  0.5498071398583448  0.42784162968952427  1.0000
  H   H1        1.0  0.9413706868771571  0.42870486172468225  0.852080304910572  1.0000
  H   H2        1.0  0.9233735189165202  0.9107076230814356  0.352079520156259  1.0000
  H   H3        1.0  0.9247010021758586  0.1669651930854457  0.5792874105830919  1.0000
  H   H4        1.0  0.9123221554147919  0.654586734076801  0.07928553077429255  1.0000
  H   H5        1.0  0.8265061987664811  0.2598538979042715  0.010841587283437147  1.0000
  H   H6        1.0  0.25098695498260076  0.18433400557367458  0.5108399786362057  1.0000
  H   H7        1.0  0.23655698719517915  0.3913434606874234  0.08087998595171801  1.0000
  H   H8        1.0  0.1895349225286652  0.8443233650614418  0.5808805374596558  1.0000
  H   H9        1.0  0.17147384509591748  0.28533140617231817  0.15090155675778041  1.0000
  H   H10       1.0  0.3655693882442961  0.9794262168675089  0.6508998322502462  1.0000
  H   H11       1.0  0.1439796950917369  0.1699498313393946  0.24124527997341966  1.0000
  H   H12       1.0  0.5712961574326058  0.097265404303819  0.7412443354080194  1.0000
  H   H13       1.0  0.08548242140185636  0.5113797973010036  0.5277458824006728  1.0000
  H   H14       1.0  0.5163675492140172  0.442263679905416  0.027745068801998157  1.0000
  H   H15       1.0  0.37354753258564  0.7122813557837587  0.035347713341970254  1.0000
  H   H16       1.0  0.8230632454918024  0.6618001780390086  0.5353452011826146  1.0000
  H   H17       1.0  0.8501661631155316  0.40294224222790104  0.4061805002642342  1.0000
  H   H18       1.0  0.503237412019736  0.5560151190227315  0.9061798030348098  1.0000
  H   H19       1.0  0.35771145462282317  0.5550381171806222  0.10128911416668977  1.0000
  H   H20       1.0  0.04624876435956078  0.7435772404258785  0.6012894329277428  1.0000
  H   H21       1.0  0.24394481462356774  0.4516375914980911  0.6799144613162226  1.0000
  H   H22       1.0  0.7282758149667573  0.43596952536932315  0.17991162010828535  1.0000
  H   H23       1.0  0.0080670261577112  0.05736637844904639  0.28190637764178916  1.0000
  H   H24       1.0  0.7245404460901953  0.2738383532113673  0.7819062189761182  1.0000
  H   H25       1.0  0.1714618228410102  0.7283223089533093  0.8728672598130272  1.0000
  H   H26       1.0  0.6445403560066154  0.7014034257890598  0.37286337268720604  1.0000
  H   H27       1.0  0.6831872790381085  0.2589649879217361  0.3576459863036091  1.0000
  H   H28       1.0  0.5986797873543495  0.6744579193220517  0.8576444476911289  1.0000
  H   H29       1.0  0.7782364793177479  0.0448273346753965  0.18845792244346157  1.0000
  H   H30       1.0  0.6436319560223751  0.4102211247820265  0.6884580945780667  1.0000
  H   H31       1.0  0.5094490561005856  0.15314269367069497  0.2871188384124678  1.0000
  H   H32       1.0  0.6339744763293355  0.7776692283570412  0.7871174411871775  1.0000
  H   H33       1.0  0.5469555468565376  0.9306567333326684  0.4165625604307977  1.0000
  H   H34       1.0  0.9859051038781104  0.8696077790620292  0.9165637586475197  1.0000
  H   H35       1.0  0.10588857951337613  0.931149481555394  0.14151063845568482  1.0000
  H   H36       1.0  0.7103612379388836  0.03562307957143669  0.6415114384887842  1.0000
  H   H37       1.0  0.29875534770142315  0.08120385748278378  0.19712128981937832  1.0000
  H   H38       1.0  0.6159168592885322  0.8983661725506805  0.6971209968560074  1.0000
  H   H39       1.0  0.13237814981309265  0.7822292316744209  0.22383754557058916  1.0000
  H   H40       1.0  0.9416107001737046  0.09145909196470108  0.7238406402198264  1.0000
  H   H41       1.0  0.486166662765065  0.5603781130384888  0.420950359104168  1.0000
  H   H42       1.0  0.3605726232436551  0.9347850843790153  0.9209506775958256  1.0000
  H   H43       1.0  0.6277613689549569  0.5412008574479474  0.4208955946159064  1.0000
  H   H44       1.0  0.37969433880402903  0.7931362365158706  0.9208962735424532  1.0000
  H   H45       1.0  0.5742741275687989  0.47962708153370665  0.4985195499877759  1.0000
  H   H46       1.0  0.5188955145788725  0.9242484446981009  0.9985234187748301  1.0000
  C   C1        1.0  0.14873401921932577  0.48268790505545667  0.9840461096610438  1.0000
  C   C2        1.0  0.0013563454694036662  0.8353118924271568  0.48404676423488957  1.0000
  C   C3        1.0  0.04530567752188121  0.3417555698433006  0.027190661731175677  1.0000
  C   C4        1.0  0.18543318544346482  0.9818841478442549  0.5271906270949527  1.0000
  C   C5        1.0  0.03569469119018008  0.49056132527670115  0.8926353617472882  1.0000
  C   C6        1.0  0.9020716554785295  0.8569400208958414  0.39263440004094735  1.0000
  C   C7        1.0  0.9946388930177364  0.22116851529027312  0.12087211104434922  1.0000
  C   C8        1.0  0.3997032119215547  0.12623156509561537  0.6208692221711158  1.0000
  C   C9        1.0  0.9595362200827681  0.24215360631691846  0.5683113598435411  1.0000
  C   C10       1.0  0.826157159859605  0.6087747908089297  0.06830930868302691  1.0000
  C   C11       1.0  0.8664501192078478  0.21552148313040928  0.06944194557369338  1.0000
  C   C12       1.0  0.35392001764421377  0.20298761048530878  0.5694384814713443  1.0000
  C   C13       1.0  0.8709611821199561  0.2779299119920039  0.4850394612802729  1.0000
  C   C14       1.0  0.7071085585881036  0.6140778172938254  0.9850368213493821  1.0000
  C   C15       1.0  0.09299340715897837  0.30584212425050333  0.6376862065117235  1.0000
  C   C16       1.0  0.831845452136463  0.5446941063918728  0.13768585469431827  1.0000
  C   C17       1.0  0.0436390786254464  0.16383926040048638  0.19843228568584684  1.0000
  C   C18       1.0  0.5345939426824844  0.15479265412209733  0.698430439616885  1.0000
  C   C19       1.0  0.051028193353296586  0.4358394499485597  0.5390914582760685  1.0000
  C   C20       1.0  0.603251745225137  0.4880628437181329  0.03908918672804864  1.0000
  C   C21       1.0  0.18175465836478819  0.27246582848720635  0.7264719524729697  1.0000
  C   C22       1.0  0.9540052048263592  0.5447169203005798  0.22647133165601488  1.0000
  C   C23       1.0  0.7907312290166858  0.1527074798332535  0.09521463399859435  1.0000
  C   C24       1.0  0.442507197072679  0.3044805418219241  0.5952103503345965  1.0000
  C   C25       1.0  0.27792592368558633  0.6497168391830923  0.9925818142857987  1.0000
  C   C26       1.0  0.8428617489954604  0.7146566456061905  0.4925797090662201  1.0000
  C   C27       1.0  0.045657431592466845  0.5785910792032353  0.8534413030612878  1.0000
  C   C28       1.0  0.7748457573745497  0.8077819055694209  0.35343649949301453  1.0000
  C   C29       1.0  0.9282232888834586  0.5795983901230954  0.756337266076393  1.0000
  C   C30       1.0  0.6767356052382354  0.828114362435649  0.2563339238553296  1.0000
  C   C31       1.0  0.9188730705363781  0.374826093350407  0.4708463283032102  1.0000
  C   C32       1.0  0.5960192917444759  0.5519741784093454  0.9708448910447128  1.0000
  C   C33       1.0  0.26980465201460646  0.5621074619826841  0.031595175712226316  1.0000
  C   C34       1.0  0.9694867499424265  0.7617913247999937  0.531594916285556  1.0000
  C   C35       1.0  0.14029661460467927  0.40290687701469335  0.6243317400190092  1.0000
  C   C36       1.0  0.7214248385541496  0.48403511388455206  0.12432997834657306  1.0000
  C   C37       1.0  0.9666940366955857  0.10043760416682798  0.22145206570215245  1.0000
  C   C38       1.0  0.6210143909215803  0.2547571865305827  0.7214505084095532  1.0000
  C   C39       1.0  0.16632932512444404  0.6599339255332666  0.9037971602849522  1.0000
  C   C40       1.0  0.7438594845152124  0.7374688622311966  0.40379522952182595  1.0000
  C   C41       1.0  0.6682088717770966  0.13407346354372857  0.4200325473702549  1.0000
  C   C42       1.0  0.7859594737706673  0.7518244955201183  0.9200329968476023  1.0000
  C   C43       1.0  0.6643182310028664  0.15701253355030784  0.04551689720312174  1.0000
  C   C44       1.0  0.38850449500444034  0.3811940558984332  0.545513804602926  1.0000
  C   C45       1.0  0.8387430652939117  0.09323778468824877  0.16989525969012922  1.0000
  C   C46       1.0  0.576656412990154  0.3311512892971322  0.6698914570195028  1.0000
  C   C47       1.0  0.45142695686268997  0.9318941535967298  0.35743418655326303  1.0000
  C   C48       1.0  0.9255414118771413  0.9060082773654655  0.8574359408588561  1.0000
  C   C49       1.0  0.2024294213124023  0.9316909964919873  0.2017436360588007  1.0000
  C   C50       1.0  0.7700524948754789  0.9993140901077947  0.701743811968775  1.0000
  C   C51       1.0  0.31000272504875437  0.014580888808104897  0.23225581434769532  1.0000
  C   C52       1.0  0.7176760742626198  0.9222528296637191  0.732256148099324  1.0000
  C   C53       1.0  0.4356994266346064  0.016438630387284495  0.3108621500917365  1.0000
  C   C54       1.0  0.7944234275518556  0.8751615283922406  0.8108614190999504  1.0000
  C   C55       1.0  0.3535935767473646  0.7606260447721382  0.36881464336750713  1.0000
  C   C56       1.0  0.1081904549050421  0.015222712418527398  0.868818814290641  1.0000
  C   C57       1.0  0.3411490998670386  0.8484668841808154  0.3247457704161999  1.0000
  C   C58       1.0  0.9762802914488804  0.9835987270723338  0.8247500134852005  1.0000
  C   C59       1.0  0.21616008824280897  0.8474229307976556  0.24739361764839152  1.0000
  C   C60       1.0  0.8999710527585594  0.031233017014656587  0.7473951708786828  1.0000
  C   C61       1.0  0.5427282701415734  0.4986341279926521  0.41480081941707425  1.0000
  C   C62       1.0  0.4161702963920177  0.8720766999788551  0.9148054197119461  1.0000
  S   S1        1.0  0.4458604292966371  0.352957576028956  0.25094424693546097  1.0000
  S   S2        1.0  0.39798825483154593  0.8050858024040508  0.750946794043102  1.0000
  N   N1        1.0  0.1482531993478773  0.3993163224283265  0.03043214714382003  1.0000
  N   N2        1.0  0.1311143081275218  0.8821777784243208  0.5304311991789986  1.0000
  N   N3        1.0  0.0772452007162485  0.2821635790396257  0.10136768120500504  1.0000
  N   N4        1.0  0.3192038357601277  0.024120979066054808  0.6013678448221853  1.0000
  N   N5        1.0  0.8303538094869936  0.5761818447116765  0.6741088187258198  1.0000
  N   N6        1.0  0.5979233193829785  0.843755820820611  0.17410474947830304  1.0000
  N   N7        1.0  0.25506241383381933  0.24722482133336135  0.8016270281274273  1.0000
  N   N8        1.0  0.05440338612898902  0.5465665486234741  0.3016283917275614  1.0000
  N   N9        1.0  0.7371403990550149  0.22284020364838134  0.41345945428342634  1.0000
  N   N10       1.0  0.6906189171770266  0.6763193497418171  0.9134576457501918  1.0000
  N   N11       1.0  0.5364735432284036  0.10287503876678976  0.3351402471976782  1.0000
  N   N12       1.0  0.7322640839066781  0.798666584570903  0.8351404258460987  1.0000
  N   N13       1.0  0.3577580305542796  0.6860472020793792  0.40183299235795983  1.0000
  N   N14       1.0  0.2157863412396139  0.0440773675487094  0.9018340102911535  1.0000
  N   N15       1.0  0.5633417706108618  0.1671530600455853  0.004270275555619233  1.0000
  N   N16       1.0  0.3371171075258772  0.44092690895096337  0.5042699966232076  1.0000
  O   O1        1.0  0.9358274997319285  0.34500417301707387  0.9650986239728991  1.0000
  O   O2        1.0  0.12009443970860902  0.029272774957249198  0.46510226199981713  1.0000
  O   O3        1.0  0.7189666898353195  0.08965259986041468  0.4927118166157455  1.0000
  O   O4        1.0  0.903059035298483  0.7737461670756858  0.9927110272479636  1.0000
  O   O5        1.0  0.33394179133950536  0.29024827033182987  0.24320649952942827  1.0000
  O   O6        1.0  0.4529589265028092  0.9092659242822588  0.7432081021814692  1.0000
  O   O7        1.0  0.4060022192487836  0.3866935504967729  0.1436009143680934  1.0000
  O   O8        1.0  0.25690768162860417  0.737598461092382  0.6436032258418434  1.0000
  O   O9        1.0  0.5297178466730584  0.2772898437638388  0.24578022687231987  1.0000
  O   O10       1.0  0.4684909490295368  0.7160631592814538  0.7457816182979042  1.0000
