data_image0
_chemical_formula_structural       Cu4H40W2C56N24
_chemical_formula_sum              "Cu4 H40 W2 C56 N24"
_cell_length_a       13.294807748918382
_cell_length_b       15.313188399184147
_cell_length_c       15.308956313549835
_cell_angle_alpha    79.204769046296
_cell_angle_beta     64.3911963404973
_cell_angle_gamma    64.34152996549935

_space_group_name_H-M_alt    "P 1"
_space_group_IT_number       1

loop_
  _space_group_symop_operation_xyz
  'x, y, z'

loop_
  _atom_site_type_symbol
  _atom_site_label
  _atom_site_symmetry_multiplicity
  _atom_site_fract_x
  _atom_site_fract_y
  _atom_site_fract_z
  _atom_site_occupancy
  Cu  Cu1       1.0  0.5004669325059155  4.817796331479999e-05  0.00038782046186724826  1.0000
  Cu  Cu2       1.0  0.5009415444556495  0.4999998277143334  0.4997126192821355  1.0000
  Cu  Cu3       1.0  0.0005984676648723614  0.00013576066197630004  0.5000923981824457  1.0000
  Cu  Cu4       1.0  0.5010996356422271  0.49956577836313437  0.9999339509842926  1.0000
  H   H1        1.0  0.6379445224396533  0.9655871914427726  0.7855249388650377  1.0000
  H   H2        1.0  0.656431871540981  0.7903167981849608  0.026064059017393525  1.0000
  H   H3        1.0  0.8159332525482698  0.6484430281435393  0.9242876581623066  1.0000
  H   H4        1.0  0.8892729488593221  0.6655280813130062  0.7414359888996954  1.0000
  H   H5        1.0  0.7981772552890048  0.8290988779373906  0.6723143071680723  1.0000
  H   H6        1.0  0.3891226546942193  0.5347352995728017  0.7145688918260049  1.0000
  H   H7        1.0  0.47310688874009077  0.7099225303712728  0.4740478582731312  1.0000
  H   H8        1.0  0.3886242199309109  0.8520200186468044  0.5758064460834121  1.0000
  H   H9        1.0  0.2959611158511991  0.8350747150417703  0.7586203278936666  1.0000
  H   H10       1.0  0.2993595537546128  0.6714581131961098  0.8277826299490841  1.0000
  H   H11       1.0  0.10324478041977157  0.7853642125520184  0.5348424306582445  1.0000
  H   H12       1.0  0.9474011101400993  0.026306165168904296  0.7094748199095735  1.0000
  H   H13       1.0  0.9649566867725666  0.9248507239104882  0.8515920286723995  1.0000
  H   H14       1.0  0.05487781490712237  0.7419233759413334  0.8350150570201365  1.0000
  H   H15       1.0  0.126899659536548  0.6724118272873694  0.6716545230435997  1.0000
  H   H16       1.0  0.4235957388923666  0.7144819769240556  0.9652278685331411  1.0000
  H   H17       1.0  0.6827232785091866  0.4741165540129302  0.7900061469264517  1.0000
  H   H18       1.0  0.7404187087336922  0.5760389144320257  0.6482023732760069  1.0000
  H   H19       1.0  0.6310107848189542  0.7588710231910057  0.6653434293493065  1.0000
  H   H20       1.0  0.4707182306933292  0.8278400748207134  0.8288420281214782  1.0000
  H   H21       1.0  0.3582473648482463  0.0363117697697888  0.21515408385097595  1.0000
  H   H22       1.0  0.3410898207058749  0.21122994543011941  0.974433657564319  1.0000
  H   H23       1.0  0.1822912224082814  0.35373670532845125  0.07600652196612154  1.0000
  H   H24       1.0  0.10904140419628311  0.3369748963853  0.25881174062750734  1.0000
  H   H25       1.0  0.19906697822408148  0.1733441376773399  0.3283467480847975  1.0000
  H   H26       1.0  0.6100041297882722  0.4635773245169618  0.2848164271747109  1.0000
  H   H27       1.0  0.5266902063936032  0.28879337561438234  0.525537595739884  1.0000
  H   H28       1.0  0.6119000326846302  0.14617018396767634  0.4240162667735277  1.0000
  H   H29       1.0  0.7049211411734291  0.16276131732845306  0.24120236858029637  1.0000
  H   H30       1.0  0.701032141019425  0.32638850418976517  0.17167762871167713  1.0000
  H   H31       1.0  0.8955247028970704  0.21484024642020227  0.4635041763630737  1.0000
  H   H32       1.0  0.05188947889072158  0.9740014790102621  0.28896831453611344  1.0000
  H   H33       1.0  0.03538677397489919  0.0755175953871614  0.1464013468997294  1.0000
  H   H34       1.0  0.9459233617730121  0.2583864845320393  0.16291963438365548  1.0000
  H   H35       1.0  0.8732418060104763  0.32797523002902546  0.32639712636920837  1.0000
  H   H36       1.0  0.5737434591630122  0.28474654833834734  0.036378981896618263  1.0000
  H   H37       1.0  0.31554954937497093  0.5254080891880264  0.2110129184168129  1.0000
  H   H38       1.0  0.25824603198021384  0.4237772970679714  0.3534909186589346  1.0000
  H   H39       1.0  0.36787815979221244  0.240983751325146  0.3368929686960485  1.0000
  H   H40       1.0  0.5277237252103647  0.17150864977715946  0.1734241427521184  1.0000
  W   W1        1.0  0.6263943937943852  0.24987756031796948  0.7499275097120944  1.0000
  W   W2        1.0  0.37611244740087096  0.750003619542099  0.25005969056140037  1.0000
  C   C1        1.0  0.5820060338801128  0.1452827232962335  0.8530024683998717  1.0000
  C   C2        1.0  0.6796113741109409  0.8938303810651363  0.8127259801885671  1.0000
  C   C3        1.0  0.42931966290183937  0.31619584362510983  0.817467062433913  1.0000
  C   C4        1.0  0.689838303829305  0.7965872237038808  0.9475064395813888  1.0000
  C   C5        1.0  0.7799527000239834  0.7167058262536942  0.8892811683078462  1.0000
  C   C6        1.0  0.8198629630491254  0.7269111208120692  0.7889740255423305  1.0000
  C   C7        1.0  0.7691987038474505  0.8172550530887366  0.7502621498578038  1.0000
  C   C8        1.0  0.5800680203950462  0.3546213899408104  0.647117426905595  1.0000
  C   C9        1.0  0.3862630649289754  0.6065011057754789  0.6873544137755729  1.0000
  C   C10       1.0  0.5629318160782262  0.1833840873213148  0.6825446304363325  1.0000
  C   C11       1.0  0.43409927434210976  0.7037120278061193  0.5525993967083737  1.0000
  C   C12       1.0  0.3859295683028065  0.7837345254816911  0.6108160195893646  1.0000
  C   C13       1.0  0.33561352005897754  0.7735708117351907  0.7111096890896533  1.0000
  C   C14       1.0  0.33663288595980834  0.6832092343705797  0.7498334677394497  1.0000
  C   C15       1.0  0.22708532266157985  0.8528461291610014  0.3548198172117195  1.0000
  C   C16       1.0  0.07334289887113232  0.8127186663677792  0.6065146076602019  1.0000
  C   C17       1.0  0.24553491599158417  0.8174937596601453  0.18343092550800588  1.0000
  C   C18       1.0  0.986832649886928  0.9477269714012949  0.7034051979828606  1.0000
  C   C19       1.0  0.997061550294191  0.8896481293202997  0.7834483038140689  1.0000
  C   C20       1.0  0.04685336527894182  0.7893245638031985  0.7734988668276372  1.0000
  C   C21       1.0  0.08630946778706772  0.7503887315402977  0.6832776200955308  1.0000
  C   C22       1.0  0.4346888528843349  0.6469841326688198  0.14539381309325  1.0000
  C   C23       1.0  0.4925371905678802  0.687348242477995  0.8935229440556468  1.0000
  C   C24       1.0  0.24642362423265496  0.6824202878528141  0.3163659432304443  1.0000
  C   C25       1.0  0.6375120943223678  0.5526718239511724  0.7963016073402828  1.0000
  C   C26       1.0  0.669439149135549  0.6109752274701706  0.7164392117251381  1.0000
  C   C27       1.0  0.6090471907939445  0.7112712968909777  0.7266897738246029  1.0000
  C   C28       1.0  0.5196770074709176  0.7499009294374303  0.8169828634756442  1.0000
  C   C29       1.0  0.42055919846836787  0.8548174077706818  0.14804406984291046  1.0000
  C   C30       1.0  0.3167933408278287  0.1081556550075149  0.18798796680103885  1.0000
  C   C31       1.0  0.5731262663170185  0.6843084925264408  0.18220293083060574  1.0000
  C   C32       1.0  0.3072843809746146  0.20518613191788404  0.053053162862319404  1.0000
  C   C33       1.0  0.21779238546450583  0.28538597314844344  0.11107949395557173  1.0000
  C   C34       1.0  0.17791648003771604  0.275350270316885  0.21142131122361008  1.0000
  C   C35       1.0  0.22790751299667986  0.18498353255738925  0.2503728203705151  1.0000
  C   C36       1.0  0.42339260252097666  0.6451928475110905  0.3520630427336116  1.0000
  C   C37       1.0  0.6131328703975427  0.3917420928520416  0.31202166409536863  1.0000
  C   C38       1.0  0.43934479171503676  0.8160825058693535  0.3180711615453263  1.0000
  C   C39       1.0  0.5655699950287173  0.2947972772943785  0.44692561895092814  1.0000
  C   C40       1.0  0.6142135662709051  0.21450547016638674  0.3889112158950425  1.0000
  C   C41       1.0  0.6647695574635292  0.2244548089190417  0.28858718254439725  1.0000
  C   C42       1.0  0.6634483632239779  0.3148060659766472  0.24964457507940818  1.0000
  C   C43       1.0  0.7754781338290544  0.14779162245859823  0.6450725927960477  1.0000
  C   C44       1.0  0.9255994498449454  0.18761414228818304  0.3917232885085297  1.0000
  C   C45       1.0  0.7577204044104988  0.18200949076068443  0.815783771889862  1.0000
  C   C46       1.0  0.012373122473043499  0.0526291713694746  0.2949081025388196  1.0000
  C   C47       1.0  0.002872657969440702  0.11066852981728911  0.2146637136871874  1.0000
  C   C48       1.0  0.9532866103727641  0.21100814426704775  0.22457144824110736  1.0000
  C   C49       1.0  0.9134184593312826  0.25000535717480693  0.31483574318311014  1.0000
  C   C50       1.0  0.568962333505219  0.35182951125629114  0.8547422345627423  1.0000
  C   C51       1.0  0.5050777851151481  0.3119021743539677  0.1081626304696783  1.0000
  C   C52       1.0  0.7555436029490038  0.3179258626035378  0.6839637516119267  1.0000
  C   C53       1.0  0.3605107835892838  0.4467932856888767  0.20503274039545266  1.0000
  C   C54       1.0  0.3289228917063767  0.3887227006289252  0.2852140721041251  1.0000
  C   C55       1.0  0.3894483095410449  0.28838976450927595  0.27526216984407625  1.0000
  C   C56       1.0  0.4785231484103889  0.24947518511372382  0.18500464792592913  1.0000
  N   N1        1.0  0.6399767906116196  0.8833199349545781  0.9098741324820663  1.0000
  N   N2        1.0  0.5543877413331871  0.0875495593971962  0.9088573505028137  1.0000
  N   N3        1.0  0.32305724889384624  0.35311297564024363  0.8565883581014617  1.0000
  N   N4        1.0  0.433373539089274  0.6169517492256419  0.5902200053007007  1.0000
  N   N5        1.0  0.5500439351721836  0.4127827097741489  0.591698388685991  1.0000
  N   N6        1.0  0.5327113572999949  0.14633655492094993  0.6432940875956348  1.0000
  N   N7        1.0  0.023463154210723834  0.9098970168267685  0.6167752922415275  1.0000
  N   N8        1.0  0.1419141428372296  0.908571307331073  0.41264184009923355  1.0000
  N   N9        1.0  0.17622338758369704  0.8566964102608735  0.14631683629650644  1.0000
  N   N10       1.0  0.5500708869457539  0.5902108929131205  0.8829952636911074  1.0000
  N   N11       1.0  0.46314625600412285  0.5913411663349564  0.08730275025653364  1.0000
  N   N12       1.0  0.17926114419910977  0.6432198518560669  0.3533060367208165  1.0000
  N   N13       1.0  0.3562428974104535  0.1184804956427854  0.09093436666480408  1.0000
  N   N14       1.0  0.44578594226104656  0.9157678080461482  0.09626471448338239  1.0000
  N   N15       1.0  0.6793651149235416  0.6478239453685789  0.1426925700439696  1.0000
  N   N16       1.0  0.5658249868374482  0.38149641877104307  0.40907499664527336  1.0000
  N   N17       1.0  0.45796913495661334  0.5842118536380381  0.40377579332899677  1.0000
  N   N18       1.0  0.4694704783315586  0.852901014410449  0.3576149641696986  1.0000
  N   N19       1.0  0.9750352762281836  0.09055658099948262  0.3815508275294376  1.0000
  N   N20       1.0  0.8615356200173069  0.09607046604705971  0.5841381980800051  1.0000
  N   N21       1.0  0.8274523727680005  0.14240846823381761  0.8524510447614233  1.0000
  N   N22       1.0  0.4474206287838031  0.40894958169258194  0.11841802205984919  1.0000
  N   N23       1.0  0.5425686204135473  0.40360044444216925  0.9157100881605091  1.0000
  N   N24       1.0  0.8222467039822163  0.35754855376577427  0.647323669403093  1.0000
