data_image0
_chemical_formula_structural       Cu8H72C80N16Cl8
_chemical_formula_sum              "Cu8 H72 C80 N16 Cl8"
_cell_length_a       12.365749369000584
_cell_length_b       15.86369006600945
_cell_length_c       15.863697913009366
_cell_angle_alpha    89.9998777023593
_cell_angle_beta     89.99997662217255
_cell_angle_gamma    90.00002632982543

_space_group_name_H-M_alt    "P 1"
_space_group_IT_number       1

loop_
  _space_group_symop_operation_xyz
  'x, y, z'

loop_
  _atom_site_type_symbol
  _atom_site_label
  _atom_site_symmetry_multiplicity
  _atom_site_fract_x
  _atom_site_fract_y
  _atom_site_fract_z
  _atom_site_occupancy
  Cu  Cu1       1.0  0.6236137941686336  0.520755366495706  0.0026506817205671  1.0000
  Cu  Cu2       1.0  0.1236138997841607  0.4792443268812078  0.9973501551574698  1.0000
  Cu  Cu3       1.0  0.8736148061610078  0.4973510014515838  0.020754894800759895  1.0000
  Cu  Cu4       1.0  0.37361331764903827  0.502649412219526  0.9792446020357913  1.0000
  Cu  Cu5       1.0  0.6263916316457808  0.9793032524332265  0.5026502576603419  1.0000
  Cu  Cu6       1.0  0.1263901130933434  0.020697072314263203  0.49734931759604706  1.0000
  Cu  Cu7       1.0  0.37638950791232867  0.0026508497257822002  0.5206956822692277  1.0000
  Cu  Cu8       1.0  0.8763902406273587  0.9973483042037188  0.4793031833181231  1.0000
  H   H1        1.0  0.2430705489870917  0.5947662062023655  0.8231869637246731  1.0000
  H   H2        1.0  0.23853784789443463  0.6227412973478936  0.9301903589650066  1.0000
  H   H3        1.0  0.7645012013480823  0.7094011540802329  0.7170898064266495  1.0000
  H   H4        1.0  0.7546108996877335  0.641257241399238  0.9464128305147097  1.0000
  H   H5        1.0  0.7629808070861728  0.5998899261142868  0.8455517746976111  1.0000
  H   H6        1.0  0.1281669103686909  0.7204544532258552  0.8395165838731699  1.0000
  H   H7        1.0  0.23183066631747096  0.7753212201607341  0.8932776183375137  1.0000
  H   H8        1.0  0.869035880981812  0.7297771245056666  0.848136136444168  1.0000
  H   H9        1.0  0.7615607986020406  0.7884487786090091  0.8928507597890984  1.0000
  H   H10       1.0  0.7430694754552147  0.40523542124941514  0.176816987109774  1.0000
  H   H11       1.0  0.7385368140977207  0.37726095884388405  0.0698135933065487  1.0000
  H   H12       1.0  0.26449995380205843  0.29059732923348497  0.2829090946529504  1.0000
  H   H13       1.0  0.25461142987737867  0.35874249909740286  0.05358670407053979  1.0000
  H   H14       1.0  0.2629788825707067  0.4001085566510909  0.154448387604468  1.0000
  H   H15       1.0  0.6281657716153859  0.2795465025285964  0.1604848819294986  1.0000
  H   H16       1.0  0.7318311409385672  0.22468166399186631  0.10672381458046938  1.0000
  H   H17       1.0  0.3690354989364195  0.2702226571482953  0.1518633618453293  1.0000
  H   H18       1.0  0.2615628316341656  0.21155033401869625  0.10714751185197  1.0000
  H   H19       1.0  0.4930709791515683  0.6768135129761607  0.09476651084435159  1.0000
  H   H20       1.0  0.48853825917382193  0.5698100049964765  0.12274244845452387  1.0000
  H   H21       1.0  0.014503137424341596  0.7829103092989343  0.20940241841931584  1.0000
  H   H22       1.0  0.0046120578250992  0.5535873170193923  0.1412577715422074  1.0000
  H   H23       1.0  0.012980373992100199  0.6544485112030429  0.09989088896952579  1.0000
  H   H24       1.0  0.3781656527748253  0.6604836140270507  0.22045539981073856  1.0000
  H   H25       1.0  0.48183180260154035  0.6067230684296804  0.2753222192729581  1.0000
  H   H26       1.0  0.11903699296430398  0.6518632428179604  0.22977736236513374  1.0000
  H   H27       1.0  0.0115626852576938  0.6071478394669185  0.2884491192648326  1.0000
  H   H28       1.0  0.9930710925183843  0.3231863132906909  0.905234208840902  1.0000
  H   H29       1.0  0.9885392587311087  0.4301898196401624  0.8772582726683849  1.0000
  H   H30       1.0  0.5145024399812143  0.2170899752028959  0.7905978226983095  1.0000
  H   H31       1.0  0.5046122679392722  0.4464129639248784  0.8587424727127484  1.0000
  H   H32       1.0  0.51298050317925  0.34555177275120735  0.9001093526309916  1.0000
  H   H33       1.0  0.8781666503806417  0.33951680128006256  0.7795453563219751  1.0000
  H   H34       1.0  0.9818320518811134  0.3932767537945807  0.7246785039773724  1.0000
  H   H35       1.0  0.6190363831531797  0.3481370792836316  0.7702228455940697  1.0000
  H   H36       1.0  0.5115629411774378  0.3928518136070738  0.7115511227860337  1.0000
  H   H37       1.0  0.0069233359577865  0.9052449012941819  0.3232011025422921  1.0000
  H   H38       1.0  0.011465685114067998  0.8772639084287733  0.43020140421386077  1.0000
  H   H39       1.0  0.4855008771576763  0.790605316745932  0.2171142826615906  1.0000
  H   H40       1.0  0.4953797368704825  0.8587569347722239  0.4464302240782914  1.0000
  H   H41       1.0  0.48702120400132287  0.9001219438584727  0.3455697129858777  1.0000
  H   H42       1.0  0.12183505286401435  0.7795654446125155  0.33952149897071837  1.0000
  H   H43       1.0  0.018180164234109997  0.7246821733043942  0.39327890122972053  1.0000
  H   H44       1.0  0.3809620853227003  0.7702372614286263  0.3481569071033732  1.0000
  H   H45       1.0  0.4884306747498853  0.7115623600271023  0.39287603418990347  1.0000
  H   H46       1.0  0.5069234351025641  0.09475538048209131  0.676798510609494  1.0000
  H   H47       1.0  0.5114650481588469  0.12273637498052643  0.5697988378672392  1.0000
  H   H48       1.0  0.9855009879296475  0.2093951371690608  0.7828858090541999  1.0000
  H   H49       1.0  0.9953799279835208  0.14124289232574946  0.5535698645045598  1.0000
  H   H50       1.0  0.9870213178934009  0.09987724986332583  0.6544297478789645  1.0000
  H   H51       1.0  0.6218344256759777  0.2204348784955101  0.6604787081009318  1.0000
  H   H52       1.0  0.5181795974820033  0.27531748214968843  0.6067213387221955  1.0000
  H   H53       1.0  0.8809622768286328  0.22976189414480797  0.6518425874036777  1.0000
  H   H54       1.0  0.9884309241744588  0.2884374645713736  0.6071240565972005  1.0000
  H   H55       1.0  0.7569222680271465  0.8232007834220952  0.5947550318793731  1.0000
  H   H56       1.0  0.7614662949142215  0.9302010798334166  0.6227364129785116  1.0000
  H   H57       1.0  0.23550374621345327  0.7171142788654734  0.7093955852997311  1.0000
  H   H58       1.0  0.24537949655686475  0.9464304825285057  0.6412416206106997  1.0000
  H   H59       1.0  0.23702171500959676  0.8455712677491078  0.599878107833092  1.0000
  H   H60       1.0  0.8718339979194452  0.8395203281807966  0.7204356547398304  1.0000
  H   H61       1.0  0.7681783322005202  0.893276974431558  0.7753181515837966  1.0000
  H   H62       1.0  0.13096260181333716  0.8481575196436921  0.7297614575007925  1.0000
  H   H63       1.0  0.23843121793007066  0.8928772103519974  0.7884362367082998  1.0000
  H   H64       1.0  0.2569208894631244  0.17679832753589153  0.4052438716036305  1.0000
  H   H65       1.0  0.2614648682152207  0.06979803275832813  0.3772631194331737  1.0000
  H   H66       1.0  0.7355009237577618  0.2828860851249217  0.2906071071964575  1.0000
  H   H67       1.0  0.7453781210701037  0.053569254648024915  0.35875728653303435  1.0000
  H   H68       1.0  0.7370211857139424  0.15442972716006415  0.40012269307040776  1.0000
  H   H69       1.0  0.371833484420783  0.16047882410789074  0.2795651034028879  1.0000
  H   H70       1.0  0.26817943331580096  0.10672087983350313  0.22468200906980937  1.0000
  H   H71       1.0  0.6309605217961333  0.1518421763774711  0.2702381163064373  1.0000
  H   H72       1.0  0.7384299511384284  0.1071244154364095  0.21156267263740594  1.0000
  C   C1        1.0  0.6100640818581267  0.6534076812017632  0.8741396538362948  1.0000
  C   C2        1.0  0.5574647939204879  0.7082827344401394  0.8158410905491138  1.0000
  C   C3        1.0  0.6166791889347251  0.7608046312748301  0.7612560219868809  1.0000
  C   C4        1.0  0.44181308885995196  0.7074140646929479  0.8145230060503079  1.0000
  C   C5        1.0  0.38845599999963537  0.6492736779924827  0.8690242404638013  1.0000
  C   C6        1.0  0.2675761429278651  0.6442029577756189  0.8683781357491183  1.0000
  C   C7        1.0  0.7386960559501927  0.7597847139802882  0.7612541126132655  1.0000
  C   C8        1.0  0.730826676683989  0.6542334807790626  0.8809904954733268  1.0000
  C   C9        1.0  0.21631765506938183  0.7282981632407584  0.8434651994957318  1.0000
  C   C10       1.0  0.7805964385918499  0.7364357096818993  0.8490911539854904  1.0000
  C   C11       1.0  0.11006133224159949  0.346592637673325  0.1258592962293861  1.0000
  C   C12       1.0  0.057463598859911286  0.2917175655158033  0.184157876200949  1.0000
  C   C13       1.0  0.11667874307492808  0.23919316849997338  0.2387416652426992  1.0000
  C   C14       1.0  0.9418119446446837  0.2925851127657069  0.18547836026500156  1.0000
  C   C15       1.0  0.8884565358941855  0.3507273713848917  0.1309777731442736  1.0000
  C   C16       1.0  0.7675742554049734  0.35580119997253234  0.1316251769394796  1.0000
  C   C17       1.0  0.2386956106878841  0.2402131296813721  0.2387447966523411  1.0000
  C   C18       1.0  0.2308271649187859  0.3457649904219195  0.1190090466576947  1.0000
  C   C19       1.0  0.7163165137835888  0.2717040849606462  0.1565368687139994  1.0000
  C   C20       1.0  0.28059686182384513  0.26356340979243936  0.150907111617677  1.0000
  C   C21       1.0  0.8600628604625625  0.6258600499169374  0.15340731101863977  1.0000
  C   C22       1.0  0.8074651612013638  0.684157893422956  0.20828286084751105  1.0000
  C   C23       1.0  0.8666811460845805  0.7387428781343106  0.2608064862596819  1.0000
  C   C24       1.0  0.6918126479800506  0.6854778690819783  0.2074142278564963  1.0000
  C   C25       1.0  0.6384572071176888  0.6309761003061145  0.14927400430669724  1.0000
  C   C26       1.0  0.517576544199855  0.6316215832260499  0.14420269576097408  1.0000
  C   C27       1.0  0.9886963962968733  0.7387454226487267  0.2597858977990199  1.0000
  C   C28       1.0  0.9808286893569613  0.6190092056931391  0.1542343446785566  1.0000
  C   C29       1.0  0.4663188190479913  0.6565349815833629  0.22829782379934468  1.0000
  C   C30       1.0  0.030598355527942503  0.6509082087128562  0.23643597621800436  1.0000
  C   C31       1.0  0.3600629834933784  0.37413972850894345  0.8465928204870892  1.0000
  C   C32       1.0  0.30746527880589264  0.31584186608407094  0.7917172873423437  1.0000
  C   C33       1.0  0.36668045052316234  0.26125753304231136  0.7391936431461659  1.0000
  C   C34       1.0  0.1918127643538625  0.3145218488267076  0.7925853266485915  1.0000
  C   C35       1.0  0.13845570760433648  0.3690229680385074  0.8507274582339404  1.0000
  C   C36       1.0  0.0175766590170596  0.36837807201104067  0.8557975443822983  1.0000
  C   C37       1.0  0.4886965088836702  0.2612550324156615  0.7402141929031458  1.0000
  C   C38       1.0  0.4808288168440313  0.380990616170962  0.8457657485199376  1.0000
  C   C39       1.0  0.9663190144027496  0.34346483506170244  0.7717022740017041  1.0000
  C   C40       1.0  0.5305977497723545  0.3490920815789452  0.7635636294241123  1.0000
  C   C41       1.0  0.6399362968523618  0.8466028670029003  0.37416522229807464  1.0000
  C   C42       1.0  0.6925275285333256  0.791726677455337  0.3158680202029131  1.0000
  C   C43       1.0  0.6333188229626714  0.7392017452739381  0.26128686475732366  1.0000
  C   C44       1.0  0.8081897472016308  0.792606696698414  0.3145366593801313  1.0000
  C   C45       1.0  0.8615443813965128  0.8507387722432045  0.3690484690646159  1.0000
  C   C46       1.0  0.9824193866968184  0.8558101242133773  0.36839790259259075  1.0000
  C   C47       1.0  0.5113043820070686  0.7402248144328141  0.26127742746634647  1.0000
  C   C48       1.0  0.5191688463194808  0.8457770528040314  0.38101421289463383  1.0000
  C   C49       1.0  0.033685114772986  0.7717122706122482  0.34347205041787277  1.0000
  C   C50       1.0  0.469399101153371  0.7635748919873607  0.3491156930293541  1.0000
  C   C51       1.0  0.13993559746053558  0.1533974626159349  0.625834979031829  1.0000
  C   C52       1.0  0.19252763944843565  0.20827367108017114  0.6841321644447901  1.0000
  C   C53       1.0  0.1333189360692515  0.26079858196481354  0.7387133386715306  1.0000
  C   C54       1.0  0.3081898569011656  0.20739306306924024  0.6854634885798845  1.0000
  C   C55       1.0  0.36154367689087513  0.14926100671541317  0.630951661971302  1.0000
  C   C56       1.0  0.4824186788723424  0.14418969822272493  0.6316021901014607  1.0000
  C   C57       1.0  0.011303685822696299  0.2597754689184555  0.7387228146659338  1.0000
  C   C58       1.0  0.019168959692215992  0.15422260300579177  0.6189860267435633  1.0000
  C   C59       1.0  0.533684494268968  0.22828802078915086  0.656528184615169  1.0000
  C   C60       1.0  0.9693992970742469  0.23642555613600544  0.6508844037939452  1.0000
  C   C61       1.0  0.38993682542484004  0.8741654679826639  0.6533971004282222  1.0000
  C   C62       1.0  0.44252721771758263  0.8158687680870146  0.7082733883831622  1.0000
  C   C63       1.0  0.38331929212212396  0.7612874534902403  0.7607977794584997  1.0000
  C   C64       1.0  0.5581902443036028  0.8145368172599278  0.7073927445046946  1.0000
  C   C65       1.0  0.6115432896248193  0.8690481656786134  0.6492605824939587  1.0000
  C   C66       1.0  0.7324191030910467  0.8683982809897088  0.6441892369879128  1.0000
  C   C67       1.0  0.2613048511290756  0.7612779770817044  0.7597759689739476  1.0000
  C   C68       1.0  0.2691685700405131  0.8810144193323668  0.654221636294011  1.0000
  C   C69       1.0  0.7836840622696286  0.8434708349868956  0.7282875538104179  1.0000
  C   C70       1.0  0.21939880969866005  0.8491156913824299  0.7364250842195688  1.0000
  C   C71       1.0  0.8899354987445631  0.1258330604489331  0.3466017608628889  1.0000
  C   C72       1.0  0.9425267627504184  0.18413104000168093  0.2917254562246541  1.0000
  C   C73       1.0  0.883318088081374  0.23871296367153144  0.23920171429971754  1.0000
  C   C74       1.0  0.05818973862791669  0.18546159184667496  0.29260559164711  1.0000
  C   C75       1.0  0.11154272143549797  0.13095026261919424  0.35073710636408606  1.0000
  C   C76       1.0  0.2324177239363934  0.13160145152510688  0.3558096742668865  1.0000
  C   C77       1.0  0.7613028378719519  0.23872302656092612  0.24022545459716574  1.0000
  C   C78       1.0  0.7691680484577859  0.11898595677136112  0.3457772633029563  1.0000
  C   C79       1.0  0.2836835505728671  0.15652765522683154  0.2717113411842149  1.0000
  C   C80       1.0  0.7193991586724096  0.1508852971888075  0.2635750919037817  1.0000
  N   N1        1.0  0.5548777498580861  0.6005416090997643  0.9228925384515776  1.0000
  N   N2        1.0  0.4429759185956925  0.597943836049879  0.9197779005693504  1.0000
  N   N3        1.0  0.054876674236943784  0.3994580595539716  0.0771076898598437  1.0000
  N   N4        1.0  0.9429748938931934  0.4020572329381338  0.08022346537507018  1.0000
  N   N5        1.0  0.8048789823926086  0.5771078832260487  0.10054201817622037  1.0000
  N   N6        1.0  0.6929763439863094  0.5802225258171915  0.09794364726591448  1.0000
  N   N7        1.0  0.3048791063006178  0.42289250572111564  0.8994581308333023  1.0000
  N   N8        1.0  0.19297646470195665  0.4197778228797517  0.9020565372394171  1.0000
  N   N9        1.0  0.6951242206382913  0.8994763994911638  0.42291671581407536  1.0000
  N   N10       1.0  0.8070292882706622  0.9020622021427442  0.419811492454201  1.0000
  N   N11       1.0  0.1951235157906979  0.10052331960851289  0.5770828376407023  1.0000
  N   N12       1.0  0.3070293889605367  0.09793755720816932  0.5801880255038654  1.0000
  N   N13       1.0  0.4451231572987878  0.9229177475210193  0.6005228608358024  1.0000
  N   N14       1.0  0.5570282231242274  0.9198119356486459  0.5979364380992109  1.0000
  N   N15       1.0  0.9451233916162707  0.0770814311311696  0.39947598294913417  1.0000
  N   N16       1.0  0.0570284068801001  0.08018773378150712  0.4020612680496923  1.0000
  Cl  Cl1       1.0  0.7493511581284052  0.441491639058711  0.9219811622706047  1.0000
  Cl  Cl2       1.0  0.24935098409325457  0.5585080995445822  0.0780196347232547  1.0000
  Cl  Cl3       1.0  0.9993522167007498  0.5780204273760463  0.9414909298623613  1.0000
  Cl  Cl4       1.0  0.49935116406349767  0.42198066189128275  0.0585091574592624  1.0000
  Cl  Cl5       1.0  0.5006586061673913  0.05853772237625782  0.42193930986012856  1.0000
  Cl  Cl6       1.0  0.0006592032118817  0.9414625571460675  0.5780609356488142  1.0000
  Cl  Cl7       1.0  0.25065863957004086  0.9219395475035058  0.441461618746871  1.0000
  Cl  Cl8       1.0  0.7506604083516136  0.0780608219428061  0.5585372867211262  1.0000
