data_image0
_chemical_formula_structural       Zn2H34C47N6O9
_chemical_formula_sum              "Zn2 H34 C47 N6 O9"
_cell_length_a       9.704730286137874
_cell_length_b       9.704762289572086
_cell_length_c       13.053862459248833
_cell_angle_alpha    102.03430907009601
_cell_angle_beta     102.03428897957039
_cell_angle_gamma    109.82521684395486

_space_group_name_H-M_alt    "P 1"
_space_group_IT_number       1

loop_
  _space_group_symop_operation_xyz
  'x, y, z'

loop_
  _atom_site_type_symbol
  _atom_site_label
  _atom_site_symmetry_multiplicity
  _atom_site_fract_x
  _atom_site_fract_y
  _atom_site_fract_z
  _atom_site_occupancy
  Zn  Zn1       1.0  0.2235891950841022  0.35389663428149026  0.341618793253474  1.0000
  Zn  Zn2       1.0  0.6461002547905537  0.7764109950305453  0.6583810318223796  1.0000
  H   H1        1.0  0.0938546606791135  0.2765936164547114  0.08629575666123658  1.0000
  H   H2        1.0  0.7234014031984441  0.9061417355150779  0.9137070372453309  1.0000
  H   H3        1.0  0.056009270475357205  0.1674724329770925  0.8875986984617726  1.0000
  H   H4        1.0  0.8325307259307522  0.9439909919366088  0.11240363861860206  1.0000
  H   H5        1.0  0.1869050322622456  0.0007403165039790003  0.8251222720559496  1.0000
  H   H6        1.0  0.9992615587168387  0.8130912239775725  0.17487759629933916  1.0000
  H   H7        1.0  0.35687607374710234  0.9367510443754624  0.9565708306299285  1.0000
  H   H8        1.0  0.06324949357357207  0.6431200691223963  0.043426039377145294  1.0000
  H   H9        1.0  0.4966745466477889  0.0693026480539345  0.405265713702576  1.0000
  H   H10       1.0  0.9306948840452094  0.503327573405926  0.5947342994942701  1.0000
  H   H11       1.0  0.39984106146163606  0.18620829599259278  0.4477459244043017  1.0000
  H   H12       1.0  0.8137933425720831  0.6001632394825477  0.5522543826509646  1.0000
  H   H13       1.0  0.7104663142738019  0.2966237079091272  0.4031465454288181  1.0000
  H   H14       1.0  0.7033718076900116  0.28954039921045904  0.5968546400414425  1.0000
  H   H15       1.0  0.5986647413638622  0.4071806261124209  0.40771468956959467  1.0000
  H   H16       1.0  0.5928147816513842  0.4013406051550348  0.5922779243916239  1.0000
  H   H17       1.0  0.46082607515982227  0.8843724510080972  0.11513411470770048  1.0000
  H   H18       1.0  0.11562497694665547  0.5391719864849662  0.8848640425000838  1.0000
  H   H19       1.0  0.47211355332417076  0.9017085769876445  0.25342003736302837  1.0000
  H   H20       1.0  0.09828968677638276  0.5278848199035694  0.7465783007232005  1.0000
  H   H21       1.0  0.6643485426586225  0.2142872112606966  0.12934109936461619  1.0000
  H   H22       1.0  0.7857119070940896  0.33564851788044336  0.8706583646279568  1.0000
  H   H23       1.0  0.947529416769754  0.3615488578478931  0.19643764732249017  1.0000
  H   H24       1.0  0.6384508210957449  0.0524688383718939  0.8035628041504592  1.0000
  H   H25       1.0  0.008981571352258296  0.09491090084367927  0.3970855241541145  1.0000
  H   H26       1.0  0.9050868005292184  0.991017061951119  0.6029134020947424  1.0000
  H   H27       1.0  0.7247235201763899  0.9401053011215408  0.34353930718162207  1.0000
  H   H28       1.0  0.059892239024335915  0.2752742523685257  0.6564587432380405  1.0000
  H   H29       1.0  0.3488413026722413  0.4833745014947156  0.046291428693862706  1.0000
  H   H30       1.0  0.5166245270154662  0.6511596004990139  0.9537103740572306  1.0000
  H   H31       1.0  0.8122693920619354  0.5370875172789978  0.19135736999121622  1.0000
  H   H32       1.0  0.4629112956969834  0.18772891894260368  0.8086430737309769  1.0000
  H   H33       1.0  0.8023013314137087  0.6630775461239082  0.3750339894173037  1.0000
  H   H34       1.0  0.3369179373056213  0.19770050379980122  0.6249688345393878  1.0000
  C   C1        1.0  0.25032880454116213  0.16956145037483591  0.13495560090890277  1.0000
  C   C2        1.0  0.8304368792082996  0.7496726647726176  0.865043034973823  1.0000
  C   C3        1.0  0.1522375397818507  0.2042329784043417  0.05949382942481659  1.0000
  C   C4        1.0  0.7957657709682522  0.8477604908771355  0.9405066853329203  1.0000
  C   C5        1.0  0.1318889336478577  0.1427790523695975  0.9483595143406519  1.0000
  C   C6        1.0  0.8572243417562362  0.868112715843992  0.05164227087903578  1.0000
  C   C7        1.0  0.20613358447001673  0.04860159333650669  0.9127327039142442  1.0000
  C   C8        1.0  0.9514006665661299  0.7938678820344761  0.08726804611890768  1.0000
  C   C9        1.0  0.3036897789626209  0.0125190878719579  0.9869983766389511  1.0000
  C   C10       1.0  0.9874835726488982  0.6963113230877553  0.01300156208439058  1.0000
  C   C11       1.0  0.32357978149165934  0.07442880150225759  0.09790167024044649  1.0000
  C   C12       1.0  0.925574739915689  0.6764266215909559  0.9020984805554662  1.0000
  C   C13       1.0  0.3888265538016711  0.14543285414363544  0.2813345012723119  1.0000
  C   C14       1.0  0.8545667613837223  0.6111756028886928  0.71866437981339  1.0000
  C   C15       1.0  0.4732474609303097  0.17020604399281314  0.39677741216875256  1.0000
  C   C16       1.0  0.8297941833587501  0.5267569881683299  0.6032226642686851  1.0000
  C   C17       1.0  0.6227071897206997  0.3174998877599009  0.43764347180708535  1.0000
  C   C18       1.0  0.682499215271463  0.37729772661279526  0.5623542033665743  1.0000
  C   C19       1.0  0.49983463256260996  0.9684799088058893  0.19689306158871736  1.0000
  C   C20       1.0  0.031519061463420414  0.5001633287578784  0.8031053372150082  1.0000
  C   C21       1.0  0.6707253750979021  0.06243035792181931  0.23093990663314656  1.0000
  C   C22       1.0  0.9375677345851939  0.3292736386600055  0.7690581093324695  1.0000
  C   C23       1.0  0.7345073851570163  0.18238190040364088  0.18905281285529438  1.0000
  C   C24       1.0  0.8176169869098543  0.26549114585004924  0.8109483372936735  1.0000
  C   C25       1.0  0.8928944992275163  0.26494998892755456  0.22496685184059112  1.0000
  C   C26       1.0  0.735046032707551  0.1071046399712472  0.7750316199227569  1.0000
  C   C27       1.0  0.9276570625463307  0.11679700515846751  0.3379726237472767  1.0000
  C   C28       1.0  0.8832005890861795  0.0723414619384712  0.6620259274572078  1.0000
  C   C29       1.0  0.7705203232429199  0.030217385756685596  0.3072310285823932  1.0000
  C   C30       1.0  0.969779996668791  0.2294784894315214  0.6927675613714469  1.0000
  C   C31       1.0  0.5703243727476774  0.7269714843828722  0.42566235918161516  1.0000
  C   C32       1.0  0.2730300681718346  0.4296813557663768  0.5743390637037464  1.0000
  C   C33       1.0  0.5685984746450856  0.6402191444915813  0.31464243637898187  1.0000
  C   C34       1.0  0.359780652269734  0.43140534635216443  0.6853599161064138  1.0000
  C   C35       1.0  0.28938056786380173  0.5968228221239471  0.22846488713076238  1.0000
  C   C36       1.0  0.403174649381043  0.7106203959563685  0.7715367485653886  1.0000
  C   C37       1.0  0.43992505574510693  0.5881602939412717  0.2214235923259196  1.0000
  C   C38       1.0  0.41184159111241303  0.5600785925709316  0.7785798535245476  1.0000
  C   C39       1.0  0.4490813918762484  0.5233801153649367  0.1180082210441924  1.0000
  C   C40       1.0  0.47662225223486826  0.5509178876392083  0.881993825756254  1.0000
  C   C41       1.0  0.5812614395947547  0.5016432363217616  0.10654963866935666  1.0000
  C   C42       1.0  0.4983583700093277  0.41873896403492955  0.8934516399446437  1.0000
  C   C43       1.0  0.7086075997302501  0.5517768463025731  0.20040983085236513  1.0000
  C   C44       1.0  0.4482239375839328  0.29139570340621646  0.7995909755732455  1.0000
  C   C45       1.0  0.702523392321112  0.6218825525944142  0.3026103188311779  1.0000
  C   C46       1.0  0.3781190626354983  0.2974811724926028  0.6973916084096459  1.0000
  C   C47       1.0  0.5859010175057479  0.41410026893736074  8.977949192948015e-07  1.0000
  N   N1        1.0  0.2941659516505979  0.2126237297274187  0.24949266301673836  1.0000
  N   N2        1.0  0.7873728153958693  0.7058327547514266  0.7505044987779002  1.0000
  N   N3        1.0  0.4088701343728403  0.06091408446967957  0.1923085358932468  1.0000
  N   N4        1.0  0.9390825189200741  0.591130205343987  0.8076910859141222  1.0000
  N   N5        1.0  0.9884762741436219  0.2325967134466538  0.29778353964614007  1.0000
  N   N6        1.0  0.7674019703716652  0.011523727913043999  0.7022169641471763  1.0000
  O   O1        1.0  0.22089922048256475  0.5267364868903072  0.2896368225499728  1.0000
  O   O2        1.0  0.4732585043655036  0.7790998668012322  0.7103618362889037  1.0000
  O   O3        1.0  0.23631976245386002  0.6673425483423188  0.17310424620490036  1.0000
  O   O4        1.0  0.3326581451658726  0.763681080619051  0.8268994513243726  1.0000
  O   O5        1.0  0.5315639604998879  0.83758091531395  0.4339244756427689  1.0000
  O   O6        1.0  0.1624216240143852  0.4684447096545554  0.5660776155156455  1.0000
  O   O7        1.0  0.6220524172917903  0.6795776166037297  0.5056698356634186  1.0000
  O   O8        1.0  0.3204185761416767  0.3779475395928315  0.49433058308729017  1.0000
  O   O9        1.0  0.6641846241569739  0.3358159301429851  7.540419133688316e-07  1.0000
