data_image0
_chemical_formula_structural       Cu10H34C54N16
_chemical_formula_sum              "Cu10 H34 C54 N16"
_cell_length_a       6.897386296087887
_cell_length_b       11.906372695970497
_cell_length_c       16.575341257794932
_cell_angle_alpha    71.39611859680716
_cell_angle_beta     80.17939257882476
_cell_angle_gamma    83.78995135424886

_space_group_name_H-M_alt    "P 1"
_space_group_IT_number       1

loop_
  _space_group_symop_operation_xyz
  'x, y, z'

loop_
  _atom_site_type_symbol
  _atom_site_label
  _atom_site_symmetry_multiplicity
  _atom_site_fract_x
  _atom_site_fract_y
  _atom_site_fract_z
  _atom_site_occupancy
  Cu  Cu1       1.0  0.9999969591327654  1.4023748697401376e-05  0.999987766908781  1.0000
  Cu  Cu2       1.0  1.5481119178059868e-06  0.4999973867050328  0.9999980403745498  1.0000
  Cu  Cu3       1.0  0.6528449266540832  0.330918136150096  0.07972215152891242  1.0000
  Cu  Cu4       1.0  0.34716698657317835  0.6691046397290421  0.9202720399988922  1.0000
  Cu  Cu5       1.0  0.7239909575858335  0.496254822478349  0.3090677894361847  1.0000
  Cu  Cu6       1.0  0.2760213210572288  0.5037287935835195  0.6909405591061459  1.0000
  Cu  Cu7       1.0  0.9295289298002841  0.7211562073362857  0.47269489028767003  1.0000
  Cu  Cu8       1.0  0.07045843098602231  0.2788387727114525  0.5273078427575727  1.0000
  Cu  Cu9       1.0  0.6083544967940568  0.6295349153757642  0.5381162811010116  1.0000
  Cu  Cu10      1.0  0.3916460379611238  0.3704486429720716  0.4618880790369815  1.0000
  H   H1        1.0  0.9789313366122413  0.8702412233581001  0.2822591122134526  1.0000
  H   H2        1.0  0.0210632697293391  0.1297547385774536  0.7177410821975982  1.0000
  H   H3        1.0  0.9107409966460837  0.08338111919633212  0.19945707841147  1.0000
  H   H4        1.0  0.0892548562733424  0.9166166104113812  0.8005444432775948  1.0000
  H   H5        1.0  0.7725653828878409  0.22511678684371364  0.282108777046126  1.0000
  H   H6        1.0  0.22743286699825652  0.7748854166373604  0.7178909728954751  1.0000
  H   H7        1.0  0.7010227284570688  0.1493961727956687  0.44085342599284877  1.0000
  H   H8        1.0  0.2989817254851701  0.8506034188555558  0.5591470750597054  1.0000
  H   H9        1.0  0.6990017420889103  0.0814485013092607  0.5680811429341192  1.0000
  H   H10       1.0  0.30099852567474994  0.918549293666281  0.4319182439061464  1.0000
  H   H11       1.0  0.47367387832485264  0.1498682739037207  0.6464267545679974  1.0000
  H   H12       1.0  0.526330141873011  0.8501348751008705  0.3535723785224932  1.0000
  H   H13       1.0  0.35486961460095756  0.26826967766839976  0.7430317306927992  1.0000
  H   H14       1.0  0.6451229756774384  0.7317307000601897  0.25696822173618733  1.0000
  H   H15       1.0  0.276860424205708  0.1829010820076462  0.9590203495825875  1.0000
  H   H16       1.0  0.7231265082793641  0.8170974772559845  0.04097920025037642  1.0000
  H   H17       1.0  0.35240330793269703  0.31094895174970827  0.8741775060946182  1.0000
  H   H18       1.0  0.6475852014280504  0.6890487272117126  0.12582273300855465  1.0000
  H   H19       1.0  0.5175000250272818  0.22920822090269158  0.9463564118228192  1.0000
  H   H20       1.0  0.4824866806065132  0.7707920769563117  0.053645781987839355  1.0000
  H   H21       1.0  0.6134505379283369  0.0059652071122471  0.9472560346679231  1.0000
  H   H22       1.0  0.38654645993677417  0.994035206834134  0.05274420324587948  1.0000
  H   H23       1.0  0.7198099213017386  0.8812040364199446  0.85359367292611  1.0000
  H   H24       1.0  0.2801958953655515  0.11879646453702011  0.14640592579051775  1.0000
  H   H25       1.0  0.6606901394175824  0.7618001631742716  0.7836232204122595  1.0000
  H   H26       1.0  0.33930811046851517  0.23820204030680256  0.21637652952934874  1.0000
  H   H27       1.0  0.8812178416505957  0.6092252423223883  0.8070950474671648  1.0000
  H   H28       1.0  0.1187892324808217  0.39077707003179535  0.19290224802705322  1.0000
  H   H29       1.0  0.8916252698812174  0.388627175690992  0.8673688319015228  1.0000
  H   H30       1.0  0.10837558205026451  0.6113776756179377  0.13263376331579482  1.0000
  H   H31       1.0  0.7983066925118721  0.271427943823916  0.7782335425514904  1.0000
  H   H32       1.0  0.20169322499579323  0.7285724189633881  0.22177313821403297  1.0000
  H   H33       1.0  0.6978148515179541  0.3811352074191916  0.6348234757998129  1.0000
  H   H34       1.0  0.3021844763787556  0.6188580771721846  0.36518181183888027  1.0000
  C   C1        1.0  0.9178790959321786  0.9351478590832727  0.3150104461994374  1.0000
  C   C2        1.0  0.08212150212930419  0.06484728791789249  0.6849883026330161  1.0000
  C   C3        1.0  0.8805977768456617  0.053574934676426295  0.26941124887584067  1.0000
  C   C4        1.0  0.1193948116183492  0.9464254357646597  0.7305893086365531  1.0000
  C   C5        1.0  0.8034546836186466  0.13179810758330038  0.31545020697020476  1.0000
  C   C6        1.0  0.19654422504871158  0.8681987926615232  0.6845488720391872  1.0000
  C   C7        1.0  0.7631865616340294  0.08889922365964509  0.4047360530241449  1.0000
  C   C8        1.0  0.23681136339737208  0.9111056496583246  0.5952625196750605  1.0000
  C   C9        1.0  0.8023559936626725  0.9683886490218682  0.446294130836229  1.0000
  C   C10       1.0  0.1976442813585066  0.031609175103703493  0.5537028356704212  1.0000
  C   C11       1.0  0.7620666201987872  0.9150162014783587  0.5407599011616072  1.0000
  C   C12       1.0  0.23793795351941335  0.08498254638146818  0.4592371601101847  1.0000
  C   C13       1.0  0.7075868257956657  0.9851994627221285  0.5950841677120522  1.0000
  C   C14       1.0  0.29241164549856075  0.014800980301032498  0.4049147535020765  1.0000
  C   C15       1.0  0.6698256915682991  0.9327927218925182  0.6843840983319965  1.0000
  C   C16       1.0  0.33017898741083235  0.0672051238758229  0.3156143638262776  1.0000
  C   C17       1.0  0.6049671942340427  0.0052390048573300995  0.7422649213741508  1.0000
  C   C18       1.0  0.3950282267553859  0.9947622893912611  0.2577346272694498  1.0000
  C   C19       1.0  0.5042323086369862  0.1163062200725804  0.7125690246717298  1.0000
  C   C20       1.0  0.49577340458375835  0.8836951902633815  0.2874285680750148  1.0000
  C   C21       1.0  0.4364082746259329  0.18366996390624024  0.7674917233582761  1.0000
  C   C22       1.0  0.5635856729343801  0.8163313012655635  0.23250914198499126  1.0000
  C   C23       1.0  0.4725903781695919  0.1459696094438669  0.8530128946378498  1.0000
  C   C24       1.0  0.5274055872682838  0.8540272472224046  0.1469876076040748  1.0000
  C   C25       1.0  0.4021010578066751  0.22126106378634347  0.9106828358460248  1.0000
  C   C26       1.0  0.5978902804507341  0.7787375244075605  0.08931760455515562  1.0000
  C   C27       1.0  0.5781788572625217  0.036467108847603  0.8817965447661252  1.0000
  C   C28       1.0  0.42182085879517933  0.9635350945602071  0.11820430880943182  1.0000
  C   C29       1.0  0.640038662536746  0.9661858167325478  0.8283086839280358  1.0000
  C   C30       1.0  0.3599612767434692  0.0338146335048677  0.17169073583664132  1.0000
  C   C31       1.0  0.6942783874116858  0.8085670284317031  0.7151733405882226  1.0000
  C   C32       1.0  0.3057229073360689  0.19143430196141512  0.2848275971741288  1.0000
  C   C33       1.0  0.7528999407905349  0.7429971502428071  0.657844778693921  1.0000
  C   C34       1.0  0.2470970607033323  0.2570032782785887  0.34215424905307407  1.0000
  C   C35       1.0  0.7758328342864401  0.6118177666380973  0.6914492352347639  1.0000
  C   C36       1.0  0.2241659564193412  0.3881799846856353  0.3085526784719832  1.0000
  C   C37       1.0  0.8394586089443764  0.5561553898360713  0.771001514901009  1.0000
  C   C38       1.0  0.16053905495951432  0.44383975002408965  0.22899563174695461  1.0000
  C   C39       1.0  0.8466001501045923  0.43271160121813085  0.8042962189211877  1.0000
  C   C40       1.0  0.15340712547678953  0.56728887051554  0.19570690376300354  1.0000
  C   C41       1.0  0.7952619186677907  0.36794076286041383  0.7553895962044664  1.0000
  C   C42       1.0  0.20474433174387496  0.6320561807431915  0.24461137047422454  1.0000
  C   C43       1.0  0.7370847923249074  0.42850429952919455  0.6756011825261937  1.0000
  C   C44       1.0  0.26291240880454586  0.5714942810841848  0.3244042774941819  1.0000
  C   C45       1.0  0.8071664974185497  0.21373001257749286  0.04340127626343098  1.0000
  C   C46       1.0  0.19284069062481995  0.7862954260708008  0.9565890322035316  1.0000
  C   C47       1.0  0.2357472472080957  0.422268015849113  0.03099476889354954  1.0000
  C   C48       1.0  0.7642581484154718  0.5777360934737885  0.9689992262771768  1.0000
  C   C49       1.0  0.6894977788248084  0.43739636838796503  0.22361253597426875  1.0000
  C   C50       1.0  0.3105110663747368  0.562603193893466  0.7763936963137399  1.0000
  C   C51       1.0  0.805481796570092  0.6231908845751731  0.42886869252137677  1.0000
  C   C52       1.0  0.19452981421980556  0.37679799828540433  0.571143352370193  1.0000
  C   C53       1.0  0.3561921477999944  0.6720339995157828  0.5111315446887589  1.0000
  C   C54       1.0  0.6437976791232883  0.3279530729731377  0.4888673525499671  1.0000
  N   N1        1.0  0.8893470898532033  0.130969201697539  0.025271189615750676  1.0000
  N   N2        1.0  0.11064689901694891  0.869056223035024  0.9747103963125099  1.0000
  N   N3        1.0  0.3869957620571256  0.37679880442524194  0.05157690246441862  1.0000
  N   N4        1.0  0.6130126110721646  0.623216820529386  0.9484197395027039  1.0000
  N   N5        1.0  0.6770861702107568  0.3989868603983807  0.1676842515513144  1.0000
  N   N6        1.0  0.32292328092915323  0.6010198456665565  0.832317928112893  1.0000
  N   N7        1.0  0.7785517143846336  0.5762599041101666  0.37893811614316775  1.0000
  N   N8        1.0  0.22146348752974634  0.42372367536765404  0.6210754650840756  1.0000
  N   N9        1.0  0.1962001640204819  0.6934145060688692  0.4922559503172863  1.0000
  N   N10       1.0  0.8037923774666426  0.30657434130646527  0.5077447727500014  1.0000
  N   N11       1.0  0.7257534294425554  0.5479649846997745  0.6442266553224059  1.0000
  N   N12       1.0  0.2742471595470377  0.4520301258638425  0.3557751189270705  1.0000
  N   N13       1.0  0.7846400090081076  0.7949333806469171  0.5716282393032587  1.0000
  N   N14       1.0  0.21536139644371133  0.2050670695172485  0.4283722840953601  1.0000
  N   N15       1.0  0.8804435095418272  0.8934076122632462  0.4010762309869095  1.0000
  N   N16       1.0  0.1195534955807958  0.10659283083317207  0.5989215865932709  1.0000
