data_image0
_chemical_formula_structural       Er4H22C30O32
_chemical_formula_sum              "Er4 H22 C30 O32"
_cell_length_a       9.714943097112393
_cell_length_b       10.957814451490957
_cell_length_c       10.998313094972822
_cell_angle_alpha    105.78052213926414
_cell_angle_beta     88.4563917920416
_cell_angle_gamma    114.49077715344075

_space_group_name_H-M_alt    "P 1"
_space_group_IT_number       1

loop_
  _space_group_symop_operation_xyz
  'x, y, z'

loop_
  _atom_site_type_symbol
  _atom_site_label
  _atom_site_symmetry_multiplicity
  _atom_site_fract_x
  _atom_site_fract_y
  _atom_site_fract_z
  _atom_site_occupancy
  Er  Er1       1.0  0.975622567648884  0.07536017724572021  0.178723923305995  1.0000
  Er  Er2       1.0  0.02436833578858712  0.9246326227256532  0.8212724486605579  1.0000
  Er  Er3       1.0  0.0007800294142014423  0.504520493850734  0.2532405702240652  1.0000
  Er  Er4       1.0  0.9992345912096496  0.4954900033186788  0.7467584178046635  1.0000
  H   H1        1.0  0.5003878917089892  0.8018961831190767  0.8263045147669387  1.0000
  H   H2        1.0  0.4996137853418006  0.19809760052031322  0.1736911376305912  1.0000
  H   H3        1.0  0.48759962923694644  0.26295638824616663  0.9038890022784186  1.0000
  H   H4        1.0  0.5124129094878286  0.7370457883668495  0.09611966881601575  1.0000
  H   H5        1.0  0.6074365660670508  0.7445275288952188  0.6440318525090447  1.0000
  H   H6        1.0  0.39256605037797243  0.25547044245138306  0.3559639678980346  1.0000
  H   H7        1.0  0.9407189758888495  0.6362625345885605  0.07860485095784503  1.0000
  H   H8        1.0  0.059272827565585794  0.3637323787750049  0.9213956999030657  1.0000
  H   H9        1.0  0.08750264088121903  0.7397257844675736  0.17619049326329161  1.0000
  H   H10       1.0  0.9124605229431779  0.26031866503060996  0.823832134932843  1.0000
  H   H11       1.0  0.023419209989896203  0.7348061303726539  0.4892211917789878  1.0000
  H   H12       1.0  0.976589964444493  0.2651949620804573  0.5107772153968  1.0000
  H   H13       1.0  0.185334452140772  0.7375637589758597  0.47197623166891833  1.0000
  H   H14       1.0  0.8146773649887821  0.2624466808071872  0.528009116932985  1.0000
  H   H15       1.0  0.7084393669243526  0.9687967432947744  0.3186411814603289  1.0000
  H   H16       1.0  0.2915437657285053  0.031207586259306207  0.6813473058449802  1.0000
  H   H17       1.0  0.7220728712112673  0.123121640017601  0.33208503903269804  1.0000
  H   H18       1.0  0.27793028134097864  0.8768877895227974  0.6678982813528477  1.0000
  H   H19       1.0  0.05505958786929453  0.9720831420503587  0.37262298313920894  1.0000
  H   H20       1.0  0.9449207839565971  0.02790561722871131  0.6273905953944166  1.0000
  H   H21       1.0  0.936738926723372  0.8381900852640245  0.27542532733981057  1.0000
  H   H22       1.0  0.0632023157467785  0.16181052741096377  0.7246079209249103  1.0000
  C   C1        1.0  0.7769552396133151  0.0017786368022001025  0.8944500989529303  1.0000
  C   C2        1.0  0.2230391936621529  0.9982035996257181  0.10553442556990696  1.0000
  C   C3        1.0  0.6370318122137065  0.005144026560053302  0.951822934701859  1.0000
  C   C4        1.0  0.3629672768413883  0.9948665926192249  0.04818254391589953  1.0000
  C   C5        1.0  0.49936304220879174  0.8889513175859277  0.9024944866697382  1.0000
  C   C6        1.0  0.5006367455669293  0.11105195131327862  0.0975090867648376  1.0000
  C   C7        1.0  0.6381027031554964  0.11791416763956869  0.0512410567795456  1.0000
  C   C8        1.0  0.3618938982654427  0.8820933171806618  0.9487636261058726  1.0000
  C   C9        1.0  0.23670689733840794  0.24854920051496524  0.007993689338597709  1.0000
  C   C10       1.0  0.7632940785436945  0.7514498491152823  0.9920060574751516  1.0000
  C   C11       1.0  0.3685046710246169  0.38148688860294294  0.0036198191602067912  1.0000
  C   C12       1.0  0.6315169182803615  0.6184879114034345  0.9963744419158616  1.0000
  C   C13       1.0  0.49253267285568814  0.36709607370654146  0.9452183142957507  1.0000
  C   C14       1.0  0.5074854973988963  0.6328892599207308  0.054782329268682886  1.0000
  C   C15       1.0  0.7774512329231414  0.2493123126814609  0.1110702848928398  1.0000
  C   C16       1.0  0.22254702199539614  0.7506783174700972  0.8889200252967412  1.0000
  C   C17       1.0  0.3005157604973121  0.6359337164359928  0.581979304415178  1.0000
  C   C18       1.0  0.6994948131320698  0.36408095757729353  0.41801260328522716  1.0000
  C   C19       1.0  0.3465159015004247  0.43181289375183946  0.4532524488469533  1.0000
  C   C20       1.0  0.6534867334091956  0.5681850726076689  0.5467424607342366  1.0000
  C   C21       1.0  0.5601595059203746  0.6382033377537296  0.5801685422706128  1.0000
  C   C22       1.0  0.43984268387690423  0.36179774048810753  0.4198198993973392  1.0000
  C   C23       1.0  0.4064658765393361  0.5695142526782677  0.5347793315181804  1.0000
  C   C24       1.0  0.5935373031498443  0.4304868297310804  0.4652109241477049  1.0000
  C   C25       1.0  0.1875813269149518  0.36847335149320776  0.3911205978073227  1.0000
  C   C26       1.0  0.8124185347191714  0.631529897457618  0.6088793323236814  1.0000
  C   C27       1.0  0.24307399820706616  0.5390665033952118  0.11216248678582022  1.0000
  C   C28       1.0  0.7569292991277834  0.4609357254779243  0.8878462531932954  1.0000
  C   C29       1.0  0.37538936088412816  0.516257512110265  0.05782768369517305  1.0000
  C   C30       1.0  0.6246141427037273  0.4837205483629462  0.9421693478420821  1.0000
  O   O1        1.0  0.2603208221190699  0.6433520991641332  0.20572134926964483  1.0000
  O   O2        1.0  0.7397121053109644  0.35665000121203155  0.7942944553548726  1.0000
  O   O3        1.0  0.106976867327937  0.4473026316900786  0.06477517109666311  1.0000
  O   O4        1.0  0.8930213224045289  0.5526796762659034  0.9352266285027112  1.0000
  O   O5        1.0  0.979690673665644  0.6782258886204107  0.17289872172162293  1.0000
  O   O6        1.0  0.020287810699443323  0.32176283738816386  0.8271066746866822  1.0000
  O   O7        1.0  0.08873919414327959  0.7152049212479598  0.4237164840430622  1.0000
  O   O8        1.0  0.9112683150393224  0.2848076809090543  0.5762767250260339  1.0000
  O   O9        1.0  0.18152207175405974  0.5592856774449828  0.6240904338361161  1.0000
  O   O10       1.0  0.8184878302916231  0.440727999717332  0.37591031432781113  1.0000
  O   O11       1.0  0.7795841226577878  0.36524117898027  0.10920019864828838  1.0000
  O   O12       1.0  0.22042599984317224  0.6347557590361106  0.8908062226432704  1.0000
  O   O13       1.0  0.8882288738374343  0.2474105421428305  0.17066706924366307  1.0000
  O   O14       1.0  0.11177856148676564  0.752602079962564  0.8293297831290047  1.0000
  O   O15       1.0  0.14793348970788867  0.45139044038960213  0.3564058113887114  1.0000
  O   O16       1.0  0.8520608173972377  0.5486055180566966  0.6435968136116799  1.0000
  O   O17       1.0  0.1015167536646118  0.2387479125625163  0.3745969884206986  1.0000
  O   O18       1.0  0.8984848174947045  0.7612500695778621  0.6253997504661228  1.0000
  O   O19       1.0  0.7545487993090206  0.0486176760110411  0.28513418007815966  1.0000
  O   O20       1.0  0.2454381358885131  0.9513834494342465  0.714847089790446  1.0000
  O   O21       1.0  0.9551942598415409  0.9338086783499554  0.3260968235115343  1.0000
  O   O22       1.0  0.04478644561476129  0.0662031968004442  0.673928188014699  1.0000
  O   O23       1.0  0.18064201744768843  0.24051217057959215  0.1125400850222817  1.0000
  O   O24       1.0  0.8193693510015195  0.7594826174957704  0.8874575879377531  1.0000
  O   O25       1.0  0.1979962548334768  0.1509599387987635  0.9038112925109586  1.0000
  O   O26       1.0  0.8020087471304295  0.849032854685497  0.09619863469003327  1.0000
  O   O27       1.0  0.7725342597188031  0.9473829686291709  0.777373504413461  1.0000
  O   O28       1.0  0.2274532462752816  0.052596246434113404  0.22262664985850478  1.0000
  O   O29       1.0  0.9011062694871511  0.05014381580540571  0.9674110576748589  1.0000
  O   O30       1.0  0.09889421700919607  0.9498521028137221  0.03259061057651997  1.0000
  O   O31       1.0  0.3338533423470977  0.7597487581930693  0.579330886216681  1.0000
  O   O32       1.0  0.6661557864857599  0.2402606863781784  0.42066149650466395  1.0000
