data_image0
_chemical_formula_structural       Al3H45C63N12O18
_chemical_formula_sum              "Al3 H45 C63 N12 O18"
_cell_length_a       4.113874350082513
_cell_length_b       23.369496058539223
_cell_length_c       23.36936000652454
_cell_angle_alpha    119.99928429278215
_cell_angle_beta     90.00022223274398
_cell_angle_gamma    89.9992924910396

_space_group_name_H-M_alt    "P 1"
_space_group_IT_number       1

loop_
  _space_group_symop_operation_xyz
  'x, y, z'

loop_
  _atom_site_type_symbol
  _atom_site_label
  _atom_site_symmetry_multiplicity
  _atom_site_fract_x
  _atom_site_fract_y
  _atom_site_fract_z
  _atom_site_occupancy
  Al  Al1       1.0  0.998858651746744  0.999661514197811  0.49983557319654187  1.0000
  Al  Al2       1.0  0.9988223426373538  0.3335037682138378  0.1664844911827358  1.0000
  Al  Al3       1.0  0.9987865241422115  0.6668187266760411  0.8336640557588807  1.0000
  H   H1        1.0  0.19589496377003707  0.8674291632502784  0.9184887979365114  1.0000
  H   H2        1.0  0.1966399324647199  0.9744839473662948  0.9212395655023113  1.0000
  H   H3        1.0  0.7939489369592394  0.8897628520429777  0.7469113217382174  1.0000
  H   H4        1.0  0.7939279733238109  0.02379513265698553  0.9435704837360105  1.0000
  H   H5        1.0  0.19595956342164558  0.2177059094536772  0.965874992284334  1.0000
  H   H6        1.0  0.19667667456883464  0.11339631906397309  0.8588286792689243  1.0000
  H   H7        1.0  0.7940215161816582  0.08640762214737656  0.8095287500585329  1.0000
  H   H8        1.0  0.19594096829409577  0.9148360563310545  0.6156202401038512  1.0000
  H   H9        1.0  0.19665202262965661  0.9120883360822064  0.7199285785191305  1.0000
  H   H10       1.0  0.8060179730716754  0.417988733496827  0.367106798777513  1.0000
  H   H11       1.0  0.8049203477411452  0.4208614086172133  0.47421420140019416  1.0000
  H   H12       1.0  0.20701468026314981  0.24663138687848365  0.38970044118934766  1.0000
  H   H13       1.0  0.20701900233876808  0.44361211792276806  0.5235783337808184  1.0000
  H   H14       1.0  0.8059497058810833  0.4661963476406824  0.7175378297208751  1.0000
  H   H15       1.0  0.8048560013678313  0.35909100051453174  0.6133043906956103  1.0000
  H   H16       1.0  0.20698307053810083  0.3097353942216257  0.5866803910966778  1.0000
  H   H17       1.0  0.8060436766482512  0.11578493706784337  0.4153335523822435  1.0000
  H   H18       1.0  0.8049461359138733  0.22001801034659949  0.41245405760258075  1.0000
  H   H19       1.0  0.8065047186567255  0.4492341740842676  0.082208864391589  1.0000
  H   H20       1.0  0.8047314159057707  0.5534290971758082  0.07920919604193698  1.0000
  H   H21       1.0  0.20666625859411167  0.643097438543137  0.2534255213150871  1.0000
  H   H22       1.0  0.20664682303359427  0.5799204988534541  0.05634990932312421  1.0000
  H   H23       1.0  0.8064522837863136  0.7511281815576327  0.03368170745004309  1.0000
  H   H24       1.0  0.804700769986802  0.754133425204877  0.1408781972596812  1.0000
  H   H25       1.0  0.20661711056956733  0.777004401607016  0.19025043430915645  1.0000
  H   H26       1.0  0.8065784690788861  0.7996597608703837  0.3841071342453972  1.0000
  H   H27       1.0  0.8047944212642906  0.6924684719710683  0.2799177033169399  1.0000
  H   H28       1.0  0.9664678861786771  0.7431044133993936  0.750335151033937  1.0000
  H   H29       1.0  0.005722020531003101  0.783993000465621  0.709318806217503  1.0000
  H   H30       1.0  0.9665023191565963  0.1738903869243345  0.09021448665996697  1.0000
  H   H31       1.0  0.005748600112419002  0.09198506518139028  0.049339076826285584  1.0000
  H   H32       1.0  0.9665313053312801  0.0829909841364937  0.659449708273101  1.0000
  H   H33       1.0  0.0057868081625968995  0.12400351355174877  0.7413542828633055  1.0000
  H   H34       1.0  0.03531832859979999  0.2499031519123277  0.242875456662098  1.0000
  H   H35       1.0  0.9951599386314669  0.2089460578873456  0.2838079756720332  1.0000
  H   H36       1.0  0.035272324989207994  0.5904371038707126  0.6736733640885004  1.0000
  H   H37       1.0  0.995158747555159  0.5495055575451957  0.5917810909791114  1.0000
  H   H38       1.0  0.035303414657484204  0.159646152572307  0.5834232944824719  1.0000
  H   H39       1.0  0.995131000819839  0.24153578977374923  0.6243734410945833  1.0000
  H   H40       1.0  0.039719375025867996  0.4930121811895773  0.25084736924150514  1.0000
  H   H41       1.0  0.9938613164998317  0.5747718804172947  0.2907841008572232  1.0000
  H   H42       1.0  0.03967740614321259  0.5824811098826288  0.9088347784344605  1.0000
  H   H43       1.0  0.9938357830618686  0.5425540344589165  0.9506688499667744  1.0000
  H   H44       1.0  0.0397004059254229  0.9245116432890654  0.3403255985483538  1.0000
  H   H45       1.0  0.993818576471533  0.8826786954770611  0.258567073976927  1.0000
  C   C1        1.0  0.4975960302735346  0.9120202161139802  0.411386217703054  1.0000
  C   C2        1.0  0.5017331213274616  8.946901112240539e-05  0.5883395461782612  1.0000
  C   C3        1.0  0.4971396963830586  0.08854505072801538  0.5005592575454827  1.0000
  C   C4        1.0  0.5017042674085131  0.2449948619643223  0.0784166373291697  1.0000
  C   C5        1.0  0.4975545530002209  0.4219557492936872  0.16729424387393269  1.0000
  C   C6        1.0  0.497106522193647  0.3327763628087297  0.2546447132695349  1.0000
  C   C7        1.0  0.5016486607487209  0.7548892426792406  0.83322666167534  1.0000
  C   C8        1.0  0.497520398150101  0.6660230396603238  0.9213157431596882  1.0000
  C   C9        1.0  0.49707907957610337  0.5786656939319741  0.7447790542128985  1.0000
  C   C10       1.0  0.33433320335994665  0.8728885925620916  0.8816885651897124  1.0000
  C   C11       1.0  0.3298195528785328  0.9329146902654841  0.8828734261035789  1.0000
  C   C12       1.0  0.4925996367654193  0.9393020479856203  0.8335045085357604  1.0000
  C   C13       1.0  0.6625356950125577  0.8848980679301661  0.784653077061826  1.0000
  C   C14       1.0  0.6781678321387334  0.8246595824507637  0.7840434502861412  1.0000
  C   C15       1.0  0.5057034290465978  0.8186726651528674  0.8330923883268467  1.0000
  C   C16       1.0  0.6625515947868621  0.0664052171252009  0.9484272383682961  1.0000
  C   C17       1.0  0.6782249547681616  0.12603817823175942  0.008659295532282792  1.0000
  C   C18       1.0  0.50577251908701  0.181071206622498  0.014633792765195601  1.0000
  C   C19       1.0  0.33438766975914547  0.1754463647819336  0.9604220701395078  1.0000
  C   C20       1.0  0.3298556200195009  0.11660610264591034  0.9003989275292666  1.0000
  C   C21       1.0  0.4926189134504568  0.06084557739597326  0.8940205611855346  1.0000
  C   C22       1.0  0.6625915123237222  0.0486656734045139  0.7669223466426442  1.0000
  C   C23       1.0  0.6782330139481303  0.04927729770554382  0.7072949342576464  1.0000
  C   C24       1.0  0.5057835409430851  0.00022481205237288754  0.6522606797933362  1.0000
  C   C25       1.0  0.3343862860183506  0.9516362351869531  0.6578812648590142  1.0000
  C   C26       1.0  0.3298462529426374  0.9504483914201529  0.7167190077616538  1.0000
  C   C27       1.0  0.49262357520498073  0.9998214488653616  0.7724785043402206  1.0000
  C   C28       1.0  0.6673325379840377  0.38123431651751366  0.3725969711715891  1.0000
  C   C29       1.0  0.6716599860029221  0.3824989116199902  0.43265882078470236  1.0000
  C   C30       1.0  0.5082732239560813  0.3332670761391794  0.43918341307029596  1.0000
  C   C31       1.0  0.3384757548045272  0.2843474039931023  0.38479683942079385  1.0000
  C   C32       1.0  0.3229957798962674  0.2836705210858952  0.3245247067117418  1.0000
  C   C33       1.0  0.4954178333884443  0.33267358693139937  0.3184522366046991  1.0000
  C   C34       1.0  0.33846717160449197  0.4485179759166726  0.5662047944799298  1.0000
  C   C35       1.0  0.3229791092767372  0.5087860746490095  0.6257954378649444  1.0000
  C   C36       1.0  0.4953863331742952  0.5148557618660448  0.6808688021551035  1.0000
  C   C37       1.0  0.667279658416746  0.4607139638832932  0.6752919249390245  1.0000
  C   C38       1.0  0.6716273725037852  0.40064867938736615  0.6164920789851606  1.0000
  C   C39       1.0  0.5082627274947598  0.39413044542686043  0.560738434885117  1.0000
  C   C40       1.0  0.3384587452637646  0.2671146933838813  0.5489694575914825  1.0000
  C   C41       1.0  0.32300582168272735  0.2075235345316813  0.549650959771661  1.0000
  C   C42       1.0  0.4954431934223963  0.15245161118048853  0.5006518810139227  1.0000
  C   C43       1.0  0.6673631173408412  0.15803090821852084  0.45209015409043457  1.0000
  C   C44       1.0  0.6716732814083031  0.21682768211017833  0.45082177668381707  1.0000
  C   C45       1.0  0.5082784591097108  0.2725815648230778  0.500047752534492  1.0000
  C   C46       1.0  0.6676272643076046  0.4914719023958157  0.11890781190137278  1.0000
  C   C47       1.0  0.6715873939720325  0.5502326101854395  0.11757965044181153  1.0000
  C   C48       1.0  0.507823091114723  0.6059501393532329  0.16676581332939822  1.0000
  C   C49       1.0  0.3382999344241995  0.6005009875551721  0.2157185794491879  1.0000
  C   C50       1.0  0.3235811111662699  0.5409678400611213  0.2165055288092502  1.0000
  C   C51       1.0  0.4959771584916908  0.4859190332767865  0.16750387298770858  1.0000
  C   C52       1.0  0.3382853463415501  0.617626567359288  0.0514571116999889  1.0000
  C   C53       1.0  0.32355550601025845  0.6168324325211854  0.9911307350920493  1.0000
  C   C54       1.0  0.4959362363556323  0.6658274424875685  0.9850714557783035  1.0000
  C   C55       1.0  0.6675699526301954  0.7144308083519634  0.039226947440468445  1.0000
  C   C56       1.0  0.6715327787621277  0.7157646241893829  0.09931799499672408  1.0000
  C   C57       1.0  0.5077935493296764  0.6665823081136679  0.1058555425277916  1.0000
  C   C58       1.0  0.33828405199033545  0.7818917497270875  0.23284405597411245  1.0000
  C   C59       1.0  0.32357141179242893  0.8422168509194846  0.292378551575929  1.0000
  C   C60       1.0  0.4959762051997528  0.8482701325104858  0.3474280984411705  1.0000
  C   C61       1.0  0.6676507591581569  0.7941188756416437  0.34187437338610477  1.0000
  C   C62       1.0  0.6715949619889018  0.7340289297422018  0.28311459399847644  1.0000
  C   C63       1.0  0.5078097898974293  0.7274917650917274  0.2273978532085081  1.0000
  N   N1        1.0  0.486391681355279  0.9999900231814323  0.8333342892318569  1.0000
  N   N2        1.0  0.5138841841719496  0.3333252965176213  0.4999886418398844  1.0000
  N   N3        1.0  0.5130180114928394  0.6666750002495548  0.16667251385291576  1.0000
  N   N4        1.0  0.8486216072353513  0.7713406303845788  0.7347206060748448  1.0000
  N   N5        1.0  0.8486559922956546  0.1300387858549712  0.06198226351710189  1.0000
  N   N6        1.0  0.8486837017824271  0.09860014941910562  0.7032998037501484  1.0000
  N   N7        1.0  0.15264411552738014  0.23431711883660708  0.27118376750933487  1.0000
  N   N8        1.0  0.15261962816676797  0.5621285187385965  0.6297813903557952  1.0000
  N   N9        1.0  0.15261725380700142  0.203542544504863  0.5990080774035957  1.0000
  N   N10       1.0  0.1539558106705883  0.5371378584994843  0.2660334212764396  1.0000
  N   N11       1.0  0.1539282257329475  0.5673007774742588  0.9377780577905169  1.0000
  N   N12       1.0  0.15393387570806277  0.8955685598242482  0.2962003366578898  1.0000
  O   O1        1.0  0.7343936417596808  0.07739909185782061  0.5291804821904051  1.0000
  O   O2        1.0  0.7341916776727756  0.9518941327353045  0.42244461336831995  1.0000
  O   O3        1.0  0.7354053682223167  0.9713634960307331  0.5481282474054722  1.0000
  O   O4        1.0  0.261776266090223  0.048744197861182594  0.472020631791139  1.0000
  O   O5        1.0  0.26350644275033364  0.028734411713216373  0.5775257690431771  1.0000
  O   O6        1.0  0.2628368524718637  0.9230654940290536  0.4512345767652589  1.0000
  O   O7        1.0  0.2617579078798897  0.36131419293178607  0.2433809123586527  1.0000
  O   O8        1.0  0.26345446639289355  0.2558123159765273  0.1178706519285271  1.0000
  O   O9        1.0  0.26278666691522545  0.3821119589337059  0.13849131909336165  1.0000
  O   O10       1.0  0.7343627463552452  0.30415631057425685  0.21487751305795652  1.0000
  O   O11       1.0  0.7341546128119918  0.41089230201302473  0.19610767280028085  1.0000
  O   O12       1.0  0.7353683645588804  0.28520761670703365  0.0898978699081212  1.0000
  O   O13       1.0  0.261734071275299  0.5899251717830579  0.7845792413837527  1.0000
  O   O14       1.0  0.26344361371527464  0.715431971465847  0.8045849412057889  1.0000
  O   O15       1.0  0.2627381533977839  0.6948138584481214  0.9102619458030006  1.0000
  O   O16       1.0  0.7343480629801179  0.6184302227111046  0.7559237297869996  1.0000
  O   O17       1.0  0.7341008661574834  0.637200423540108  0.8814378814658212  1.0000
  O   O18       1.0  0.7353196219667737  0.7434060317152316  0.8619523634290543  1.0000
