data_image0
_chemical_formula_structural       AlH27C45S3O15
_chemical_formula_sum              "Al1 H27 C45 S3 O15"
_cell_length_a       4.270321668832842
_cell_length_b       23.410220439885496
_cell_length_c       23.403900250856946
_cell_angle_alpha    60.070486253723324
_cell_angle_beta     87.28603546090014
_cell_angle_gamma    87.09903721633897

_space_group_name_H-M_alt    "P 1"
_space_group_IT_number       1

loop_
  _space_group_symop_operation_xyz
  'x, y, z'

loop_
  _atom_site_type_symbol
  _atom_site_label
  _atom_site_symmetry_multiplicity
  _atom_site_fract_x
  _atom_site_fract_y
  _atom_site_fract_z
  _atom_site_occupancy
  Al  Al1       1.0  0.04960541214274632  0.4996169529059601  0.500277078583828  1.0000
  H   H1        1.0  0.5015808645041134  0.3290394563879602  0.6759784285835195  1.0000
  H   H2        1.0  0.4616260282119669  0.2633430386886388  0.79778950042882  1.0000
  H   H3        1.0  0.7686567055025859  0.2298180450378949  0.8896391082458238  1.0000
  H   H4        1.0  0.7881800550961983  0.16822124031060776  0.010726776296877539  1.0000
  H   H5        1.0  0.5227392667685818  0.8067210453219219  0.2504955133254184  1.0000
  H   H6        1.0  0.2037659666895664  0.8980268084916503  0.2246622097731573  1.0000
  H   H7        1.0  0.2160194613421709  0.018982414206981  0.1657186486350497  1.0000
  H   H8        1.0  0.499173126557764  0.10584742912231349  0.105135117245851  1.0000
  H   H9        1.0  0.49286223892103453  0.675878126547971  0.49513005478284106  1.0000
  H   H10       1.0  0.4572269787372532  0.7978045977389882  0.43926828692193  1.0000
  H   H11       1.0  0.7576515069737297  0.8895305961529727  0.37830479557989366  1.0000
  H   H12       1.0  0.7748876751090634  0.0104007440580816  0.3186342625387653  1.0000
  H   H13       1.0  0.5735431745439142  0.25099490141759867  0.4409989170292121  1.0000
  H   H14       1.0  0.22880854960818192  0.22719819170269057  0.38217132666309084  1.0000
  H   H15       1.0  0.22635994937300544  0.16757331133245404  0.3204401335157314  1.0000
  H   H16       1.0  0.5123319138120622  0.10508276206481068  0.2890947781181055  1.0000
  H   H17       1.0  0.528900869203916  0.49572561659960707  0.32881693367286163  1.0000
  H   H18       1.0  0.4867781692692646  0.43988217493782117  0.26336884835762936  1.0000
  H   H19       1.0  0.7916105173932663  0.3769963015501077  0.2267747666081377  1.0000
  H   H20       1.0  0.7944361074711492  0.31662149527706157  0.1657677401011882  1.0000
  H   H21       1.0  0.4886534481571516  0.44213764704480246  0.807822505894336  1.0000
  H   H22       1.0  0.1714883253409241  0.37935642974030503  0.8988447329632194  1.0000
  H   H23       1.0  0.18909302562157393  0.317300075642862  0.019989367733984437  1.0000
  H   H24       1.0  0.5054261948995205  0.2888389496002262  0.10602589374420292  1.0000
  H   H25       1.0  0.0934824020353204  0.3086371771150239  0.5607775978579284  1.0000
  H   H26       1.0  0.009603281333028202  0.5616444678195549  0.6283398720609482  1.0000
  H   H27       1.0  0.056819121640934604  0.626593454525235  0.31051958344338004  1.0000
  C   C1        1.0  0.533390244392436  0.4590162657366363  0.5990844653982208  1.0000
  C   C2        1.0  0.5739612125331915  0.44196008392274416  0.45900345086835875  1.0000
  C   C3        1.0  0.5362377513388522  0.5984735368278108  0.4420849595641344  1.0000
  C   C4        1.0  0.4920207196107924  0.353572833827613  0.705288374964006  1.0000
  C   C5        1.0  0.4715962342256503  0.3168934756512698  0.7737767243121212  1.0000
  C   C6        1.0  0.6350044353974624  0.24861034847022973  0.9180283057329036  1.0000
  C   C7        1.0  0.6460233120105556  0.2137444575756858  0.9865115144823023  1.0000
  C   C8        1.0  0.5141049099692195  0.710321168526086  0.335802880373862  1.0000
  C   C9        1.0  0.4986810651994916  0.7789844669811572  0.30406952411103566  1.0000
  C   C10       1.0  0.33344773900997643  0.9224173094658209  0.24508928137247932  1.0000
  C   C11       1.0  0.34158725750111074  0.9908241069239878  0.21164147195144514  1.0000
  C   C12       1.0  0.5031573602736826  0.4224539380521293  0.6728815149971793  1.0000
  C   C13       1.0  0.4660152488061087  0.3475858271276166  0.8123642470220461  1.0000
  C   C14       1.0  0.4679522060364932  0.3092488080287765  0.8850116577894127  1.0000
  C   C15       1.0  0.49028820296064873  0.23806176535526183  0.02463414018258452  1.0000
  C   C16       1.0  0.5018657951532006  0.20144009872046098  0.09732254443532899  1.0000
  C   C17       1.0  0.5029614913134495  0.13240469368859206  0.1323050583145218  1.0000
  C   C18       1.0  0.49107387008070447  0.7050313468700296  0.4414145673195052  1.0000
  C   C19       1.0  0.47325629351411885  0.7735516332064023  0.40972165261552357  1.0000
  C   C20       1.0  0.6322083233069263  0.9177233459799722  0.332322299456557  1.0000
  C   C21       1.0  0.6418065774307281  0.9861708108101932  0.2985450889180899  1.0000
  C   C22       1.0  0.5684189602470866  0.33628612700633187  0.45253210116359815  1.0000
  C   C23       1.0  0.5490224191508447  0.30458053248269573  0.41589029668812577  1.0000
  C   C24       1.0  0.3568909358883303  0.24660382140565668  0.33501562140117613  1.0000
  C   C25       1.0  0.3569364649087702  0.2127674915429623  0.3002685741734012  1.0000
  C   C26       1.0  0.5104103675436703  0.6722880435664181  0.40495346185587533  1.0000
  C   C27       1.0  0.47795160956595595  0.811842898227425  0.34053210244550774  1.0000
  C   C28       1.0  0.4788240110474645  0.8844762528896909  0.3061093764683348  1.0000
  C   C29       1.0  0.49698041881218563  0.024197384678366497  0.23746643474053292  1.0000
  C   C30       1.0  0.5055467370193655  0.09690838886805858  0.2013904056164364  1.0000
  C   C31       1.0  0.5107092527818793  0.1320170903096809  0.23537732648382104  1.0000
  C   C32       1.0  0.5332685319207897  0.4419917318487521  0.35319877157884594  1.0000
  C   C33       1.0  0.5112214619332889  0.41033691490253693  0.31665554772210663  1.0000
  C   C34       1.0  0.661567448188741  0.33170063706787534  0.2469822648105051  1.0000
  C   C35       1.0  0.663156467278334  0.29753324332175873  0.2124987017144094  1.0000
  C   C36       1.0  0.49246480015590066  0.4534218800775918  0.7111823224688578  1.0000
  C   C37       1.0  0.4757216511914137  0.41659879461710847  0.7798376170779733  1.0000
  C   C38       1.0  0.31116337705333313  0.33346573395122187  0.9231257244044929  1.0000
  C   C39       1.0  0.3217547499791066  0.2984991269328674  0.9915349698663577  1.0000
  C   C40       1.0  0.5601236672446249  0.40540631857179915  0.42183090010932744  1.0000
  C   C41       1.0  0.5187029662718387  0.3411681926549974  0.3472085802970284  1.0000
  C   C42       1.0  0.5097655661037308  0.30668124700032706  0.30908373147871526  1.0000
  C   C43       1.0  0.5112327444205532  0.23734898415290223  0.23842647931542868  1.0000
  C   C44       1.0  0.5112688962510178  0.20108716537983173  0.20180734147862725  1.0000
  C   C45       1.0  0.5069611827134253  0.2351025273879017  0.1327440797630359  1.0000
  S   S1        1.0  0.655032149400796  0.2841996723891143  0.5376726678431467  1.0000
  S   S2        1.0  0.5569182589453021  0.5394502425670707  0.6768681864603039  1.0000
  S   S3        1.0  0.6059433295619385  0.6754886802631928  0.28393006303179663  1.0000
  O   O1        1.0  0.31605031810070017  0.5676417051631901  0.4354101233689817  1.0000
  O   O2        1.0  0.3027960663733964  0.49693264325629355  0.5677904106278504  1.0000
  O   O3        1.0  0.3403945780439415  0.4355321054404085  0.49758322959409923  1.0000
  O   O4        1.0  0.7723234153100905  0.5738709966128609  0.4787120846826483  1.0000
  O   O5        1.0  0.8103221667253776  0.4773533027411785  0.4469494724291253  1.0000
  O   O6        1.0  0.7833788481210533  0.446716337494088  0.5750385334987769  1.0000
  O   O7        1.0  0.37484677890984847  0.2730233739818573  0.5800370138433664  1.0000
  O   O8        1.0  0.8187801629987063  0.22607618284248326  0.5445483200006223  1.0000
  O   O9        1.0  0.8606497339833225  0.32826667758736505  0.5513853224398559  1.0000
  O   O10       1.0  0.2751096760355196  0.5797426679885119  0.6469674091364795  1.0000
  O   O11       1.0  0.6934094656300333  0.5482518569554528  0.7267257068141788  1.0000
  O   O12       1.0  0.7830370249643721  0.5540866219741076  0.6178003086703968  1.0000
  O   O13       1.0  0.33538703932307373  0.6462256254291175  0.2737476597107219  1.0000
  O   O14       1.0  0.7592941146318779  0.72490496565743  0.22524417415892375  1.0000
  O   O15       1.0  0.8232187717183379  0.615772215429871  0.3278964273711082  1.0000
