data_image0
_chemical_formula_structural       Mg6H6C36O42
_chemical_formula_sum              "Mg6 H6 C36 O42"
_cell_length_a       7.041375735823047
_cell_length_b       15.112759062012342
_cell_length_c       15.110115366336444
_cell_angle_alpha    117.60181248804594
_cell_angle_beta     98.9403384205362
_cell_angle_gamma    98.92785763542375

_space_group_name_H-M_alt    "P 1"
_space_group_IT_number       1

loop_
  _space_group_symop_operation_xyz
  'x, y, z'

loop_
  _atom_site_type_symbol
  _atom_site_label
  _atom_site_symmetry_multiplicity
  _atom_site_fract_x
  _atom_site_fract_y
  _atom_site_fract_z
  _atom_site_occupancy
  Mg  Mg1       1.0  0.47836461214546916  0.5893423463960585  0.2645508922561177  1.0000
  Mg  Mg2       1.0  0.21378342748479867  0.735518012033786  0.32460944724348195  1.0000
  Mg  Mg3       1.0  0.8891409866929006  0.6753980814749595  0.41076037775776797  1.0000
  Mg  Mg4       1.0  0.521634640934195  0.4106591375065776  0.7354489376167949  1.0000
  Mg  Mg5       1.0  0.786215448115136  0.2644826983557279  0.6753913203028931  1.0000
  Mg  Mg6       1.0  0.11085894453988485  0.324601855511986  0.5892407673862579  1.0000
  H   H1        1.0  0.8144137078209466  0.4732509685328948  0.45236033235187983  1.0000
  H   H2        1.0  0.362006453561129  0.5477363338002802  0.020802374258863655  1.0000
  H   H3        1.0  0.34110374259382314  0.9790307533737133  0.5267831646546313  1.0000
  H   H4        1.0  0.18558245805022708  0.5267443298872434  0.5476370681708502  1.0000
  H   H5        1.0  0.637993764870913  0.4522612832823468  0.9791990376821716  1.0000
  H   H6        1.0  0.6588926532434126  0.02097072995816519  0.47321910946826046  1.0000
  C   C1        1.0  0.2591905127674534  0.6075190411147343  0.43234395463176867  1.0000
  C   C2        1.0  0.826905128816662  0.5677453770660675  0.1751427044373556  1.0000
  C   C3        1.0  0.6517153984978349  0.8249358165998331  0.3924599219949485  1.0000
  C   C4        1.0  0.7408071989536537  0.3924793499592382  0.5676549915906507  1.0000
  C   C5        1.0  0.1730933648121534  0.4322545599851607  0.8248583387332786  1.0000
  C   C6        1.0  0.34828243943473314  0.1750656664929338  0.6075431161505166  1.0000
  C   C7        1.0  0.5664325256876946  0.5344061885647021  0.433005335682239  1.0000
  C   C8        1.0  0.1334328053114006  0.5670985341666037  0.1013335939858492  1.0000
  C   C9        1.0  0.03201966584409637  0.8986466547957191  0.46560775362101486  1.0000
  C   C10       1.0  0.43356623717489373  0.4655914292815239  0.5669933260886425  1.0000
  C   C11       1.0  0.8665711560253866  0.43290372235698266  0.8986682523305378  1.0000
  C   C12       1.0  0.9679741419844772  0.10135250876040656  0.5343945833520963  1.0000
  C   C13       1.0  0.22931325011658282  0.34934117315894037  0.20282738328756983  1.0000
  C   C14       1.0  0.0255777688276097  0.7971459916786113  0.14590296778742826  1.0000
  C   C15       1.0  0.8792650911923797  0.853452831523661  0.6507310084359829  1.0000
  C   C16       1.0  0.7706971519872563  0.6506827347567917  0.7971750462686273  1.0000
  C   C17       1.0  0.9744038510333933  0.20285471965713228  0.8540959140290525  1.0000
  C   C18       1.0  0.12075936221317815  0.14656179759489157  0.3492681096752364  1.0000
  C   C19       1.0  0.3851719695685602  0.5505429036004514  0.4625733979259223  1.0000
  C   C20       1.0  0.9226418188579611  0.5374674187687629  0.0879482461697521  1.0000
  C   C21       1.0  0.8346405991920417  0.9120726786533947  0.44943424103526997  1.0000
  C   C22       1.0  0.6148257331698017  0.44945548782317946  0.5374242241981121  1.0000
  C   C23       1.0  0.0773631981116765  0.4625340643522548  0.9120539777443001  1.0000
  C   C24       1.0  0.16535724323190237  0.08792880426454266  0.5505694591593837  1.0000
  C   C25       1.0  0.6749172842965192  0.4847184367627193  0.47274748512225534  1.0000
  C   C26       1.0  0.20213781082456697  0.5273128945048241  0.011924217389477463  1.0000
  C   C27       1.0  0.19018222795640582  0.9880208402284011  0.515331189320591  1.0000
  C   C28       1.0  0.32508147856607644  0.515279181083514  0.5272511766486332  1.0000
  C   C29       1.0  0.7978617294543608  0.4726862694934935  0.9880758792804445  1.0000
  C   C30       1.0  0.8098199317707964  0.011980642321859096  0.48467347884343337  1.0000
  C   C31       1.0  0.73959116823557  0.3523194237552118  0.21856531963745598  1.0000
  C   C32       1.0  0.5204100289918542  0.7816190261616427  0.13371091161516094  1.0000
  C   C33       1.0  0.38620525906257075  0.8663089318715861  0.6479900304483195  1.0000
  C   C34       1.0  0.2603861814179778  0.6476642809385351  0.7814134498655037  1.0000
  C   C35       1.0  0.47957700711132367  0.21836931019822708  0.8662971682718635  1.0000
  C   C36       1.0  0.6138245730465072  0.13368172421241545  0.3520142213515527  1.0000
  O   O1        1.0  0.31121552818395054  0.63936472967071  0.37198329003114583  1.0000
  O   O2        1.0  0.9392806408938692  0.6280978098331071  0.2672818280346475  1.0000
  O   O3        1.0  0.6719277148471999  0.732776992937573  0.36060478635206994  1.0000
  O   O4        1.0  0.6887862316066559  0.36063598024058036  0.6280190055603825  1.0000
  O   O5        1.0  0.060720350463142767  0.3719013535764332  0.7327203567562252  1.0000
  O   O6        1.0  0.32807051403923276  0.2672252631438283  0.639399300267506  1.0000
  O   O7        1.0  0.6383387803290148  0.5631101886812857  0.37019415672180866  1.0000
  O   O8        1.0  0.26812155684878997  0.62995134377136  0.1927755057044395  1.0000
  O   O9        1.0  0.07529568067293005  0.8071722922712181  0.4369153563163053  1.0000
  O   O10       1.0  0.36166181558276367  0.4368882019144634  0.6298063175457643  1.0000
  O   O11       1.0  0.7318778134595972  0.3700532324997283  0.8072270919931486  1.0000
  O   O12       1.0  0.9247035768981102  0.19282919145658878  0.5630851356057959  1.0000
  O   O13       1.0  0.28470887328548855  0.4183690935186774  0.1888151506005045  1.0000
  O   O14       1.0  0.09533551628187105  0.8110814491466272  0.2288822540887807  1.0000
  O   O15       1.0  0.8659312598719137  0.7705383880922124  0.5816432687448767  1.0000
  O   O16       1.0  0.7152897755637184  0.5816486308737296  0.8111782793224549  1.0000
  O   O17       1.0  0.904643888558837  0.18891771610131503  0.7711150908552824  1.0000
  O   O18       1.0  0.13409021906249305  0.22947314808712344  0.41835552579163954  1.0000
  O   O19       1.0  0.6403812814400424  0.5333501079810858  0.15826227650051553  1.0000
  O   O20       1.0  0.48204735143030303  0.841842456521398  0.37497848838640374  1.0000
  O   O21       1.0  0.10704755799268638  0.6250030866378464  0.46675583614533167  1.0000
  O   O22       1.0  0.3596171942232899  0.46664982976946573  0.8417361184733707  1.0000
  O   O23       1.0  0.5179525842938515  0.15815748029071836  0.6250233188068111  1.0000
  O   O24       1.0  0.8929508228987968  0.37499375787009365  0.5332431012498162  1.0000
  O   O25       1.0  0.17221832865568829  0.2796658371041047  0.21477448895533507  1.0000
  O   O26       1.0  0.956180955752799  0.7852603982359906  0.06434401045123635  1.0000
  O   O27       1.0  0.8915522541315891  0.9349272966893947  0.7204497772652161  1.0000
  O   O28       1.0  0.8278044011012963  0.7203596145263159  0.7852374738281114  1.0000
  O   O29       1.0  0.0437999949378352  0.21474185966578568  0.935654880192516  1.0000
  O   O30       1.0  0.10847975579077478  0.0650881059705171  0.2795475889411279  1.0000
  O   O31       1.0  0.8932627001360554  0.4118618156638333  0.24376885345673568  1.0000
  O   O32       1.0  0.6489018674467956  0.7563135787973677  0.16796383881970914  1.0000
  O   O33       1.0  0.4802638161724174  0.8319880108219095  0.5883881671576462  1.0000
  O   O34       1.0  0.10670830962133233  0.5881149301628666  0.756208220422721  1.0000
  O   O35       1.0  0.35109672499223166  0.24368635440758618  0.8320517694330931  1.0000
  O   O36       1.0  0.5197704369945199  0.16800573778736086  0.41161783428869825  1.0000
  O   O37       1.0  0.5872443177053908  0.2912499754033674  0.19261501614617774  1.0000
  O   O38       1.0  0.39404182144496497  0.8076762509477716  0.09866654295125694  1.0000
  O   O39       1.0  0.29500949850045527  0.9014026517381805  0.7091161284688781  1.0000
  O   O40       1.0  0.41271657159106184  0.7087352756893776  0.8073659507226906  1.0000
  O   O41       1.0  0.6059376839349963  0.19230280827848387  0.9013340476931619  1.0000
  O   O42       1.0  0.7050148569179056  0.09858568522312076  0.2908859960868639  1.0000
