data_image0
_chemical_formula_structural       CdH16C16N2O4
_chemical_formula_sum              "Cd1 H16 C16 N2 O4"
_cell_length_a       5.052695421536126
_cell_length_b       8.043066212660554
_cell_length_c       9.724685254288374
_cell_angle_alpha    67.73126198587764
_cell_angle_beta     80.18741188292286
_cell_angle_gamma    76.22782124889483

_space_group_name_H-M_alt    "P 1"
_space_group_IT_number       1

loop_
  _space_group_symop_operation_xyz
  'x, y, z'

loop_
  _atom_site_type_symbol
  _atom_site_label
  _atom_site_symmetry_multiplicity
  _atom_site_fract_x
  _atom_site_fract_y
  _atom_site_fract_z
  _atom_site_occupancy
  Cd  Cd1       1.0  0.5000089461011682  4.2258954735956815e-06  0.9999981745271571  1.0000
  H   H1        1.0  0.21061147666814137  0.6817644733267727  0.9864050193598005  1.0000
  H   H2        1.0  0.7893594831725107  0.31823117922037614  0.013600382595981826  1.0000
  H   H3        1.0  0.2440492235658666  0.47787031562049265  0.8388469630652157  1.0000
  H   H4        1.0  0.7559503630602789  0.5221378817863493  0.1611450710173231  1.0000
  H   H5        1.0  0.5491112862714901  0.5311776845588339  0.6026848074790153  1.0000
  H   H6        1.0  0.45089335970579464  0.46881951161160623  0.3973173844891562  1.0000
  H   H7        1.0  0.7893476045006125  0.9566009327910404  0.6944686931305954  1.0000
  H   H8        1.0  0.21063926794297322  0.04339475643457288  0.30554054681398674  1.0000
  H   H9        1.0  0.8475701804424104  0.9521172915515946  0.433691132287315  1.0000
  H   H10       1.0  0.1524422179702611  0.04787299268441099  0.5663238598552384  1.0000
  H   H11       1.0  0.09153460637769231  0.7537921917586415  0.5056794833289189  1.0000
  H   H12       1.0  0.9084800486946066  0.24619133268122076  0.4943281401743961  1.0000
  H   H13       1.0  0.6054486313590105  0.7703275136691727  0.34429273302442454  1.0000
  H   H14       1.0  0.39456391467528823  0.22967653958716022  0.6557108303128205  1.0000
  H   H15       1.0  0.8729383489720206  0.5817474073116315  0.4036398487934037  1.0000
  H   H16       1.0  0.1270499886734768  0.4182579822428352  0.5963549878599752  1.0000
  C   C1        1.0  0.3508090540944052  0.693685363432763  0.8862780155139237  1.0000
  C   C2        1.0  0.6491752559971501  0.306347433719445  0.11370669599156003  1.0000
  C   C3        1.0  0.3640104593171358  0.5859149108132298  0.8012626848034189  1.0000
  C   C4        1.0  0.6359871535508432  0.4140849180880436  0.1987474996801951  1.0000
  C   C5        1.0  0.5364299823626979  0.6156423250217741  0.6694994162605853  1.0000
  C   C6        1.0  0.46355700290827434  0.384360262443053  0.3305025592481457  1.0000
  C   C7        1.0  0.6924315927275656  0.7525276114630797  0.6249056304842214  1.0000
  C   C8        1.0  0.30755089343212916  0.24746408798774408  0.37508873300457424  1.0000
  C   C9        1.0  0.6720547785201204  0.849312795713473  0.7206731619275575  1.0000
  C   C10       1.0  0.32797217743952706  0.15067774371329526  0.27932000041570865  1.0000
  C   C11       1.0  0.875488200550272  0.8018778744149698  0.4812658638123609  1.0000
  C   C12       1.0  0.12453066483030278  0.19811945796111977  0.5187279319775728  1.0000
  C   C13       1.0  0.8228362936758702  0.732560361199425  0.364620567618971  1.0000
  C   C14       1.0  0.1771686703355897  0.26744915318293033  0.6353798820550695  1.0000
  C   C15       1.0  0.9906204135757831  0.7978434610244135  0.21441528397644305  1.0000
  C   C16       1.0  0.00938348418272029  0.20216335194802326  0.7855809376428198  1.0000
  N   N1        1.0  0.5058313103194861  0.8223204143732801  0.8475954004658847  1.0000
  N   N2        1.0  0.49417505775012677  0.1776713446716015  0.15240420332838775  1.0000
  O   O1        1.0  0.8909832999021462  0.8040068269894148  0.1003309443935052  1.0000
  O   O2        1.0  0.10901453828212478  0.19598622265775834  0.8996730709048965  1.0000
  O   O3        1.0  0.2231127419418684  0.8341472796969995  0.2120392882883309  1.0000
  O   O4        1.0  0.7768862320838179  0.16586221292232037  0.7879606263259477  1.0000
