data_image0
_chemical_formula_structural       Fe2P2H18C6O8
_chemical_formula_sum              "Fe2 P2 H18 C6 O8"
_cell_length_a       4.7672375712006945
_cell_length_b       5.734115080820294
_cell_length_c       11.726180138799295
_cell_angle_alpha    99.44517719457552
_cell_angle_beta     90.00063876480633
_cell_angle_gamma    89.99906863367247

_space_group_name_H-M_alt    "P 1"
_space_group_IT_number       1

loop_
  _space_group_symop_operation_xyz
  'x, y, z'

loop_
  _atom_site_type_symbol
  _atom_site_label
  _atom_site_symmetry_multiplicity
  _atom_site_fract_x
  _atom_site_fract_y
  _atom_site_fract_z
  _atom_site_occupancy
  Fe  Fe1       1.0  0.7520727809928616  0.2504253293907013  0.021554876024673292  1.0000
  Fe  Fe2       1.0  0.25207844309533567  0.7495596879895672  0.9784410058912557  1.0000
  P   P1        1.0  0.19165922193178636  0.21114010060932734  0.8529120130431025  1.0000
  P   P2        1.0  0.6916358477016475  0.7888545499321109  0.1470877404914219  1.0000
  H   H1        1.0  0.20422941454695123  0.41570826790529475  0.1501817653527411  1.0000
  H   H2        1.0  0.7042689298403533  0.5843251075482172  0.8498201480170238  1.0000
  H   H3        1.0  0.16397195569756212  0.14612699256416306  0.1572839682964968  1.0000
  H   H4        1.0  0.6639241542561295  0.8539014406966532  0.8427097092215661  1.0000
  H   H5        1.0  0.17181609567954584  0.9599829387420517  0.6714185714691823  1.0000
  H   H6        1.0  0.6718228844248986  0.0400084032641175  0.3285799865693448  1.0000
  H   H7        1.0  0.8648717132032929  0.1341842191611349  0.7018486418292653  1.0000
  H   H8        1.0  0.36487976330557365  0.8658153201737661  0.29814800855344004  1.0000
  H   H9        1.0  0.436348240452084  0.315802989932557  0.6295084139597549  1.0000
  H   H10       1.0  0.936358142387384  0.6841975616238472  0.37049546132568173  1.0000
  H   H11       1.0  0.14196053400394962  0.4954749571644896  0.6653674075999092  1.0000
  H   H12       1.0  0.6419772049700755  0.5045168205681065  0.3346353120329368  1.0000
  H   H13       1.0  0.1857262602144019  0.3764789316605217  0.4484605275124665  1.0000
  H   H14       1.0  0.6857422537874315  0.623526426881469  0.5515417219649805  1.0000
  H   H15       1.0  0.16249795653467206  0.07511215127225061  0.4638518587378826  1.0000
  H   H16       1.0  0.6624887119517382  0.9248952006717062  0.5361470258829968  1.0000
  H   H17       1.0  0.8716053407216366  0.26486453239090935  0.49927995693098376  1.0000
  H   H18       1.0  0.3716067614620188  0.7351296789926849  0.5007197287359447  1.0000
  C   C1        1.0  0.09563372610514882  0.1404534329808271  0.7028037684183417  1.0000
  C   C2        1.0  0.5956444812286392  0.8595405618456906  0.2971920871352864  1.0000
  C   C3        1.0  0.2056318000605799  0.3147456608983248  0.6274512117175277  1.0000
  C   C4        1.0  0.7056396390900304  0.685252354925609  0.3725488622625477  1.0000
  C   C5        1.0  0.10152429583997959  0.25493803630655526  0.503058512315711  1.0000
  C   C6        1.0  0.6015280257932076  0.7450612623907491  0.4969420388894079  1.0000
  O   O1        1.0  0.5091556684512853  0.2083791026586965  0.8662362941883259  1.0000
  O   O2        1.0  0.0091670301874345  0.7915983104560171  0.1337604610639502  1.0000
  O   O3        1.0  0.0630525622487852  0.29704211468051517  0.1630223107594375  1.0000
  O   O4        1.0  0.5630579258306413  0.7029523779850566  0.8369794043395659  1.0000
  O   O5        1.0  0.0422483477069449  0.0262298890255437  0.9176927661859509  1.0000
  O   O6        1.0  0.5422447472903829  0.9737648859835207  0.08231058146244413  1.0000
  O   O7        1.0  0.0540558132730382  0.45423024616277996  0.9039149877873102  1.0000
  O   O8        1.0  0.5540631232837613  0.545773195392414  0.09608736934438161  1.0000
