data_image0
_chemical_formula_structural       Al4H8C38I2O20
_chemical_formula_sum              "Al4 H8 C38 I2 O20"
_cell_length_a       6.703548538600893
_cell_length_b       19.553678020512457
_cell_length_c       21.372037185674778
_cell_angle_alpha    86.62149686289399
_cell_angle_beta     89.18719749751256
_cell_angle_gamma    89.49089743836382

_space_group_name_H-M_alt    "P 1"
_space_group_IT_number       1

loop_
  _space_group_symop_operation_xyz
  'x, y, z'

loop_
  _atom_site_type_symbol
  _atom_site_label
  _atom_site_symmetry_multiplicity
  _atom_site_fract_x
  _atom_site_fract_y
  _atom_site_fract_z
  _atom_site_occupancy
  Al  Al1       1.0  0.7560699126505527  0.26505425076287276  0.2623010157724437  1.0000
  Al  Al2       1.0  0.2439345822449326  0.7349444181500502  0.737698015728391  1.0000
  Al  Al3       1.0  0.25541821874828236  0.2650825693330958  0.2623419150237112  1.0000
  Al  Al4       1.0  0.744581757723779  0.7349176429052448  0.7376556575500288  1.0000
  H   H1        1.0  0.8836917165520789  0.0538150396536068  0.9003739564429127  1.0000
  H   H2        1.0  0.11629926582941862  0.9461867149512386  0.09962217833078311  1.0000
  H   H3        1.0  0.33446664382321956  0.9506041082723581  0.9857812063397021  1.0000
  H   H4        1.0  0.6655333028487009  0.049397135936480686  0.0142149115094554  1.0000
  H   H5        1.0  0.5078374661474144  0.17548243578055175  0.2608612990753514  1.0000
  H   H6        1.0  0.49215955246209836  0.8245172390285443  0.7391409931308247  1.0000
  H   H7        1.0  0.0029247302337154007  0.3535231952115224  0.2721290722541383  1.0000
  H   H8        1.0  0.9970752993621447  0.6464754531615781  0.7278737245482815  1.0000
  C   C1        1.0  0.5077565549622136  0.3486185222965617  0.1745775700511416  1.0000
  C   C2        1.0  0.49226427686683394  0.6513837045101666  0.825427290960505  1.0000
  C   C3        1.0  0.4996879431079649  0.3452125517139634  0.3444735149276071  1.0000
  C   C4        1.0  0.5003269483667198  0.6547876710635804  0.6555225831571863  1.0000
  C   C5        1.0  0.004041505391803903  0.177947140262141  0.34776184977258856  1.0000
  C   C6        1.0  0.9959510103390983  0.8220530728256252  0.65223528999109  1.0000
  C   C7        1.0  0.011678277789840803  0.18515793591470234  0.18053032432564461  1.0000
  C   C8        1.0  0.9883172307874944  0.8148417728413547  0.8194654226174478  1.0000
  C   C9        1.0  0.9348130293285878  0.030230782547406  0.9449694199687143  1.0000
  C   C10       1.0  0.0651809588555068  0.9697699554118981  0.05502534731396478  1.0000
  C   C11       1.0  0.12630505323646452  0.04995273074635519  0.980337194422937  1.0000
  C   C12       1.0  0.8736859563532918  0.9500479967832263  0.01965945903170759  1.0000
  C   C13       1.0  0.013543279184446507  0.13795892827712203  0.1313872813002348  1.0000
  C   C14       1.0  0.9864611859109048  0.8620407726062989  0.8686102954760244  1.0000
  C   C15       1.0  0.8136597160733958  0.026967816572074796  0.0078854054104411  1.0000
  C   C16       1.0  0.18633427081476134  0.9730329238348431  0.9921088938504212  1.0000
  C   C17       1.0  0.004035106923375099  0.04806828924280639  0.044832002786641616  1.0000
  C   C18       1.0  0.99596034853338  0.9519334712161794  0.95516317481637  1.0000
  C   C19       1.0  0.009997404454374201  0.09648316890383767  0.091135052813037  1.0000
  C   C20       1.0  0.9900025538777797  0.9035175654387896  0.9088606223438731  1.0000
  C   C21       1.0  0.9966422135991095  0.8755146385610643  0.6029391758070872  1.0000
  C   C22       1.0  0.0033503526604903014  0.12448352771900767  0.39705759725303125  1.0000
  C   C23       1.0  0.9977678694178351  0.9232504973668229  0.5630606616224157  1.0000
  C   C24       1.0  0.0022425425051224995  0.07675021963234487  0.43693870841257626  1.0000
  C   C25       1.0  0.9991411755478907  0.9757305876740145  0.5197879522982589  1.0000
  C   C26       1.0  0.0008662785092994003  0.02426910405822009  0.48021148248056283  1.0000
  C   C27       1.0  0.5078455227253827  0.39500889517443477  0.11967455045802211  1.0000
  C   C28       1.0  0.49217228127656654  0.6049953655626508  0.8803330314509594  1.0000
  C   C29       1.0  0.505019368564419  0.4351838594196804  0.07339255960000911  1.0000
  C   C30       1.0  0.4949701750550588  0.5648168188379685  0.9266134613333108  1.0000
  C   C31       1.0  0.501717932364926  0.47947385376726703  0.023050505877286312  1.0000
  C   C32       1.0  0.49825821146141186  0.5205257945383934  0.9769560971181335  1.0000
  C   C33       1.0  0.49735787268235754  0.39251829888330986  0.3936583772967596  1.0000
  C   C34       1.0  0.5026449981673907  0.6074850099057939  0.6063348170185422  1.0000
  C   C35       1.0  0.4978365568652237  0.43388517507335683  0.4346402623094647  1.0000
  C   C36       1.0  0.5021649892328384  0.5661119636016493  0.5653574551993118  1.0000
  C   C37       1.0  0.4990336280925901  0.47917570649211416  0.47940478668036957  1.0000
  C   C38       1.0  0.5009679348494416  0.5208209125262185  0.5205943602234271  1.0000
  I   I1        1.0  0.3217830970720997  0.12982641518056678  0.9496898568979192  1.0000
  I   I2        1.0  0.6782108807477131  0.8701748301973422  0.05030582109882429  1.0000
  O   O1        1.0  0.33060155450131395  0.32694239109597584  0.3251350026633233  1.0000
  O   O2        1.0  0.669404411551426  0.6730568051360988  0.6748611883347024  1.0000
  O   O3        1.0  0.6777461521164128  0.33067421064082225  0.1960060999790301  1.0000
  O   O4        1.0  0.322264275354577  0.6693259891492856  0.8039942314291579  1.0000
  O   O5        1.0  0.8405508647879146  0.20327168012066468  0.200611104608889  1.0000
  O   O6        1.0  0.1594520760263833  0.7967290573088447  0.7993840884414996  1.0000
  O   O7        1.0  0.6711372955715262  0.32712828179589337  0.32465473429381575  1.0000
  O   O8        1.0  0.3288701533019136  0.6728714197268032  0.6753428283977386  1.0000
  O   O9        1.0  0.8337775274899074  0.19839006704841464  0.3282570764009876  1.0000
  O   O10       1.0  0.16621797331501403  0.801610144231013  0.6717405172998028  1.0000
  O   O11       1.0  0.3370438059403043  0.33101179174160217  0.19657444284491282  1.0000
  O   O12       1.0  0.6629621950995457  0.6689868505671936  0.803429729853555  1.0000
  O   O13       1.0  0.5066871855049156  0.22474880470362985  0.26357669716508525  1.0000
  O   O14       1.0  0.4933128052192401  0.7752508927732648  0.7364213687600413  1.0000
  O   O15       1.0  0.1748431961748196  0.1981771587916157  0.32794506918971683  1.0000
  O   O16       1.0  0.825149305303981  0.8018235690575962  0.6720515772225754  1.0000
  O   O17       1.0  0.18028875396466051  0.20357608066763075  0.2001524422425689  1.0000
  O   O18       1.0  0.8197097047060354  0.7964251558787224  0.7998450867143915  1.0000
  O   O19       1.0  0.0046819437730790045  0.3058673721070163  0.262045222094443  1.0000
  O   O20       1.0  0.9953225109579905  0.6941328361950025  0.7379532653958805  1.0000
