data_image0
_chemical_formula_structural       Hf6H82C138O32
_chemical_formula_sum              "Hf6 H82 C138 O32"
_cell_length_a       19.944878254308144
_cell_length_b       19.963780345398174
_cell_length_c       20.092535235013955
_cell_angle_alpha    92.74571860496812
_cell_angle_beta     91.9626719598522
_cell_angle_gamma    92.87260860512248

_space_group_name_H-M_alt    "P 1"
_space_group_IT_number       1

loop_
  _space_group_symop_operation_xyz
  'x, y, z'

loop_
  _atom_site_type_symbol
  _atom_site_label
  _atom_site_symmetry_multiplicity
  _atom_site_fract_x
  _atom_site_fract_y
  _atom_site_fract_z
  _atom_site_occupancy
  Hf  Hf1       1.0  0.18712321999220188  0.1327783530613331  0.041081610029379996  1.0000
  Hf  Hf2       1.0  0.2256355193941104  0.9963814310649964  0.1353840367786319  1.0000
  Hf  Hf3       1.0  0.022129736947341896  0.0673409839222217  0.0159351748440884  1.0000
  Hf  Hf4       1.0  0.09130368239754459  0.0940717452498774  0.1782721180374693  1.0000
  Hf  Hf5       1.0  0.1557367734517356  0.9689114539562028  0.9736911200112814  1.0000
  Hf  Hf6       1.0  0.060139981943869714  0.9306639790044786  0.1107369074352462  1.0000
  H   H1        1.0  0.08481558396906759  0.4098879422270513  0.7136387872683585  1.0000
  H   H2        1.0  0.0916825476818772  0.6253521254863726  0.73256590134703  1.0000
  H   H3        1.0  0.0570783966275812  0.5086912814462465  0.904245305685336  1.0000
  H   H4        1.0  0.1911519896663592  0.5593784315906233  0.2500912315571213  1.0000
  H   H5        1.0  0.13953824975678936  0.43755242969385916  0.4141774342001554  1.0000
  H   H6        1.0  0.1442383789301402  0.6526003062561472  0.4386802936216938  1.0000
  H   H7        1.0  0.9563637590781437  0.9660943818345232  0.5592054851646822  1.0000
  H   H8        1.0  0.7769853022317861  0.9839405960851481  0.6702210473538557  1.0000
  H   H9        1.0  0.7651959066918649  0.9773732717566332  0.4556975579902414  1.0000
  H   H10       1.0  0.2964781856415328  0.08910773654281462  0.5964520538611708  1.0000
  H   H11       1.0  0.4638619422075435  0.034841122531183495  0.4789198422557206  1.0000
  H   H12       1.0  0.48472935154577357  0.048902272256427196  0.6926434301571334  1.0000
  H   H13       1.0  0.500803736882382  0.6681688188351983  0.0431907844932908  1.0000
  H   H14       1.0  0.7164939027193  0.6932409015950826  0.04865273735316579  1.0000
  H   H15       1.0  0.5960848633174861  0.8601762961362807  0.006392311997899492  1.0000
  H   H16       1.0  0.7460986750584127  0.3984626019969255  0.10889593954883028  1.0000
  H   H17       1.0  0.5306896891577323  0.3694277371657079  0.10227052780849989  1.0000
  H   H18       1.0  0.6541765851592487  0.20320031308980196  0.1384911927903687  1.0000
  H   H19       1.0  0.22933662658034137  0.1334303112011455  0.1761821470829332  1.0000
  H   H20       1.0  0.11879247124600308  0.0898177189141904  0.9200469196924672  1.0000
  H   H21       1.0  0.9672099614168345  0.02958682925551411  0.1368886372160176  1.0000
  H   H22       1.0  0.17864084117488938  0.8735285554342622  0.07047992305318468  1.0000
  H   H23       1.0  0.7632031562104942  0.23144274152469543  0.2292978081854642  1.0000
  H   H24       1.0  0.8006629936934572  0.3028690013827742  0.0345292438166567  1.0000
  H   H25       1.0  0.9062152901372046  0.24109727823022814  0.03191546641340181  1.0000
  H   H26       1.0  0.8729888978688931  0.176099580844074  0.2295672443941683  1.0000
  H   H27       1.0  0.48019377282139425  0.2897115746759554  0.034626393375610603  1.0000
  H   H28       1.0  0.5518780784970402  0.17088119726564344  0.1931061689309601  1.0000
  H   H29       1.0  0.4451954801595405  0.09971052430746846  0.1827640338577936  1.0000
  H   H30       1.0  0.37277560704890783  0.22114300193674544  0.027789743307032197  1.0000
  H   H31       1.0  0.6985692375534924  0.8878060288990566  0.9496010692854427  1.0000
  H   H32       1.0  0.7679310955717468  0.7749051775015089  0.11357359022213129  1.0000
  H   H33       1.0  0.8759863676911052  0.8423268167727831  0.11845690901507312  1.0000
  H   H34       1.0  0.8058193046275973  0.9582189385686631  0.9580168828434238  1.0000
  H   H35       1.0  0.44879701736810046  0.7649165708486265  0.11431878576140521  1.0000
  H   H36       1.0  0.4875396544252837  0.8353328467962484  0.9194460878790095  1.0000
  H   H37       1.0  0.3796466184027594  0.8941395935823236  0.9197375699569719  1.0000
  H   H38       1.0  0.3455652257501142  0.8302749619466069  0.11760834535814979  1.0000
  H   H39       1.0  0.7014176306105567  0.620404785451761  0.1311272901807925  1.0000
  H   H40       1.0  0.5314936719801224  0.5633704268274896  0.9988491948640075  1.0000
  H   H41       1.0  0.5440544883309855  0.4446613678828724  0.022742641474685885  1.0000
  H   H42       1.0  0.7139559931050954  0.5016749692134681  0.1551247962778106  1.0000
  H   H43       1.0  0.26950919012945457  0.0086916133116333  0.6773855512301523  1.0000
  H   H44       1.0  0.4287627045365737  0.1390731092933919  0.7688531121712003  1.0000
  H   H45       1.0  0.3668814317548764  0.1442321705344938  0.8748377746632627  1.0000
  H   H46       1.0  0.21078129047158706  0.009999177296244  0.7845219785370219  1.0000
  H   H47       1.0  0.4180384207481254  0.0796043313771335  0.40324528273784926  1.0000
  H   H48       1.0  0.23713474049635858  0.0587356660954299  0.5140647929462716  1.0000
  H   H49       1.0  0.1689742632280939  0.0622905078211318  0.4092868522721815  1.0000
  H   H50       1.0  0.34932231453439033  0.07311966504779119  0.298472623658057  1.0000
  H   H51       1.0  0.9853723828568235  0.9078074914200372  0.6527442915383048  1.0000
  H   H52       1.0  0.8480267813492192  0.04777088991173171  0.7334228425795786  1.0000
  H   H53       1.0  0.9148970205648439  0.05618229267113149  0.8402443710339469  1.0000
  H   H54       1.0  0.05368158928606451  0.9191325501965579  0.7595154005842133  1.0000
  H   H55       1.0  0.8352456606834693  0.8939422661879917  0.3838648319862727  1.0000
  H   H56       1.0  0.9720502768213208  0.0478131056550311  0.47570411574875493  1.0000
  H   H57       1.0  0.0316661844895734  0.05529445856108589  0.36899664563221535  1.0000
  H   H58       1.0  0.8984755354619124  0.89841976187369  0.27869240651259725  1.0000
  H   H59       1.0  0.6891263675535056  0.05848746241970562  0.48390520882343685  1.0000
  H   H60       1.0  0.6728792680548138  0.9323509205056196  0.6512214938847904  1.0000
  H   H61       1.0  0.5543442143733444  0.9598132853414113  0.6615565211174612  1.0000
  H   H62       1.0  0.5706316260534406  0.0857499653056806  0.4942107410379464  1.0000
  H   H63       1.0  0.271247709257608  0.6697293724047666  0.27416271400634434  1.0000
  H   H64       1.0  0.07206714627022849  0.7031123056357415  0.3403441626580417  1.0000
  H   H65       1.0  0.07072475679467519  0.8077266753864262  0.2773834676054108  1.0000
  H   H66       1.0  0.2723311181508592  0.7783582803017594  0.2172603194926097  1.0000
  H   H67       1.0  0.1901778526028153  0.36426723118654536  0.3664954489029739  1.0000
  H   H68       1.0  0.154010743152476  0.47435244593090414  0.19022866450131196  1.0000
  H   H69       1.0  0.15488755042157007  0.368614043217363  0.12082898479371099  1.0000
  H   H70       1.0  0.1806171063213  0.25839639931162856  0.297725219596785  1.0000
  H   H71       1.0  0.0792150717839561  0.5921192094871657  0.9608155252913377  1.0000
  H   H72       1.0  0.054905254913812485  0.7027569000936963  0.7827773105096583  1.0000
  H   H73       1.0  0.0629129697877389  0.8085328316357162  0.8518513247009736  1.0000
  H   H74       1.0  0.0772583485728759  0.6978088302472827  0.0294638574282544  1.0000
  H   H75       1.0  0.9945622768463096  0.335081648229739  0.7848028353488771  1.0000
  H   H76       1.0  0.14899258457974437  0.4290846429231505  0.9179454805830716  1.0000
  H   H77       1.0  0.1533551376887843  0.32384593363158837  0.9797709206761881  1.0000
  H   H78       1.0  0.9955499922563575  0.23166059677925696  0.8503193809880115  1.0000
  H   H79       1.0  0.16703424448503057  0.4421105327790685  0.6377096898900376  1.0000
  H   H80       1.0  0.036745853108733684  0.6073912452367052  0.6302606700489406  1.0000
  H   H81       1.0  0.06064081102565669  0.6192183596487908  0.5117262335535671  1.0000
  H   H82       1.0  0.19089829140667547  0.4539220720213704  0.5191510739131644  1.0000
  C   C1        1.0  0.0717930189594753  0.4531075145652466  0.8127179256007011  1.0000
  C   C2        1.0  0.08097546835556808  0.45620119305158363  0.744100651337078  1.0000
  C   C3        1.0  0.08703841429646529  0.5186505295279032  0.714839657782278  1.0000
  C   C4        1.0  0.0830244030899436  0.5774114183634396  0.7553319951877951  1.0000
  C   C5        1.0  0.07174487459304402  0.5758466550390439  0.8238735150217026  1.0000
  C   C6        1.0  0.06634232492926628  0.5127089226841192  0.8514385782365751  1.0000
  C   C7        1.0  0.16719340818870165  0.612550199864323  0.3409413094581595  1.0000
  C   C8        1.0  0.17732702320379448  0.5542153091266755  0.3017019735388828  1.0000
  C   C9        1.0  0.16748894487668758  0.49016024317153045  0.3268926171888253  1.0000
  C   C10       1.0  0.15025508661000936  0.4864023340528333  0.3938622150190838  1.0000
  C   C11       1.0  0.1427686264117156  0.5439525954059191  0.43518161799167393  1.0000
  C   C12       1.0  0.14995065949234737  0.6070622908795613  0.4075843671309158  1.0000
  C   C13       1.0  0.8642099834676598  0.9699187745317276  0.5005706783447152  1.0000
  C   C14       1.0  0.9019471652380417  0.9688100987320568  0.5606574009296494  1.0000
  C   C15       1.0  0.8711975341638833  0.9733268747277322  0.6222234095104326  1.0000
  C   C16       1.0  0.8014296051541122  0.9790845257335189  0.6226483053706956  1.0000
  C   C17       1.0  0.7624668195896475  0.9810425241363987  0.5634397325046763  1.0000
  C   C18       1.0  0.7944910253768427  0.9754553748297211  0.502375843615873  1.0000
  C   C19       1.0  0.38669643047281704  0.0685283959100076  0.6511651298741512  1.0000
  C   C20       1.0  0.3482477976608465  0.0748717814174213  0.5922581339180653  1.0000
  C   C21       1.0  0.37494532683570003  0.06420756155597471  0.5292333514268464  1.0000
  C   C22       1.0  0.4423558359597664  0.0473652494443186  0.5267592983829843  1.0000
  C   C23       1.0  0.48273790440371295  0.0426712373425744  0.5846546208135736  1.0000
  C   C24       1.0  0.45435030792702946  0.05346473707768239  0.6470266133428524  1.0000
  C   C25       1.0  0.5416405590972957  0.7663329272127444  0.02118837467833151  1.0000
  C   C26       1.0  0.546624679694247  0.6992209659483775  0.037329957200725496  1.0000
  C   C27       1.0  0.6095500911854472  0.6720326502655353  0.04722233416028129  1.0000
  C   C28       1.0  0.6673351318743883  0.7140978444360897  0.042336822032254376  1.0000
  C   C29       1.0  0.6637066605910177  0.7819143517243815  0.027808359495800492  1.0000
  C   C30       1.0  0.6003360494888453  0.8071104528458762  0.015589894306174306  1.0000
  C   C31       1.0  0.7070549642863992  0.2987137938028893  0.1273573514397057  1.0000
  C   C32       1.0  0.700788541161863  0.3663119448571734  0.11358532647854248  1.0000
  C   C33       1.0  0.6373155038213837  0.3926297558245011  0.1045723771773126  1.0000
  C   C34       1.0  0.5802544611849142  0.3492248995254599  0.1078273557361555  1.0000
  C   C35       1.0  0.5850705790310541  0.2808779114409674  0.11964750434759  1.0000
  C   C36       1.0  0.6490030506211468  0.25650715556081144  0.1311028407276851  1.0000
  C   C37       1.0  0.0809214257908977  0.20988729001383175  0.9569102984761813  1.0000
  C   C38       1.0  0.33470153629392024  0.1201294391317802  0.1010599057830888  1.0000
  C   C39       1.0  0.15776709455339238  0.2404099439497783  0.1668731881003396  1.0000
  C   C40       1.0  0.24783628340400551  0.0726584900313796  0.8991130303567444  1.0000
  C   C41       1.0  0.16549080195223104  0.858343572586229  0.20112696684591208  1.0000
  C   C42       1.0  0.9147000591545194  0.9412716645875817  0.04381150219818149  1.0000
  C   C43       1.0  0.21663922534937535  0.06029867860349468  0.2819193940832108  1.0000
  C   C44       1.0  0.2978315553642545  0.9087851992000039  0.026663918524526795  1.0000
  C   C45       1.0  0.02702244102293609  0.9968783757031472  0.8714041435983687  1.0000
  C   C46       1.0  0.9541939787769422  0.16151549838719595  0.12297275690826837  1.0000
  C   C47       1.0  0.004788610409818291  0.9861119776404617  0.25465542308668176  1.0000
  C   C48       1.0  0.0822144870719512  0.8253518058324404  0.983409447478273  1.0000
  C   C49       1.0  0.7952867046076121  0.23464494010662662  0.1865490664817884  1.0000
  C   C50       1.0  0.7741467974398759  0.2700808915815572  0.1315679809193924  1.0000
  C   C51       1.0  0.8164866516939497  0.2751217209717751  0.0773279986402997  1.0000
  C   C52       1.0  0.8756201182792296  0.2412408251630183  0.0758742747207748  1.0000
  C   C53       1.0  0.8956933595373966  0.2046999653696631  0.1304245602281853  1.0000
  C   C54       1.0  0.8564607722087273  0.20357317286033086  0.18683820565017578  1.0000
  C   C55       1.0  0.4723108681856089  0.2490818222617222  0.0683303184875115  1.0000
  C   C56       1.0  0.5233563415804241  0.23636897564796294  0.11548909886662528  1.0000
  C   C57       1.0  0.5131212273324053  0.1814639251339401  0.1560003762064568  1.0000
  C   C58       1.0  0.45336146624014606  0.14175181600815986  0.1507510174792017  1.0000
  C   C59       1.0  0.4020178475476469  0.15664546489817607  0.1052824620416075  1.0000
  C   C60       1.0  0.4125421346183983  0.21042488377877086  0.0636208225116306  1.0000
  C   C61       1.0  0.7369990496042432  0.8784035570582703  0.9874797801852749  1.0000
  C   C62       1.0  0.725962417822835  0.825464214779771  0.03022911756743698  1.0000
  C   C63       1.0  0.7765380437106018  0.8139346508025511  0.07823476288546519  1.0000
  C   C64       1.0  0.8365703922911576  0.8520570135864176  0.08188819186165118  1.0000
  C   C65       1.0  0.8477460893563986  0.9041904010843498  0.03840686059956511  1.0000
  C   C66       1.0  0.7970397928932299  0.917693577052006  0.9916874437492994  1.0000
  C   C67       1.0  0.43352378076503567  0.7930043509857326  0.0715672133398613  1.0000
  C   C68       1.0  0.4755049268256214  0.7966706789235259  0.01698178707734139  1.0000
  C   C69       1.0  0.45543524177320893  0.8329868240372279  0.9622351386093371  1.0000
  C   C70       1.0  0.39539221155998655  0.8660191399554619  0.9622850915936071  1.0000
  C   C71       1.0  0.3564465528576477  0.8659019335822221  0.01888185161017469  1.0000
  C   C72       1.0  0.37570262399101034  0.828829730821944  0.0733415139676552  1.0000
  C   C73       1.0  0.6672757046759655  0.5818544272594224  0.10638477248268431  1.0000
  C   C74       1.0  0.6157029594024762  0.6009676788355734  0.0628466071189493  1.0000
  C   C75       1.0  0.571033924849125  0.5501972918149322  0.0340071866051517  1.0000
  C   C76       1.0  0.5781591193090988  0.48317910836349387  0.047568952850951994  1.0000
  C   C77       1.0  0.630046110819812  0.46399344820965627  0.0907037254047793  1.0000
  C   C78       1.0  0.6743796540211164  0.514832739642088  0.11998845593100779  1.0000
  C   C79       1.0  0.29067250050959353  0.03889829855063451  0.7204598443578263  1.0000
  C   C80       1.0  0.35312772147592136  0.0739627722882545  0.7156041320210278  1.0000
  C   C81       1.0  0.3804730657271164  0.111420101712838  0.7719588631262937  1.0000
  C   C82       1.0  0.3459760206996663  0.11452150167349372  0.8313402891388363  1.0000
  C   C83       1.0  0.2848165395871192  0.07777081536975318  0.8359823736564352  1.0000
  C   C84       1.0  0.25765532895248805  0.0396346987843614  0.7800113558203066  1.0000
  C   C85       1.0  0.3635484113914913  0.07408197193831258  0.4053853590066581  1.0000
  C   C86       1.0  0.3332325690400992  0.0682410103224882  0.46724283246165754  1.0000
  C   C87       1.0  0.2625036233262961  0.06450186211904449  0.4673445496011084  1.0000
  C   C88       1.0  0.2236961328726963  0.065699193720782  0.40842276526345955  1.0000
  C   C89       1.0  0.2548564871181966  0.0675613375713766  0.34717053863154484  1.0000
  C   C90       1.0  0.3252580419407423  0.07188777350334158  0.34633301686515955  1.0000
  C   C91       1.0  0.9701767112817521  0.9410682210735144  0.6935566655657723  1.0000
  C   C92       1.0  0.9115623838244743  0.9767491292086984  0.6854573150372546  1.0000
  C   C93       1.0  0.8922046918650464  0.0182519585714829  0.7392234959800845  1.0000
  C   C94       1.0  0.9297190334493663  0.0237679749188899  0.7987566591109784  1.0000
  C   C95       1.0  0.9882849996450742  0.9882553255096979  0.8064399062206249  1.0000
  C   C96       1.0  0.008280186820862002  0.9468144190929239  0.7532434942186442  1.0000
  C   C97       1.0  0.8788105081305843  0.9288486255548207  0.380914080392543  1.0000
  C   C98       1.0  0.8996263249605005  0.9703212507731107  0.437073630507129  1.0000
  C   C99       1.0  0.9561489332084248  0.014718342422014499  0.432676687961326  1.0000
  C   C100      1.0  0.9896087086780838  0.018990526101205798  0.3735409211773728  1.0000
  C   C101      1.0  0.968985131454943  0.9770210634246438  0.3178034488215218  1.0000
  C   C102      1.0  0.9139815840186857  0.9311651185731477  0.3221054995523929  1.0000
  C   C103      1.0  0.6594059074325286  0.035505929393302396  0.5221646966507834  1.0000
  C   C104      1.0  0.6901216066473879  0.9933735309148446  0.5668417497414424  1.0000
  C   C105      1.0  0.6508431805350553  0.9667216846644492  0.6170246368756906  1.0000
  C   C106      1.0  0.5840013528042575  0.9823287311514334  0.6229861598833963  1.0000
  C   C107      1.0  0.5535598094737749  0.025180878307871503  0.5788466587978789  1.0000
  C   C108      1.0  0.592581946555498  0.0510512053186645  0.5281015046855798  1.0000
  C   C109      1.0  0.22771069314382683  0.7006539905373756  0.27586048583069817  1.0000
  C   C110      1.0  0.1714245487433743  0.6788149843144139  0.3106566732312928  1.0000
  C   C111      1.0  0.11605411195052542  0.7196261262432132  0.3134496132201079  1.0000
  C   C112      1.0  0.1152270386570535  0.7781783874433259  0.27880302290304115  1.0000
  C   C113      1.0  0.17134291028564516  0.7992790633561455  0.2434430531104184  1.0000
  C   C114      1.0  0.22841515795705183  0.7612016286359874  0.24386456416080898  1.0000
  C   C115      1.0  0.18076034048754508  0.36597980522349616  0.3128822584257236  1.0000
  C   C116      1.0  0.17140318950186637  0.4279499320451734  0.28411944625231905  1.0000
  C   C117      1.0  0.16280525384531325  0.4275980728563054  0.2142228087964497  1.0000
  C   C118      1.0  0.1623617060182596  0.3680649612235953  0.1748346075510625  1.0000
  C   C119      1.0  0.1673898033532097  0.306592584070195  0.20480283385972337  1.0000
  C   C120      1.0  0.1768876095222325  0.30629410130767104  0.2743328411825914  1.0000
  C   C121      1.0  0.07318259823312448  0.6389016235660065  0.9360407258623837  1.0000
  C   C122      1.0  0.06819369014451838  0.6385890493619613  0.8658967949227901  1.0000
  C   C123      1.0  0.0614784467396703  0.7007464813788146  0.8366643763239381  1.0000
  C   C124      1.0  0.06461849266430869  0.7604276183415591  0.8751808202033685  1.0000
  C   C125      1.0  0.07075225458366668  0.7598995324416079  0.9449016626024971  1.0000
  C   C126      1.0  0.07285853415633169  0.6983859293308966  0.9752284381617216  1.0000
  C   C127      1.0  0.028941264940819198  0.33292561727321157  0.827969286447548  1.0000
  C   C128      1.0  0.07132977572167219  0.38928612721691985  0.8473601616531211  1.0000
  C   C129      1.0  0.1152133758325817  0.3858350550154057  0.903278762568803  1.0000
  C   C130      1.0  0.11764219122409257  0.3276002550198243  0.9379920908232292  1.0000
  C   C131      1.0  0.07419568235884809  0.27190672373225766  0.9192265638905114  1.0000
  C   C132      1.0  0.029276623374187204  0.27511201860285434  0.8644617378207755  1.0000
  C   C133      1.0  0.1424565813417971  0.48028529242584733  0.6099798588133609  1.0000
  C   C134      1.0  0.10000044613209978  0.5238646059503864  0.6431469150163025  1.0000
  C   C135      1.0  0.07135988550443531  0.5740514711524655  0.6062549367670655  1.0000
  C   C136      1.0  0.0848461416355875  0.5807226659171436  0.5393128113370196  1.0000
  C   C137      1.0  0.12751693576085188  0.5373261566287437  0.5061825734503884  1.0000
  C   C138      1.0  0.1559463772741836  0.48698611180032  0.543029301169355  1.0000
  O   O1        1.0  0.0315440769225148  0.16763488992588546  0.9605997769426011  1.0000
  O   O2        1.0  0.32418289199170397  0.06533695398167788  0.1296266595511497  1.0000
  O   O3        1.0  0.1823097092647217  0.2308365111713968  0.1099194159280756  1.0000
  O   O4        1.0  0.24687115471697038  0.12148914754374122  0.9417942827406093  1.0000
  O   O5        1.0  0.21720003980433936  0.0147542274340182  0.9034111958906053  1.0000
  O   O6        1.0  0.1238580367524449  0.1963415436719345  0.1985536920760254  1.0000
  O   O7        1.0  0.2900097438298985  0.15057199288382614  0.0678539897427513  1.0000
  O   O8        1.0  0.14011730787571244  0.20446861515137016  0.983077072909353  1.0000
  O   O9        1.0  0.20614580157050708  0.032905998598287994  0.0436382910198532  1.0000
  O   O10       1.0  0.09433037308427569  0.1150274118789412  0.0792389998334997  1.0000
  O   O11       1.0  0.19884836428676064  0.1044987757632043  0.1477651462703307  1.0000
  O   O12       1.0  0.1206947527140514  0.0733690960529003  0.9646308035746857  1.0000
  O   O13       1.0  0.21609093160901685  0.8977875467287715  0.19228985544577168  1.0000
  O   O14       1.0  0.9251121430250959  0.996783049951361  0.016396475429566196  1.0000
  O   O15       1.0  0.160484713900189  0.08670300352941498  0.2738330755952987  1.0000
  O   O16       1.0  0.256393568289873  0.9158694472995491  0.9784408768507121  1.0000
  O   O17       1.0  0.08230933413071988  0.968822038688067  0.8798607120014594  1.0000
  O   O18       1.0  0.994244793405322  0.15274899961512034  0.1719688751933219  1.0000
  O   O19       1.0  0.005627599027910397  0.9381331154473925  0.21076348045900056  1.0000
  O   O20       1.0  0.0586236076659929  0.834753898317196  0.040879250769194214  1.0000
  O   O21       1.0  0.0322648727886872  0.04526165322582901  0.2500219743487477  1.0000
  O   O22       1.0  0.11874392428742912  0.8681698259424027  0.9529121069843998  1.0000
  O   O23       1.0  0.24699557243174294  0.02637425568002529  0.23710987133751618  1.0000
  O   O24       1.0  0.9572629776953077  0.13425361017936413  0.0638619792971227  1.0000
  O   O25       1.0  0.9998118295734172  0.03490645780107119  0.9151914184319238  1.0000
  O   O26       1.0  0.2947121124724319  0.9355374622700907  0.0859827895125918  1.0000
  O   O27       1.0  0.1062508183426587  0.8628141665518356  0.17489093927906646  1.0000
  O   O28       1.0  0.9585618853140259  0.9117881956475812  0.0788498216138507  1.0000
  O   O29       1.0  0.06797786487063459  0.9782234445662608  0.02277892615186518  1.0000
  O   O30       1.0  0.12632788626774527  0.0007433171646269001  0.15828919925333199  1.0000
  O   O31       1.0  0.0118373410804438  0.0304208105082324  0.1192405230272584  1.0000
  O   O32       1.0  0.163407136012907  0.9188842664473926  0.07162555757781063  1.0000
