data_image0
_chemical_formula_structural       Cu2H20C32N10O4
_chemical_formula_sum              "Cu2 H20 C32 N10 O4"
_cell_length_a       5.579030519243611
_cell_length_b       11.65203145801372
_cell_length_c       11.317344952380957
_cell_angle_alpha    108.09524048097437
_cell_angle_beta     95.57379304683695
_cell_angle_gamma    91.59253234586417

_space_group_name_H-M_alt    "P 1"
_space_group_IT_number       1

loop_
  _space_group_symop_operation_xyz
  'x, y, z'

loop_
  _atom_site_type_symbol
  _atom_site_label
  _atom_site_symmetry_multiplicity
  _atom_site_fract_x
  _atom_site_fract_y
  _atom_site_fract_z
  _atom_site_occupancy
  Cu  Cu1       1.0  0.09826461660993147  0.1909209874336995  0.04880620837825229  1.0000
  Cu  Cu2       1.0  0.9016955581509265  0.8091094738186156  0.951199846279813  1.0000
  H   H1        1.0  0.11014559610333659  0.20218557097116013  0.5005751469246958  1.0000
  H   H2        1.0  0.8899566537603221  0.7977305791266645  0.49940096511625126  1.0000
  H   H3        1.0  0.6022242427570532  0.3454932707786895  0.13852694402596194  1.0000
  H   H4        1.0  0.39772893159643985  0.6545455857446498  0.8614814998107005  1.0000
  H   H5        1.0  0.6701660540238875  0.02817440761760541  0.8770779340693761  1.0000
  H   H6        1.0  0.32978898038587806  0.9718579438914362  0.12293464756778855  1.0000
  H   H7        1.0  0.7680111879671898  0.42675865534683055  0.8069737244184478  1.0000
  H   H8        1.0  0.2319995754393744  0.5732339794710413  0.1930173173237363  1.0000
  H   H9        1.0  0.8716644586627851  0.4440635130580474  0.03477296263974241  1.0000
  H   H10       1.0  0.1282991097148312  0.5559659486394679  0.9652320655376695  1.0000
  H   H11       1.0  0.47541624886449807  0.33271345361040267  0.6070544231498116  1.0000
  H   H12       1.0  0.5246771405355162  0.6672175967727654  0.39291994026921623  1.0000
  H   H13       1.0  0.75742611423788  0.06465453237913721  0.5130739481494542  1.0000
  H   H14       1.0  0.24265127763322883  0.9352859862749697  0.4869106151147377  1.0000
  H   H15       1.0  0.5301422536948052  0.9723699423078356  0.6488625910924737  1.0000
  H   H16       1.0  0.4698658809176308  0.02762078646247801  0.35114004741731003  1.0000
  H   H17       1.0  0.6485551620417312  0.3108864738571597  0.3624205053109576  1.0000
  H   H18       1.0  0.3514101182996683  0.68912912873661  0.6375924064477302  1.0000
  H   H19       1.0  0.0987575581431699  0.5671204035512716  0.44176394565550225  1.0000
  H   H20       1.0  0.9012071571572166  0.43289252334728434  0.5582453985187639  1.0000
  C   C1        1.0  0.20720863433237469  0.3634974740098186  0.2703665082415227  1.0000
  C   C2        1.0  0.7927599705513871  0.636523580215254  0.7296413205930816  1.0000
  C   C3        1.0  0.3001978371941334  0.2587215377922689  0.8574682552859796  1.0000
  C   C4        1.0  0.6998036140297189  0.7412777073033541  0.14252710854881914  1.0000
  C   C5        1.0  0.3576822975105641  0.4319332500833325  0.3902180974904325  1.0000
  C   C6        1.0  0.6422879100080792  0.5680868584151428  0.6097886235064393  1.0000
  C   C7        1.0  0.16452438300603228  0.2188592598161136  0.6000723307973671  1.0000
  C   C8        1.0  0.8355641120296725  0.7810745947320539  0.3999079917312826  1.0000
  C   C9        1.0  0.5848007739745995  0.394241181147315  0.42214176309321516  1.0000
  C   C10       1.0  0.4151653019669297  0.6057771851811466  0.5778676879927501  1.0000
  C   C11       1.0  0.5576556437193928  0.337654443966727  0.04046860492159247  1.0000
  C   C12       1.0  0.4423117814286641  0.6623758349875928  0.959535139568352  1.0000
  C   C13       1.0  0.0886559622691152  0.18383598431963585  0.7962390163789121  1.0000
  C   C14       1.0  0.9113574722215176  0.8161537350874182  0.20375916287871818  1.0000
  C   C15       1.0  0.7658009961297124  0.063451442442954  0.8148385735751658  1.0000
  C   C16       1.0  0.23417708046387273  0.9365638823978413  0.18516700089377022  1.0000
  C   C17       1.0  0.2741982040722277  0.5381394708005942  0.4686427439202418  1.0000
  C   C18       1.0  0.7257696916710685  0.46187885270460066  0.5313659099906543  1.0000
  C   C19       1.0  0.44188109188203134  0.3123425705783376  0.7891752482347909  1.0000
  C   C20       1.0  0.5581498563127097  0.6876367018163662  0.2108142589363807  1.0000
  C   C21       1.0  0.6529698433358248  0.3822510641921326  0.8547384187987317  1.0000
  C   C22       1.0  0.34703503032468325  0.617747192353626  0.14525504002326534  1.0000
  C   C23       1.0  0.7099124241152808  0.3934922771684555  0.979714176027329  1.0000
  C   C24       1.0  0.29006197262025774  0.6065295955099046  0.02028805781616679  1.0000
  C   C25       1.0  0.020329961418298105  0.1623488410031939  0.6670761978550671  1.0000
  C   C26       1.0  0.979721355918585  0.8376106618019749  0.3329123170599572  1.0000
  C   C27       1.0  0.36637172791281347  0.29095877006633936  0.6590912333620691  1.0000
  C   C28       1.0  0.6337061116843188  0.7089827395305832  0.3408866123076422  1.0000
  C   C29       1.0  0.8134651622345357  0.08434124601587462  0.6126468273520655  1.0000
  C   C30       1.0  0.18658634344934194  0.9156191486876962  0.38734287675776347  1.0000
  C   C31       1.0  0.6889135256704718  0.034137433609693305  0.6863557235836806  1.0000
  C   C32       1.0  0.3110946954016285  0.9658533281754272  0.31364427932967226  1.0000
  N   N1        1.0  0.35637288421392543  0.27280963225852883  0.9809711012476894  1.0000
  N   N2        1.0  0.6435987992254227  0.7272159596895805  0.019032212532302237  1.0000
  N   N3        1.0  0.9609622165344546  0.1361227467410515  0.8678691720568562  1.0000
  N   N4        1.0  0.039022184138978795  0.8638887621785329  0.132134606657587  1.0000
  N   N5        1.0  0.1731929986684051  0.8903456874329336  0.9039017790883646  1.0000
  N   N6        1.0  0.8267794535866173  0.1096842979775872  0.09611275185853428  1.0000
  N   N7        1.0  0.18213469651465886  0.884280071618491  0.7963102174975132  1.0000
  N   N8        1.0  0.8178557634534728  0.11574293532888187  0.20370830493144604  1.0000
  N   N9        1.0  0.19642673052138096  0.8815122400180258  0.6930150054473073  1.0000
  N   N10       1.0  0.8035786317419991  0.11850489807034849  0.3069997496229319  1.0000
  O   O1        1.0  0.26367162410950573  0.2529319344068739  0.2183512026381961  1.0000
  O   O2        1.0  0.7363017196044978  0.7470927338244946  0.7816492462397872  1.0000
  O   O3        1.0  0.04463842810677224  0.41445059753773716  0.22453929077101256  1.0000
  O   O4        1.0  0.9553190119795687  0.585569799718648  0.7754738889834626  1.0000
