data_image0
_chemical_formula_structural       Gd4H96C100S8N12O32
_chemical_formula_sum              "Gd4 H96 C100 S8 N12 O32"
_cell_length_a       16.077097592239767
_cell_length_b       16.07708595018066
_cell_length_c       27.868915254167824
_cell_angle_alpha    80.26059536683219
_cell_angle_beta     80.26060258077001
_cell_angle_gamma    63.02682949089946

_space_group_name_H-M_alt    "P 1"
_space_group_IT_number       1

loop_
  _space_group_symop_operation_xyz
  'x, y, z'

loop_
  _atom_site_type_symbol
  _atom_site_label
  _atom_site_symmetry_multiplicity
  _atom_site_fract_x
  _atom_site_fract_y
  _atom_site_fract_z
  _atom_site_occupancy
  Gd  Gd1       1.0  0.5300689176231188  0.06588588926605608  0.04520763074967252  1.0000
  Gd  Gd2       1.0  0.9341147422481342  0.46993088379189607  0.45479192866069695  1.0000
  Gd  Gd3       1.0  0.4699309906816467  0.9341141463689623  0.9547920020700218  1.0000
  Gd  Gd4       1.0  0.0658865682580227  0.5300691720821932  0.5452075629024903  1.0000
  H   H1        1.0  0.6293983964863158  0.06204734252361271  0.20381711905459812  1.0000
  H   H2        1.0  0.9379543284559446  0.37060081374809767  0.29618275461538707  1.0000
  H   H3        1.0  0.3706001135925021  0.9379526768477927  0.7961837307070212  1.0000
  H   H4        1.0  0.06204698613513669  0.6293986130537944  0.7038175166626104  1.0000
  H   H5        1.0  0.7082408990797262  0.10623960911396323  0.259558001792378  1.0000
  H   H6        1.0  0.893761517099385  0.2917591105093679  0.24044112892936204  1.0000
  H   H7        1.0  0.2917562031686884  0.8937622838607101  0.7404424428903268  1.0000
  H   H8        1.0  0.10623839109591418  0.7082415581732986  0.7595587998609332  1.0000
  H   H9        1.0  0.8477399032992778  0.203873972297437  0.1337491957815686  1.0000
  H   H10       1.0  0.79612632800832  0.15226006361987737  0.36625002117537514  1.0000
  H   H11       1.0  0.15225860545438513  0.7961260457488136  0.8662512954182446  1.0000
  H   H12       1.0  0.2038742834396032  0.8477396675985815  0.6337499308734706  1.0000
  H   H13       1.0  0.7683725888103794  0.15923888443526113  0.0781112222522893  1.0000
  H   H14       1.0  0.8407624329942394  0.2316261672612185  0.42188801395874975  1.0000
  H   H15       1.0  0.231626623305381  0.8407595630991335  0.9218889962354879  1.0000
  H   H16       1.0  0.1592395835243181  0.7683723207513108  0.5781119220160065  1.0000
  H   H17       1.0  0.6841582026397433  0.16791685628443512  0.917292689887887  1.0000
  H   H18       1.0  0.8320816974621934  0.31584317509059173  0.5827069685619647  1.0000
  H   H19       1.0  0.3158424103522677  0.8320816101638755  0.0827070287815772  1.0000
  H   H20       1.0  0.1679196088495871  0.6841581429033353  0.4172920392569992  1.0000
  H   H21       1.0  0.7557413283021006  0.23244103967260085  0.841591721551822  1.0000
  H   H22       1.0  0.76755668716266  0.24426068952703844  0.6584079554462933  1.0000
  H   H23       1.0  0.2442585814372791  0.7675583642399175  0.1584079738590773  1.0000
  H   H24       1.0  0.23244110608363397  0.7557421532000105  0.341590173350518  1.0000
  H   H25       1.0  0.6245665187665493  0.14389852543467896  0.751833564454536  1.0000
  H   H26       1.0  0.8561031250600664  0.37543200224629175  0.7481664290004844  1.0000
  H   H27       1.0  0.3754326877202061  0.8561018159420541  0.2481661076978128  1.0000
  H   H28       1.0  0.1438967860044684  0.6245674029913814  0.2518336249722282  1.0000
  H   H29       1.0  0.5520596992784591  0.08022498769958006  0.828168295335658  1.0000
  H   H30       1.0  0.9197753537671859  0.44793993120957504  0.6718313591152237  1.0000
  H   H31       1.0  0.4479402104609278  0.9197744162129381  0.1718314000752486  1.0000
  H   H32       1.0  0.0802259594987405  0.5520594942671622  0.3281685536009676  1.0000
  H   H33       1.0  0.16676059058242027  0.20112830757756234  0.9439202938281213  1.0000
  H   H34       1.0  0.7988718540620495  0.8332394965637703  0.5560789745429844  1.0000
  H   H35       1.0  0.833239316287731  0.7988723597799562  0.05607927640036794  1.0000
  H   H36       1.0  0.20112735650963032  0.16676021574076566  0.4439214773241815  1.0000
  H   H37       1.0  0.0336667023794774  0.3619464766519441  0.9545200680423136  1.0000
  H   H38       1.0  0.6380533031841226  0.9663334258610374  0.54547995195027  1.0000
  H   H39       1.0  0.9663339035489075  0.6380545153611973  0.045479041700509995  1.0000
  H   H40       1.0  0.3619459073875575  0.03366628644349841  0.4545204999168959  1.0000
  H   H41       1.0  0.19719495434555506  0.4177274741946988  0.040202977283762216  1.0000
  H   H42       1.0  0.5822714561041592  0.802804105583682  0.45979790149525007  1.0000
  H   H43       1.0  0.8028049566095063  0.5822725640906227  0.959797372659544  1.0000
  H   H44       1.0  0.41772845772013767  0.19719466925664614  0.5402025736304665  1.0000
  H   H45       1.0  0.3291532569775555  0.2560274127023305  0.03084127211213431  1.0000
  H   H46       1.0  0.7439712101016625  0.6708461495367928  0.4691592438230145  1.0000
  H   H47       1.0  0.6708459537035906  0.7439716665545646  0.9691588837844307  1.0000
  H   H48       1.0  0.2560280017951655  0.3291535640928983  0.5308415666059573  1.0000
  H   H49       1.0  0.2841486414775646  0.35421446744842905  0.1124591111673041  1.0000
  H   H50       1.0  0.6457854737050399  0.7158502922314226  0.3875406032172606  1.0000
  H   H51       1.0  0.7158512682618153  0.6457849364640962  0.8875405842436024  1.0000
  H   H52       1.0  0.3542144387941093  0.28414848128375064  0.612459513346657  1.0000
  H   H53       1.0  0.2865888812152946  0.34421796038429864  0.1774402425182018  1.0000
  H   H54       1.0  0.6557826652453614  0.7134100908122605  0.32255940008288764  1.0000
  H   H55       1.0  0.7134110270894709  0.6557820752507195  0.8225593903014925  1.0000
  H   H56       1.0  0.3442179476371763  0.28658900868369835  0.6774406145571702  1.0000
  H   H57       1.0  0.23224472859232756  0.2861843674486337  0.1524107035019497  1.0000
  H   H58       1.0  0.7138146928946654  0.7677551000409721  0.34758936829847187  1.0000
  H   H59       1.0  0.7677551824722073  0.7138150377890393  0.8475893504707626  1.0000
  H   H60       1.0  0.2861838157495384  0.23224555105292666  0.6524114188719423  1.0000
  H   H61       1.0  0.323476712209704  0.13559930560531802  0.202776139745481  1.0000
  H   H62       1.0  0.8644011424819241  0.6765246316349757  0.29722400248699193  1.0000
  H   H63       1.0  0.6765238990192871  0.86440169170843  0.7972244042445595  1.0000
  H   H64       1.0  0.1355980623512849  0.32347760755954613  0.7027761990153394  1.0000
  H   H65       1.0  0.39043708838485  0.17949636867422922  0.22843066172673326  1.0000
  H   H66       1.0  0.8205054231419027  0.6095638679294593  0.27156902671397637  1.0000
  H   H67       1.0  0.6095635187592237  0.8205052577117159  0.7715691025484901  1.0000
  H   H68       1.0  0.17949588582017378  0.39043745271476377  0.7284306982285997  1.0000
  H   H69       1.0  0.45015937324213695  0.07399797837749841  0.19814212029472597  1.0000
  H   H70       1.0  0.9260030435062206  0.5498414292806474  0.30185801862500483  1.0000
  H   H71       1.0  0.549841237986854  0.9260030189362495  0.8018584236953216  1.0000
  H   H72       1.0  0.0739975635283869  0.4501608301529458  0.6981420416208195  1.0000
  H   H73       1.0  0.4687104420090975  0.4025097858853216  0.0547812906673002  1.0000
  H   H74       1.0  0.5974908266147878  0.5312894645879639  0.4452189780217354  1.0000
  H   H75       1.0  0.531288765802806  0.5974905568165667  0.9452187400468474  1.0000
  H   H76       1.0  0.4025097861582907  0.4687102679556361  0.5547813325889237  1.0000
  H   H77       1.0  0.5812733357383947  0.3946765549639935  0.02525781405532261  1.0000
  H   H78       1.0  0.6053241641273106  0.4187264998427761  0.4747417333947297  1.0000
  H   H79       1.0  0.4187265725663707  0.6053234806710251  0.9747418187643788  1.0000
  H   H80       1.0  0.3946764459954579  0.5812732300505273  0.5252578600923101  1.0000
  H   H81       1.0  0.5766214753659682  0.30904287701209626  0.07490475294047633  1.0000
  H   H82       1.0  0.6909574222629259  0.42337905462065345  0.4250947672035181  1.0000
  H   H83       1.0  0.42337843426395244  0.6909571599480769  0.9250952384410239  1.0000
  H   H84       1.0  0.309043186425228  0.5766213069951504  0.5749047636923166  1.0000
  H   H85       1.0  0.4692590918206108  0.3326054615450076  0.9292350630439897  1.0000
  H   H86       1.0  0.667394911627767  0.5307399350716081  0.5707650071801851  1.0000
  H   H87       1.0  0.530740819243924  0.6673939436926659  0.07076499092872268  1.0000
  H   H88       1.0  0.33260570257991867  0.4692591657494985  0.429235366021679  1.0000
  H   H89       1.0  0.5163656598849187  0.4091085296941726  0.9398873977931287  1.0000
  H   H90       1.0  0.5908921794912132  0.48363337529906403  0.5601126382533508  1.0000
  H   H91       1.0  0.4836342510701499  0.5908915085911486  0.06011295215017749  1.0000
  H   H92       1.0  0.4091077330079358  0.5163653982161165  0.4398874783105668  1.0000
  H   H93       1.0  0.4076341892782267  0.41464137718929805  0.9742289183709119  1.0000
  H   H94       1.0  0.5853586442106788  0.5923660229630484  0.5257714279663617  1.0000
  H   H95       1.0  0.5923657217863081  0.5853580280483753  0.02577113560179359  1.0000
  H   H96       1.0  0.41464126674438273  0.407634015322273  0.4742289219769447  1.0000
  C   C1        1.0  0.6410865913972117  0.0903350884529672  0.1053804984568174  1.0000
  C   C2        1.0  0.9096650881724528  0.35891319748801453  0.39461910733052713  1.0000
  C   C3        1.0  0.35891332110193724  0.9096636850622062  0.8946196181071002  1.0000
  C   C4        1.0  0.09033552184084932  0.6410871654529373  0.6053807821271207  1.0000
  C   C5        1.0  0.6936306114297535  0.10965655133431793  0.1380536821301916  1.0000
  C   C6        1.0  0.8903449441545916  0.3063680967297484  0.3619458999932021  1.0000
  C   C7        1.0  0.30636789732391634  0.8903434667119396  0.8619468090696286  1.0000
  C   C8        1.0  0.10965637054595591  0.6936306970244955  0.6380540753142014  1.0000
  C   C9        1.0  0.6775169592849294  0.09307588511687459  0.1891640818965357  1.0000
  C   C10       1.0  0.906925201691223  0.32248232216792144  0.31083548387966436  1.0000
  C   C11       1.0  0.3224801443981065  0.906925376135298  0.8108364253773743  1.0000
  C   C12       1.0  0.0930754097567004  0.677517409050537  0.6891644681691815  1.0000
  C   C13       1.0  0.7208996358201675  0.11694658289341218  0.21984737034239288  1.0000
  C   C14       1.0  0.8830542365648881  0.27909947411333724  0.2801522390069379  1.0000
  C   C15       1.0  0.2790974692974828  0.8830540466362746  0.7801531995227292  1.0000
  C   C16       1.0  0.1169456758247946  0.7208999324494838  0.7198481735275736  1.0000
  C   C17       1.0  0.7816240824487153  0.15811536319807107  0.1994100570382074  1.0000
  C   C18       1.0  0.8418850685771062  0.21837558208947883  0.3005895357257272  1.0000
  C   C19       1.0  0.21837302112485452  0.8418865311017496  0.8005907462063035  1.0000
  C   C20       1.0  0.1581155443054314  0.7816235174064727  0.6994104789143307  1.0000
  C   C21       1.0  0.7997878857076088  0.17255284458178008  0.1483376020534237  1.0000
  C   C22       1.0  0.8274477877867527  0.20021122131451113  0.35166202615324943  1.0000
  C   C23       1.0  0.2002106230460612  0.8274471734644705  0.8516628891463964  1.0000
  C   C24       1.0  0.1725528249863189  0.7997885112290959  0.6483382844574025  1.0000
  C   C25       1.0  0.7560145852649426  0.14829440473800296  0.1178460749947945  1.0000
  C   C26       1.0  0.8517065639194854  0.2439849282455314  0.38215312063393003  1.0000
  C   C27       1.0  0.24398392348872736  0.8517056133082475  0.8821544162050188  1.0000
  C   C28       1.0  0.14829474934644077  0.756014497231213  0.6178467920822683  1.0000
  C   C29       1.0  0.5698966621652488  0.08352123513360957  0.9213886354513576  1.0000
  C   C30       1.0  0.916481169962239  0.43010333879853113  0.5786118537471338  1.0000
  C   C31       1.0  0.43010184515380706  0.9164794146351409  0.07861179315725055  1.0000
  C   C32       1.0  0.083523650740176  0.5698964557874291  0.4213883916557961  1.0000
  C   C33       1.0  0.6131188763884694  0.12193807202370978  0.8766274353287855  1.0000
  C   C34       1.0  0.8780613405712998  0.3868825474906428  0.6233721332613342  1.0000
  C   C35       1.0  0.38688243566177505  0.8780607190802312  0.12337182285501308  1.0000
  C   C36       1.0  0.121939265357085  0.613118444522506  0.37662697648148935  1.0000
  C   C37       1.0  0.6708477964581049  0.1644193665961425  0.8807519721055285  1.0000
  C   C38       1.0  0.8355793281232025  0.3291540400304737  0.6192479856171644  1.0000
  C   C39       1.0  0.3291528150992846  0.8355797315746682  0.11924768397272353  1.0000
  C   C40       1.0  0.16442128056495867  0.670846321585323  0.3807515452786702  1.0000
  C   C41       1.0  0.7104546187670522  0.19973561359055475  0.8391938826321379  1.0000
  C   C42       1.0  0.8002633111892122  0.289547014910056  0.6608060723825772  1.0000
  C   C43       1.0  0.2895466959334883  0.8002631801636895  0.1608060926752657  1.0000
  C   C44       1.0  0.19973659292116253  0.7104542828448002  0.3391930766929008  1.0000
  C   C45       1.0  0.6926367180893891  0.1927224303333189  0.7925875632761289  1.0000
  C   C46       1.0  0.8072768959830725  0.3073653101817299  0.7074119538582836  1.0000
  C   C47       1.0  0.30736389070823117  0.8072772982348366  0.20741167164911192  1.0000
  C   C48       1.0  0.1927216017315274  0.6926372294539077  0.2925868527294853  1.0000
  C   C49       1.0  0.6361409782783909  0.14903047006898604  0.7884496670981208  1.0000
  C   C50       1.0  0.8509690910839538  0.36385858017381156  0.711550071988853  1.0000
  C   C51       1.0  0.3638596332789987  0.8509686281018175  0.2115499889801313  1.0000
  C   C52       1.0  0.1490308173302779  0.6361408224135587  0.2884492648602475  1.0000
  C   C53       1.0  0.5964640150367373  0.11411396871109496  0.8302125670773393  1.0000
  C   C54       1.0  0.8858858331986426  0.4035360529441261  0.6697878151541872  1.0000
  C   C55       1.0  0.4035365978458003  0.8858851307848636  0.16978744756271885  1.0000
  C   C56       1.0  0.1141154787421428  0.5964633712074627  0.3302117390002053  1.0000
  C   C57       1.0  0.3320544741208806  0.12339048462050069  0.9812311441211179  1.0000
  C   C58       1.0  0.8766100083741861  0.6679458301826953  0.5187691461411674  1.0000
  C   C59       1.0  0.6679461358924216  0.876609878320451  0.018768745336522834  1.0000
  C   C60       1.0  0.12339060561456709  0.3320545367337076  0.48123181900189127  1.0000
  C   C61       1.0  0.2548383984969078  0.21940639577948667  0.987151073685993  1.0000
  C   C62       1.0  0.7805930747526517  0.7451608855337779  0.5128490606874722  1.0000
  C   C63       1.0  0.7451615124581608  0.7805936425058347  0.012849276257313138  1.0000
  C   C64       1.0  0.2194068390716453  0.2548378893065504  0.4871514144382516  1.0000
  C   C65       1.0  0.1718311859400501  0.24933847096242803  0.9651958933255997  1.0000
  C   C66       1.0  0.7506620125151214  0.8281684726700221  0.534804103311366  1.0000
  C   C67       1.0  0.828168720930094  0.7506621963950906  0.03480367690288943  1.0000
  C   C68       1.0  0.2493379025248643  0.17183093654310969  0.4651970263467575  1.0000
  C   C69       1.0  0.0987361418231458  0.33769058169419697  0.9708859848813987  1.0000
  C   C70       1.0  0.6623093550630729  0.9012632755389088  0.5291140900806539  1.0000
  C   C71       1.0  0.9012644668650082  0.6623097799215997  0.029113546014436133  1.0000
  C   C72       1.0  0.3376898569432143  0.09873580504313398  0.470886424377717  1.0000
  C   C73       1.0  0.108368692812661  0.39791597518506444  0.9985756604475995  1.0000
  C   C74       1.0  0.60208380980405  0.891631084738243  0.5014247526656772  1.0000
  C   C75       1.0  0.8916312153826381  0.602084693497602  0.0014242683426957104  1.0000
  C   C76       1.0  0.39791610247616666  0.10836895487222621  0.49857595583943487  1.0000
  C   C77       1.0  0.1920010759921098  0.36868807669593195  0.019491311301848696  1.0000
  C   C78       1.0  0.6313108170719843  0.8079978472010647  0.48050958466312477  1.0000
  C   C79       1.0  0.8079988349629588  0.6313119615893825  0.9805090386414577  1.0000
  C   C80       1.0  0.3686883962594578  0.192001234706126  0.5194912883570595  1.0000
  C   C81       1.0  0.2646387355435849  0.2797120042309016  0.014215399017700718  1.0000
  C   C82       1.0  0.7202873995206147  0.7353616807470329  0.485784939129431  1.0000
  C   C83       1.0  0.7353618772294864  0.7202877283127053  0.9857849115929582  1.0000
  C   C84       1.0  0.2797118110510581  0.2646380315575029  0.514215512737735  1.0000
  C   C85       1.0  0.2889082579297694  0.3081589227417111  0.1467497750779927  1.0000
  C   C86       1.0  0.6918416145349794  0.7110906357205313  0.3532502428874622  1.0000
  C   C87       1.0  0.7110916517001512  0.6918411142184624  0.8532502163035077  1.0000
  C   C88       1.0  0.3081582978547032  0.2889087708422977  0.6467501696470563  1.0000
  C   C89       1.0  0.38910418717579626  0.14266804491798274  0.1989995549412598  1.0000
  C   C90       1.0  0.8573333927399744  0.6108961047530953  0.30100023463012354  1.0000
  C   C91       1.0  0.6108957209100296  0.8573332568123246  0.8010006698196294  1.0000
  C   C92       1.0  0.14266721440409919  0.3891055216328496  0.6989995296450999  1.0000
  C   C93       1.0  0.5418984316792788  0.3552228357423458  0.04340862675709191  1.0000
  C   C94       1.0  0.644777774986146  0.4581011250203345  0.45659131797351193  1.0000
  C   C95       1.0  0.45810147795063466  0.6447772012178205  0.9565913646244155  1.0000
  C   C96       1.0  0.35522283789639186  0.5418979744756244  0.5434086966665461  1.0000
  C   C97       1.0  0.4768148896943103  0.3691449326435787  0.9568776920273407  1.0000
  C   C98       1.0  0.630855446225489  0.5231843963622113  0.5431223519081811  1.0000
  C   C99       1.0  0.5231850199356103  0.6308551043165945  0.04312229935416673  1.0000
  C   C100      1.0  0.36914516798220376  0.4768147044588957  0.45687802129368293  1.0000
  S   S1        1.0  0.401449718581297  0.20703404994375052  0.1407478635462454  1.0000
  S   S2        1.0  0.7929669410881601  0.5985500131135312  0.359251667211403  1.0000
  S   S3        1.0  0.5985508914320051  0.792966312997201  0.8592520259113954  1.0000
  S   S4        1.0  0.2070336703597633  0.40144971810492075  0.6407482848374499  1.0000
  S   S5        1.0  0.5437656785458245  0.278978624675268  0.001974034304779974  1.0000
  S   S6        1.0  0.7210220185906309  0.4562338606750699  0.4980255500689807  1.0000
  S   S7        1.0  0.45623422975894096  0.7210214109597503  0.9980255985149213  1.0000
  S   S8        1.0  0.2789778924738968  0.5437655445626034  0.5019745039037318  1.0000
  N   N1        1.0  0.8235588913133468  0.1919078404907707  0.22699195753018128  1.0000
  N   N2        1.0  0.8080926648841357  0.1764421648519628  0.273006772074524  1.0000
  N   N3        1.0  0.17643961468055386  0.8080928079528247  0.7730081125166278  1.0000
  N   N4        1.0  0.1919065414931538  0.8235588095724108  0.7269931960484186  1.0000
  N   N5        1.0  0.7275979317524914  0.22719965808295225  0.7478491665943919  1.0000
  N   N6        1.0  0.772800562237684  0.2724016896408159  0.7521505007768353  1.0000
  N   N7        1.0  0.2724019766617403  0.772799744504418  0.2521501702547083  1.0000
  N   N8        1.0  0.22719934617654758  0.7275977129465543  0.247848836072265  1.0000
  N   N9        1.0  0.03908437875946899  0.4886397835808721  0.0076515743584267115  1.0000
  N   N10       1.0  0.5113601134292551  0.9609147609638242  0.49234920060342796  1.0000
  N   N11       1.0  0.9609162298192189  0.5113612110825726  0.9923482525080088  1.0000
  N   N12       1.0  0.48863909990218707  0.03908432094336684  0.507651672416749  1.0000
  O   O1        1.0  0.58386448717021  0.05557656602564263  0.12447173800079271  1.0000
  O   O2        1.0  0.9444240621674851  0.4161344706639625  0.3755282643069009  1.0000
  O   O3        1.0  0.41613472351092884  0.944422513231245  0.8755284178957793  1.0000
  O   O4        1.0  0.0555765492804383  0.5838652605544892  0.624471687741952  1.0000
  O   O5        1.0  0.6517324457160568  0.11231614787530492  0.059366724914028224  1.0000
  O   O6        1.0  0.8876843681259815  0.34826689114032644  0.4406328920656861  1.0000
  O   O7        1.0  0.34826746678309217  0.8876826256398683  0.9406333916498895  1.0000
  O   O8        1.0  0.1123169437053306  0.651733166058911  0.5593669580593  1.0000
  O   O9        1.0  0.5841227894113814  0.0949844503707169  0.9628962219729046  1.0000
  O   O10       1.0  0.9050174275042338  0.41587789301592454  0.5371028166071312  1.0000
  O   O11       1.0  0.4158757111724468  0.9050168258199205  0.0371027097972743  1.0000
  O   O12       1.0  0.09498528244355949  0.5841228134945736  0.46289611254652396  1.0000
  O   O13       1.0  0.5221748456327475  0.04290460794156553  0.9139996727337021  1.0000
  O   O14       1.0  0.9570963910645317  0.477824002846752  0.5860014293741999  1.0000
  O   O15       1.0  0.47782295567391486  0.9570976096887377  0.0860003114633443  1.0000
  O   O16       1.0  0.042904926286318805  0.522174793557795  0.41399926305681584  1.0000
  O   O17       1.0  0.4049740528524026  0.09441647587893692  0.003818751421270914  1.0000
  O   O18       1.0  0.9055838726351482  0.5950263630156841  0.49618041632058413  1.0000
  O   O19       1.0  0.5950258540177416  0.9055841914785812  0.9961808188072182  1.0000
  O   O20       1.0  0.0944167360530059  0.40497399860011274  0.5038191145752506  1.0000
  O   O21       1.0  0.3239059860882847  0.07265831372508556  0.9538608256061067  1.0000
  O   O22       1.0  0.9273411912741238  0.6760937103352659  0.5461385466409396  1.0000
  O   O23       1.0  0.6760932231582402  0.9273413972543021  0.046139267699253105  1.0000
  O   O24       1.0  0.0726580194070152  0.323905368921629  0.4538616092556325  1.0000
  O   O25       1.0  0.3926452941755585  0.15480050864363887  0.10290596963733382  1.0000
  O   O26       1.0  0.8452001362432496  0.6073548371851345  0.3970939146101315  1.0000
  O   O27       1.0  0.6073546154543621  0.8451995283165272  0.8970940217441736  1.0000
  O   O28       1.0  0.15480047520466655  0.3926448940333175  0.6029060374387215  1.0000
  O   O29       1.0  0.47637740884216845  0.2397178031854067  0.028507496406874104  1.0000
  O   O30       1.0  0.7602825325799926  0.523622953436373  0.471492036782216  1.0000
  O   O31       1.0  0.5236232026057478  0.760281928033045  0.9714924556419788  1.0000
  O   O32       1.0  0.23971877925131926  0.47637710376286446  0.5285078133427703  1.0000
