data_image0
_chemical_formula_structural       Yb2H12C18O14
_chemical_formula_sum              "Yb2 H12 C18 O14"
_cell_length_a       6.9530622123085575
_cell_length_b       7.571297559083566
_cell_length_c       10.210171084638953
_cell_angle_alpha    75.713176793732
_cell_angle_beta     71.07044983043298
_cell_angle_gamma    88.50221715282379

_space_group_name_H-M_alt    "P 1"
_space_group_IT_number       1

loop_
  _space_group_symop_operation_xyz
  'x, y, z'

loop_
  _atom_site_type_symbol
  _atom_site_label
  _atom_site_symmetry_multiplicity
  _atom_site_fract_x
  _atom_site_fract_y
  _atom_site_fract_z
  _atom_site_occupancy
  Yb  Yb1       1.0  0.3066402222837253  0.21813227658730477  0.0186715228068479  1.0000
  Yb  Yb2       1.0  0.6933657969852615  0.7818656715464698  0.9813283225286966  1.0000
  H   H1        1.0  0.1803419889727351  0.14583949268450871  0.6022874519075714  1.0000
  H   H2        1.0  0.8196495449120744  0.854158697435487  0.3977156133172528  1.0000
  H   H3        1.0  0.7125699886377602  0.8703844375457804  0.6505840117516188  1.0000
  H   H4        1.0  0.28742492088137783  0.12961410774991577  0.34941798172548033  1.0000
  H   H5        1.0  0.6908640067264713  0.2893130503108736  0.5938864894116804  1.0000
  H   H6        1.0  0.30913087421950536  0.7106891711772148  0.4061122990170675  1.0000
  H   H7        1.0  0.06310163746176292  0.6942999260886467  0.6485351046945311  1.0000
  H   H8        1.0  0.9368947249379078  0.30570097916347544  0.3514636808933744  1.0000
  H   H9        1.0  0.9968795993650515  0.9173385183428309  0.16229241013828505  1.0000
  H   H10       1.0  0.003119098515348584  0.08266336977617779  0.8377074455250269  1.0000
  H   H11       1.0  0.21900599424181877  0.8450749792647657  0.16170124734893682  1.0000
  H   H12       1.0  0.7809903252179069  0.15492724658464135  0.8382975401771732  1.0000
  C   C1        1.0  0.3818404290127047  0.026403205762988977  0.7928822144641927  1.0000
  C   C2        1.0  0.6181553774733998  0.9735963180382611  0.2071208499909432  1.0000
  C   C3        1.0  0.4392086984908443  0.0077137893099745655  0.6434396439598516  1.0000
  C   C4        1.0  0.5607852567545775  0.992282742482338  0.35656448746397024  1.0000
  C   C5        1.0  0.31992360176240425  0.08150158527443098  0.5577375411891268  1.0000
  C   C6        1.0  0.6800683734225003  0.9184959163007913  0.44226766301799364  1.0000
  C   C7        1.0  0.6199592856194439  0.9268431650180985  0.5843109701062305  1.0000
  C   C8        1.0  0.380036108139727  0.07315337113553966  0.4156931604149605  1.0000
  C   C9        1.0  0.7144780319816135  0.4783401384841424  0.7824299922599424  1.0000
  C   C10       1.0  0.2855204249316472  0.5216534795981289  0.2175709217166073  1.0000
  C   C11       1.0  0.8616381581346674  0.4902088693639113  0.6362559219705093  1.0000
  C   C12       1.0  0.13835676575125433  0.509792031526892  0.3637428645200274  1.0000
  C   C13       1.0  0.8271239942064523  0.3804998758624405  0.5527002890517636  1.0000
  C   C14       1.0  0.17287025931285174  0.6195059609644317  0.4472995751340534  1.0000
  C   C15       1.0  0.03535231923916611  0.6104015347150592  0.582925434110628  1.0000
  C   C16       1.0  0.9646424328869686  0.38960464856486243  0.4170733601327328  1.0000
  C   C17       1.0  0.9167497719247136  0.43378680457758617  0.0606980329350719  1.0000
  C   C18       1.0  0.08327916347798942  0.5662198863194303  0.9392953897998596  1.0000
  O   O1        1.0  0.4789537934642354  0.9497969972451085  0.8759342213273841  1.0000
  O   O2        1.0  0.5210415573549908  0.050200859505807216  0.1240699111320041  1.0000
  O   O3        1.0  0.24103880882125128  0.13393691652613168  0.8343000013710624  1.0000
  O   O4        1.0  0.7589579805117238  0.8660609445861097  0.16570413018570215  1.0000
  O   O5        1.0  0.6162053299261034  0.32440752974123627  0.8522964137885723  1.0000
  O   O6        1.0  0.3837971729881032  0.6755815075806594  0.1477023507449644  1.0000
  O   O7        1.0  0.6969214726821988  0.6178117232719699  0.8311786093305287  1.0000
  O   O8        1.0  0.3030777523781865  0.3821868351076958  0.1688233814386706  1.0000
  O   O9        1.0  0.9667229486352863  0.27185505632809276  0.10021629831965133  1.0000
  O   O10       1.0  0.033298011845175654  0.7281527042524089  0.8997696401008782  1.0000
  O   O11       1.0  0.7470875647017718  0.49827168566120855  0.10987941817320031  1.0000
  O   O12       1.0  0.2529318570182538  0.5017363561574227  0.8901097320129311  1.0000
  O   O13       1.0  0.13487643813028422  0.953359443556813  0.1597205535105601  1.0000
  O   O14       1.0  0.8651208641763117  0.046641119603592136  0.8402793011171852  1.0000
