data_image0
_chemical_formula_structural       V6Zn2H18C20N6O17
_chemical_formula_sum              "V6 Zn2 H18 C20 N6 O17"
_cell_length_a       7.276594548480756
_cell_length_b       10.302773192332937
_cell_length_c       10.671349331056796
_cell_angle_alpha    80.34762545253385
_cell_angle_beta     69.66622947215791
_cell_angle_gamma    87.87892146202387

_space_group_name_H-M_alt    "P 1"
_space_group_IT_number       1

loop_
  _space_group_symop_operation_xyz
  'x, y, z'

loop_
  _atom_site_type_symbol
  _atom_site_label
  _atom_site_symmetry_multiplicity
  _atom_site_fract_x
  _atom_site_fract_y
  _atom_site_fract_z
  _atom_site_occupancy
  V   V1        1.0  0.4367410860166602  0.5682324247731002  0.8777360379778829  1.0000
  V   V2        1.0  0.5632584106789338  0.43176773932997037  0.12226486792202008  1.0000
  V   V3        1.0  0.0870972438131616  0.40181841171208527  0.08686106727650166  1.0000
  V   V4        1.0  0.9129022086557157  0.5981807708578655  0.9131409481647739  1.0000
  V   V5        1.0  0.869841111960767  0.4567646955701291  0.3977973471681509  1.0000
  V   V6        1.0  0.1301583405081104  0.5432344869998218  0.6022046682731317  1.0000
  Zn  Zn1       1.0  0.4529758549298037  0.3266759687774011  0.6762283876339198  1.0000
  Zn  Zn2       1.0  0.5470221385126378  0.673323213240792  0.3237730323228052  1.0000
  H   H1        1.0  0.4096420199262312  0.9058425653246543  0.8144570577682304  1.0000
  H   H2        1.0  0.5903589551737056  0.09415758952449238  0.18554162938993102  1.0000
  H   H3        1.0  0.258193631403465  0.8393013267251774  0.6881806349039368  1.0000
  H   H4        1.0  0.7418059095188454  0.16069981891100577  0.31181916145460065  1.0000
  H   H5        1.0  0.15895003119540974  0.8931818623447044  0.4855314153477155  1.0000
  H   H6        1.0  0.8410450690429556  0.1068183099087676  0.514470518324835  1.0000
  H   H7        1.0  0.1890280698042162  0.1303110735218453  0.3654472082532649  1.0000
  H   H8        1.0  0.8109685023791968  0.86968909274627  0.6345534447529746  1.0000
  H   H9        1.0  0.3176292185126784  0.2989197396203167  0.45704783162580054  1.0000
  H   H10       1.0  0.6823716810524232  0.7010784456254767  0.5429511984642377  1.0000
  H   H11       1.0  0.6534975602962447  0.8786925818711918  0.8876875946464228  1.0000
  H   H12       1.0  0.3465034396525013  0.12130856431675606  0.11231279719666531  1.0000
  H   H13       1.0  0.9299305974864467  0.9736426309663813  0.9282817793166419  1.0000
  H   H14       1.0  0.07007041538090421  0.02635850868444581  0.07171673637558482  1.0000
  H   H15       1.0  0.9870319247842617  0.22282180023516668  0.8732610435147168  1.0000
  H   H16       1.0  0.012970553568834496  0.7771793366988646  0.12673712958662975  1.0000
  H   H17       1.0  0.7568357883814939  0.3578193384976913  0.7806898731878325  1.0000
  H   H18       1.0  0.24316379676752573  0.6421827886716114  0.21930881362933977  1.0000
  C   C1        1.0  0.2649835605536239  0.940384727786821  0.636143437390871  1.0000
  C   C2        1.0  0.7350159112931535  0.05961444497745559  0.3638557638241125  1.0000
  C   C3        1.0  0.2104551847837115  0.9713706901312519  0.5231422280253926  1.0000
  C   C4        1.0  0.7895427773506115  0.02862750381670049  0.47685842532183637  1.0000
  C   C5        1.0  0.22737266762774772  0.1020603530837292  0.4559368989582709  1.0000
  C   C6        1.0  0.7726268355271487  0.897939807750781  0.5440630688662011  1.0000
  C   C7        1.0  0.2984208262316841  0.19625939651280078  0.5064310547638868  1.0000
  C   C8        1.0  0.7015801488682527  0.803740758336346  0.4935676323942815  1.0000
  C   C9        1.0  0.3422047403125959  0.0416054289019954  0.6786857500177208  1.0000
  C   C10       1.0  0.657797700273079  0.9583947232303485  0.32131259454956074  1.0000
  C   C11       1.0  0.5608411299996378  0.0671926287963984  0.8097001434335315  1.0000
  C   C12       1.0  0.43916279446129647  0.9328085152265045  0.19030050130323414  1.0000
  C   C13       1.0  0.6810087084469886  0.9846500028552543  0.8656734518085615  1.0000
  C   C14       1.0  0.3189893421407604  0.015350154158937798  0.13432498245592944  1.0000
  C   C15       1.0  0.835329604419492  0.0390089278304515  0.8881356871829671  1.0000
  C   C16       1.0  0.16466987388658794  0.9609902416652644  0.11186257595657884  1.0000
  C   C17       1.0  0.867800319642747  0.1756076175143448  0.8571446424390532  1.0000
  C   C18       1.0  0.1322021274022305  0.8243925313494455  0.1428527640527976  1.0000
  C   C19       1.0  0.7415580881946653  0.25099147537837035  0.8054296693566629  1.0000
  C   C20       1.0  0.25844145918694034  0.7490096669892523  0.1945691889264438  1.0000
  N   N1        1.0  0.41308683210205294  0.0067940540380178  0.7844123339346256  1.0000
  N   N2        1.0  0.5869141052304698  0.993205116009456  0.21558652468947773  1.0000
  N   N3        1.0  0.5897128730153086  0.19932790543553122  0.7823436764220308  1.0000
  N   N4        1.0  0.4102851711131377  0.8006722548472207  0.21765569591789818  1.0000
  N   N5        1.0  0.3536604791813147  0.1671776528281157  0.6163461687042686  1.0000
  N   N6        1.0  0.6463419614043601  0.832822499304235  0.3836521758630201  1.0000
  O   O1        1.0  0.6702280278587479  0.3692448283733256  0.4958258424257026  1.0000
  O   O2        1.0  0.3297729278632886  0.6307553362815028  0.504175658958758  1.0000
  O   O3        1.0  0.19370346907155778  0.40639433039245876  0.6831861845325807  1.0000
  O   O4        1.0  0.8062959704787145  0.5936048587146061  0.3168177070595632  1.0000
  O   O5        1.0  6.783892772001287e-07  0.4999982954788535  0.5000005543562268  1.0000
  O   O6        1.0  0.5129610477333486  0.4980196837966275  0.7389171435022633  1.0000
  O   O7        1.0  0.4870384867296592  0.5019814651081163  0.2610835909317047  1.0000
  O   O8        1.0  0.15515733427388056  0.5394835773489105  0.9224695079692895  1.0000
  O   O9        1.0  0.8448421246542993  0.46051560195248004  0.07753156939656244  1.0000
  O   O10       1.0  0.3357141590197728  0.4668901248088203  0.06644919041755773  1.0000
  O   O11       1.0  0.6642838344226619  0.5331090572093727  0.9335522295391672  1.0000
  O   O12       1.0  0.12324500117396298  0.2628801604539105  0.03378089450337282  1.0000
  O   O13       1.0  0.8767544512949073  0.7371190221160403  0.9662211209379026  1.0000
  O   O14       1.0  0.009445568037278897  0.36292001093595155  0.26901260406932453  1.0000
  O   O15       1.0  0.9905538908909007  0.6370791683654388  0.7309884732965205  1.0000
  O   O16       1.0  0.450104461359544  0.7286043887772564  0.8369424502808515  1.0000
  O   O17       1.0  0.5498965072810904  0.271395769340451  0.16305717495274055  1.0000
