data_image0
_chemical_formula_structural       Zn2H6C22N2O8
_chemical_formula_sum              "Zn2 H6 C22 N2 O8"
_cell_length_a       10.63741413859033
_cell_length_b       11.910441526648901
_cell_length_c       16.093909762944023
_cell_angle_alpha    90.01160171403463
_cell_angle_beta     90.13748937097132
_cell_angle_gamma    90.00861520017915

_space_group_name_H-M_alt    "P 1"
_space_group_IT_number       1

loop_
  _space_group_symop_operation_xyz
  'x, y, z'

loop_
  _atom_site_type_symbol
  _atom_site_label
  _atom_site_symmetry_multiplicity
  _atom_site_fract_x
  _atom_site_fract_y
  _atom_site_fract_z
  _atom_site_occupancy
  Zn  Zn1       1.0  0.37155940180986846  0.49999104664499333  0.49999693732183187  1.0000
  Zn  Zn2       1.0  0.6284397360872304  0.5000077982992153  0.5000027452612344  1.0000
  H   H1        1.0  0.5959951086523745  0.6735664257808339  0.9484144152691198  1.0000
  H   H2        1.0  0.4040068516568524  0.3264340987272192  0.05158651260582299  1.0000
  H   H3        1.0  0.38024847993857946  0.6614385112832083  0.0514726725554127  1.0000
  H   H4        1.0  0.6197525402208865  0.3385611735609046  0.9485282544376048  1.0000
  H   H5        1.0  0.7172770348538149  0.5123452934780488  0.0509140274797986  1.0000
  H   H6        1.0  0.28272398428948253  0.4876543912803228  0.9490862781589015  1.0000
  C   C1        1.0  0.5000079769047756  0.8405716025708615  0.4999987807029528  1.0000
  C   C2        1.0  0.4999958294740308  0.0566879775631435  0.5000007180773522  1.0000
  C   C3        1.0  0.4332965022001004  0.5897236395333465  0.027694612353982996  1.0000
  C   C4        1.0  0.5667045170126953  0.4102768848244834  0.9723056933472518  1.0000
  C   C5        1.0  0.5534938746753112  0.596477301850932  0.9722670232522859  1.0000
  C   C6        1.0  0.44650714453748447  0.4035232225069052  0.027733282448949095  1.0000
  C   C7        1.0  0.5005113419343913  0.5001645989471017  0.7508440932954699  1.0000
  C   C8        1.0  0.49948967633173413  0.4998367649244529  0.24915559111397556  1.0000
  C   C9        1.0  0.3791376899294788  0.4931526788292686  0.9724696124927091  1.0000
  C   C10       1.0  0.6208633282671484  0.5068478454428271  0.0275300718542084  1.0000
  C   C11       1.0  0.4989862176148561  0.4998470189707831  0.9144935617480954  1.0000
  C   C12       1.0  0.4999911611313336  0.15942892157226402  0.5000009020051692  1.0000
  C   C13       1.0  0.501014800581771  0.5001535053013129  0.0855061225988223  1.0000
  C   C14       1.0  0.49995273972309207  0.5000339536350467  0.826608947472728  1.0000
  C   C15       1.0  0.5000482774573668  0.4999665705513153  0.1733901155198723  1.0000
  C   C16       1.0  0.9356932505493984  0.5000019712432079  0.5000046135211136  1.0000
  C   C17       1.0  0.06430682742796279  0.4999968737654896  0.4999950698813507  1.0000
  C   C18       1.0  0.5000045420086109  0.7193015386392005  0.5000040459771072  1.0000
  C   C19       1.0  0.49999553705442407  0.28069814605468935  0.4999962588422022  1.0000
  C   C20       1.0  0.5003508964525452  0.500096837595521  0.6613622208442961  1.0000
  C   C21       1.0  0.49965106182434477  0.4999036867410638  0.3386374643220194  1.0000
  C   C22       1.0  0.5000033085620783  0.9433125465799819  0.49999896463076954  1.0000
  N   N1        1.0  0.8264974568644587  0.5000087680214946  0.500011960228214  1.0000
  N   N2        1.0  0.17349509952416745  0.4999909159850234  0.4999870953272918  1.0000
  O   O1        1.0  0.392595711459762  0.6718165185012238  0.5000348921900084  1.0000
  O   O2        1.0  0.6074043695661117  0.32818232676467574  0.49996665527539363  1.0000
  O   O3        1.0  0.6073895487991263  0.6718287002487815  0.49997729820783127  1.0000
  O   O4        1.0  0.3926095901836533  0.32817098438061976  0.5000230057920803  1.0000
  O   O5        1.0  0.3929523676116772  0.5000568502064339  0.6256308818043192  1.0000
  O   O6        1.0  0.6070477105046946  0.49994367400118034  0.37436880172320036  1.0000
  O   O7        1.0  0.6074614464247146  0.5000497090001303  0.6256264745777855  1.0000
  O   O8        1.0  0.3925386317611553  0.4999516548069352  0.374373209012262  1.0000
