data_image0
_chemical_formula_structural       Cu2H30C26S2N2O8
_chemical_formula_sum              "Cu2 H30 C26 S2 N2 O8"
_cell_length_a       4.966081103017175
_cell_length_b       11.947721697755991
_cell_length_c       12.454089967969672
_cell_angle_alpha    99.4805231412597
_cell_angle_beta     90.00022819399621
_cell_angle_gamma    89.99977273625052

_space_group_name_H-M_alt    "P 1"
_space_group_IT_number       1

loop_
  _space_group_symop_operation_xyz
  'x, y, z'

loop_
  _atom_site_type_symbol
  _atom_site_label
  _atom_site_symmetry_multiplicity
  _atom_site_fract_x
  _atom_site_fract_y
  _atom_site_fract_z
  _atom_site_occupancy
  Cu  Cu1       1.0  0.24920453605092519  0.08476357201816848  0.07892848062669339  1.0000
  Cu  Cu2       1.0  0.7491925585579864  0.9152392189477181  0.9210671526746309  1.0000
  H   H1        1.0  0.254202991494644  0.43139297561703666  0.11539645815157226  1.0000
  H   H2        1.0  0.7541939398212989  0.5686115312116015  0.8846050679272747  1.0000
  H   H3        1.0  0.0145747169707846  0.5023921131495682  0.04288680845201748  1.0000
  H   H4        1.0  0.514575107742985  0.4976059681562858  0.9571181624129393  1.0000
  H   H5        1.0  0.1956381375681531  0.38144974941458554  0.9736934407101925  1.0000
  H   H6        1.0  0.6956342466797379  0.6185531583547428  0.026310957237242874  1.0000
  H   H7        1.0  0.9429534798603428  0.520503172305922  0.23313306098712155  1.0000
  H   H8        1.0  0.4429342659497379  0.47949262477162324  0.7668770626977731  1.0000
  H   H9        1.0  0.29826550724654777  0.4090881873043132  0.4218593562905752  1.0000
  H   H10       1.0  0.7982794004921203  0.5909154008909637  0.578140493144275  1.0000
  H   H11       1.0  0.6527494628807274  0.5511646621977487  0.39804381408382733  1.0000
  H   H12       1.0  0.1527470367191768  0.44883322627921973  0.601962151534778  1.0000
  H   H13       1.0  0.065881569121494  0.24307451441384129  0.3650461973407673  1.0000
  H   H14       1.0  0.5658984763361445  0.7569251651799859  0.6349534810506581  1.0000
  H   H15       1.0  0.7368616731549409  0.10381328191886037  0.29714128461313283  1.0000
  H   H16       1.0  0.2368620427048214  0.8961861286536245  0.7028530057241793  1.0000
  H   H17       1.0  0.19488908930007648  0.929340703453029  0.281656035255395  1.0000
  H   H18       1.0  0.6948851317182516  0.0706604824076464  0.7183424757975841  1.0000
  H   H19       1.0  0.11541070922383768  0.032365392493481686  0.3964151917243015  1.0000
  H   H20       1.0  0.6154132281109668  0.967637588755032  0.6035802564195619  1.0000
  H   H21       1.0  0.7455773697515083  0.8346418493444006  0.29940801111634124  1.0000
  H   H22       1.0  0.24558061635677567  0.16535925703207247  0.7005889630429748  1.0000
  H   H23       1.0  0.6515233125735945  0.9468423319281454  0.40417186724146587  1.0000
  H   H24       1.0  0.1515165215079577  0.053158074437263295  0.595828060251037  1.0000
  H   H25       1.0  0.3543016978551136  0.7640555845175139  0.36552813531428535  1.0000
  H   H26       1.0  0.8542953468729876  0.2359394162181729  0.6344656645959432  1.0000
  H   H27       1.0  0.0750374972390659  0.6700931650702272  0.3295489153996911  1.0000
  H   H28       1.0  0.5750386650340076  0.32990479331022016  0.6704481038947279  1.0000
  H   H29       1.0  0.2510018153888395  0.6689422601806286  0.4540670925054683  1.0000
  H   H30       1.0  0.7510037583639145  0.33105713766534706  0.5459288244525808  1.0000
  C   C1        1.0  0.10157131085679791  0.41941959612891816  0.050576970217342386  1.0000
  C   C2        1.0  0.6015627847497029  0.5805817483101661  0.9494270363579671  1.0000
  C   C3        1.0  0.7537282116903654  0.364260792100616  0.16346202879216779  1.0000
  C   C4        1.0  0.25371021740944133  0.6357386535831963  0.836545141275536  1.0000
  C   C5        1.0  0.7869998624962591  0.4589591081640163  0.24291637348904513  1.0000
  C   C6        1.0  0.2869860097961521  0.5410377518959563  0.7570920579047422  1.0000
  C   C7        1.0  0.42769523524602693  0.39706916742001397  0.350105160264583  1.0000
  C   C8        1.0  0.9276956263737405  0.6029317094786534  0.6498984941396839  1.0000
  C   C9        1.0  0.6233883404878213  0.4755843959998173  0.33702072256412646  1.0000
  C   C10       1.0  0.12338378591515918  0.5244143828002307  0.6629853330092387  1.0000
  C   C11       1.0  0.3866830863350543  0.29912321475713094  0.2699237702085213  1.0000
  C   C12       1.0  0.8866772986179825  0.700876860836338  0.7300772862652564  1.0000
  C   C13       1.0  0.5497207133733256  0.2808464453626626  0.17386540287947133  1.0000
  C   C14       1.0  0.0497058532403827  0.7191532757038741  0.8261382707487924  1.0000
  C   C15       1.0  0.17612112989305467  0.22219518495048615  0.2877626692119364  1.0000
  C   C16       1.0  0.6761224918247635  0.7778034782217913  0.7122346205713085  1.0000
  C   C17       1.0  0.783021941531338  0.9855346444438733  0.14954228055535163  1.0000
  C   C18       1.0  0.2830220547348432  0.014466393906154493  0.8504515313241467  1.0000
  C   C19       1.0  0.9022778310231631  0.054961919670894595  0.25245205229174417  1.0000
  C   C20       1.0  0.4022781781377703  0.9450355548163922  0.7475414022699309  1.0000
  C   C21       1.0  0.0279063105930604  0.9764822261035491  0.3260845355401329  1.0000
  C   C22       1.0  0.5279023617982617  0.023519182482374393  0.6739105303125754  1.0000
  C   C23       1.0  0.8241584785470195  0.8975393761740589  0.36639083522258886  1.0000
  C   C24       1.0  0.32415360627463485  0.10246500161132834  0.6336043594757823  1.0000
  C   C25       1.0  0.18030770680071836  0.7231753201109893  0.39685756386569426  1.0000
  C   C26       1.0  0.6803067004685488  0.2768241782842366  0.6031382552513447  1.0000
  S   S1        1.0  0.9526751696208747  0.8244974956360306  0.4722772825202951  1.0000
  S   S2        1.0  0.4526645339032882  0.17550162276783954  0.5277205205902291  1.0000
  N   N1        1.0  0.1086495254436741  0.13070856892618815  0.22187390073383279  1.0000
  N   N2        1.0  0.608636574199437  0.8692901754482847  0.7781200815603454  1.0000
  O   O1        1.0  0.5701380458725467  0.9321569877372223  0.1516847723237119  1.0000
  O   O2        1.0  0.0701376320610265  0.06784096284094689  0.8483090260888417  1.0000
  O   O3        1.0  0.9240200022542381  0.9857619348800596  0.060088654201813085  1.0000
  O   O4        1.0  0.4240129448422607  0.014245709893906194  0.9399104151664016  1.0000
  O   O5        1.0  0.5277617547245512  0.19630232181722104  0.09382746658742037  1.0000
  O   O6        1.0  0.0277488960281147  0.8036931950572845  0.906177130744936  1.0000
  O   O7        1.0  0.8994786050428515  0.34034415138594193  0.06996672067516127  1.0000
  O   O8        1.0  0.39945526481844235  0.6596567841264684  0.9300409122865998  1.0000
