data_image0
_chemical_formula_structural       Cd2H36C40N24O4
_chemical_formula_sum              "Cd2 H36 C40 N24 O4"
_cell_length_a       7.395962243
_cell_length_b       11.753383739873097
_cell_length_c       13.039
_cell_angle_alpha    90.0
_cell_angle_beta     90.0
_cell_angle_gamma    92.95293834953861

_space_group_name_H-M_alt    "P 1"
_space_group_IT_number       1

loop_
  _space_group_symop_operation_xyz
  'x, y, z'

loop_
  _atom_site_type_symbol
  _atom_site_label
  _atom_site_symmetry_multiplicity
  _atom_site_fract_x
  _atom_site_fract_y
  _atom_site_fract_z
  _atom_site_occupancy
  Cd  Cd1       1.0  0.9999962414013268  0.5000043693110001  0.0  1.0000
  Cd  Cd2       1.0  0.4999999343052153  0.9999951074212844  0.49999923307002103  1.0000
  H   H1        1.0  0.5780265311228518  0.7375961976708895  0.9764276401564518  1.0000
  H   H2        1.0  0.921976265536422  0.7624015751613058  0.4764284070864307  1.0000
  H   H3        1.0  0.42198632705081  0.2624099851009731  0.0235738937035066  1.0000
  H   H4        1.0  0.0780100659873071  0.237594384210027  0.5235723598435484  1.0000
  H   H5        1.0  0.7261466695479302  0.7625199962174634  0.1468594217347956  1.0000
  H   H6        1.0  0.7738507187549075  0.7374777766147318  0.6468555870849003  1.0000
  H   H7        1.0  0.27386078026930255  0.2374861865543991  0.8531436459851207  1.0000
  H   H8        1.0  0.2261383169470434  0.262518182756601  0.3531444129150998  1.0000
  H   H9        1.0  0.8748836637841535  0.9470719706681408  0.19668686248945735  1.0000
  H   H10       1.0  0.6251112993260932  0.5529292099642262  0.6966868624894573  1.0000
  H   H11       1.0  0.1251212910940751  0.0529367679538524  0.803313904440522  1.0000
  H   H12       1.0  0.3748817926431869  0.4470667494070995  0.303316205230459  1.0000
  H   H13       1.0  0.9987397241443291  0.109831695813611  0.23283073855356665  1.0000
  H   H14       1.0  0.5012600731555139  0.3901684137471619  0.7328292046936086  1.0000
  H   H15       1.0  0.0012650214946887846  0.8901744869582444  0.7671684945164474  1.0000
  H   H16       1.0  0.49873437090287354  0.6098275456241709  0.2671684945164472  1.0000
  H   H17       1.0  0.0810164646112739  0.3411565796474889  0.220663394432087  1.0000
  H   H18       1.0  0.4189824233658541  0.1588452338133735  0.7206587928522127  1.0000
  H   H19       1.0  0.9189761122257565  0.6588496031243736  0.7793381394278711  1.0000
  H   H20       1.0  0.5810189903772951  0.84115328140809  0.2793389063578502  1.0000
  H   H21       1.0  0.8469727987514303  0.2340093784235293  0.9409855050233917  1.0000
  H   H22       1.0  0.6530108432255021  0.2659915830872919  0.4409793695835589  1.0000
  H   H23       1.0  0.1530252561884424  0.7659976562983744  0.0590152619065876  1.0000
  H   H24       1.0  0.34698203950456014  0.7340018204339032  0.5590175626965248  1.0000
  H   H25       1.0  0.7440206173382649  0.0816841182993358  0.8984531022317698  1.0000
  H   H26       1.0  0.7559910697779345  0.4183125834612653  0.3984554030217069  1.0000
  H   H27       1.0  0.2559918223569753  0.9183169527722654  0.1015445969782931  1.0000
  H   H28       1.0  0.24400087934144923  0.5816859317601981  0.6015430631183349  1.0000
  H   H29       1.0  0.7112810220478067  0.4089913980263589  0.882650510008439  1.0000
  H   H30       1.0  0.7887173534165159  0.0910078595843657  0.3826520438683971  1.0000
  H   H31       1.0  0.2887166144136302  0.5910105249952764  0.11734795613160291  1.0000
  H   H32       1.0  0.2112863460264265  0.9089855439368293  0.6173548585014217  1.0000
  H   H33       1.0  0.5968023572769283  0.5129250436831541  0.9170718613390607  1.0000
  H   H34       1.0  0.9031951007723151  0.9870735810990894  0.4170710944090814  1.0000
  H   H35       1.0  0.4031924355134819  0.4870751754383988  0.08292277015108603  1.0000
  H   H36       1.0  0.0968002768967509  0.012917266571975  0.5829250709410232  1.0000
  C   C1        1.0  0.6454336564914271  0.8188049278454912  0.9975458240662647  1.0000
  C   C2        1.0  0.8545665754824442  0.6811945488867863  0.4975458240662647  1.0000
  C   C3        1.0  0.3545780588323453  0.1812038107765019  0.0024564767236726  1.0000
  C   C4        1.0  0.1454184039521778  0.3188014104845394  0.5024549428637144  1.0000
  C   C5        1.0  0.8150767667128703  0.0290131587593123  0.0525040263823939  1.0000
  C   C6        1.0  0.6849229608405596  0.47098609885141934  0.5525040263823939  1.0000
  C   C7        1.0  0.1849294705080595  0.9709947279126396  0.9474952066876272  1.0000
  C   C8        1.0  0.31507134372501616  0.5290081566198168  0.44749520668762705  1.0000
  C   C9        1.0  0.6558673409534281  0.9088108941777406  0.9267719917171533  1.0000
  C   C10       1.0  0.844142146404991  0.5911860267044062  0.4267719917171534  1.0000
  C   C11       1.0  0.3441465205773256  0.09119102884389459  0.0732295421428049  1.0000
  C   C12       1.0  0.1558549320852052  0.40880908071687827  0.5732287752128258  1.0000
  C   C13       1.0  0.7258319928163318  0.8338392902776022  0.0935202086049571  1.0000
  C   C14       1.0  0.7741682391575325  0.6661601864546753  0.5935202086049571  1.0000
  C   C15       1.0  0.2741795830146287  0.1661677444443015  0.9064820921849874  1.0000
  C   C16       1.0  0.22581403609886763  0.3338357729166503  0.406480558325022  1.0000
  C   C17       1.0  0.8105917906274699  0.9381034925515905  0.12182069177084291  1.0000
  C   C18       1.0  0.6894083715999955  0.5618951322306529  0.6218168571209475  1.0000
  C   C19       1.0  0.18941572893616856  0.061903542170320194  0.8781808420891154  1.0000
  C   C20       1.0  0.310586002711986  0.4380999751906387  0.3781823759490735  1.0000
  C   C21       1.0  0.9755703719930864  0.1696522201255704  0.17192499424802327  1.0000
  C   C22       1.0  0.524432687456212  0.3303547050355604  0.6719242273180441  1.0000
  C   C23       1.0  0.024430596364219105  0.8303573704464711  0.8280750057519769  1.0000
  C   C24       1.0  0.4755702876152626  0.6696463660360337  0.3280765396119349  1.0000
  C   C25       1.0  0.020348253434406195  0.2837317388601619  0.16407853362987626  1.0000
  C   C26       1.0  0.4796488639751857  0.2162649629004392  0.66407546590996  1.0000
  C   C27       1.0  0.9796470973272519  0.7162752958617417  0.835923767160061  1.0000
  C   C28       1.0  0.5203491481256961  0.783725032820584  0.3359230002300819  1.0000
  C   C29       1.0  0.581452545897946  0.8970863576678169  0.8231421121251614  1.0000
  C   C30       1.0  0.9185623498169092  0.602910563214337  0.3231436459851197  1.0000
  C   C31       1.0  0.41855562829074705  0.1029121575536465  0.17685635401488045  1.0000
  C   C32       1.0  0.08143507740531672  0.39708880395716767  0.6768563540148804  1.0000
  C   C33       1.0  0.8964902820948097  0.2320430777212366  0.0190850525347059  1.0000
  C   C34       1.0  0.6035001203276664  0.2679578837895846  0.5190819848147896  1.0000
  C   C35       1.0  0.1035091249341704  0.7679639570006671  0.9809149474652941  1.0000
  C   C36       1.0  0.3964969581625367  0.7320372236317069  0.4809164813252522  1.0000
  C   C37       1.0  0.7397265483713582  0.0135587849553502  0.9549566684561697  1.0000
  C   C38       1.0  0.7602862815947378  0.4864353609551131  0.4549543676662324  1.0000
  C   C39       1.0  0.2602859610702808  0.9864431380662921  0.0450417976838722  1.0000
  C   C40       1.0  0.2397135708200864  0.5135605984162126  0.5450440984738094  1.0000
  N   N1        1.0  0.8962240153443943  0.137161401285347  0.079335838637931  1.0000
  N   N2        1.0  0.6037771340445559  0.36283870827542586  0.5793304701280775  1.0000
  N   N3        1.0  0.1037807302946234  0.8628447814865156  0.9206672290819855  1.0000
  N   N4        1.0  0.396222578877456  0.6371555471958104  0.4206672290819854  1.0000
  N   N5        1.0  0.6443558633446713  0.9597149093258466  0.7422578418590363  1.0000
  N   N6        1.0  0.855654906356449  0.5402811596062591  0.24226244343891076  1.0000
  N   N7        1.0  0.3556547360366196  0.0402801980954379  0.2577406242810056  1.0000
  N   N8        1.0  0.14433860409126004  0.459719911465335  0.7577367896311102  1.0000
  N   N9        1.0  0.9711304110782564  0.3213197748155494  0.06815246567988  1.0000
  N   N10       1.0  0.5288601308370318  0.1786828905953612  0.5681478641000055  1.0000
  N   N11       1.0  0.0288648001905827  0.6786855560062648  0.9318483012500991  1.0000
  N   N12       1.0  0.47113566531047013  0.8213130687759717  0.43185060204003634  1.0000
  N   N13       1.0  0.436959980871741  0.8280315468254784  0.7971976378556604  1.0000
  N   N14       1.0  0.0630500189994763  0.6719679299068062  0.2971999386456048  1.0000
  N   N15       1.0  0.5630508974951738  0.171966968395985  0.20280389600429774  1.0000
  N   N16       1.0  0.936944773790934  0.3280322892147467  0.7028031290743189  1.0000
  N   N17       1.0  0.4070065420091638  0.850188211628101  0.6985574047089501  1.0000
  N   N18       1.0  0.0929992621019196  0.6498095612040942  0.1985597054988872  1.0000
  N   N19       1.0  0.5929987187620966  0.1498077477432318  0.30144259529105  1.0000
  N   N20       1.0  0.9069956004348968  0.3501915098674999  0.8014418283610709  1.0000
  N   N21       1.0  0.5329220076430161  0.9281689030847745  0.6660618145563293  1.0000
  N   N22       1.0  0.9670847755371883  0.5718280177973725  0.1660648822762454  1.0000
  N   N23       1.0  0.4670845354709527  0.0718262043365101  0.33393895237365  1.0000
  N   N24       1.0  0.0329088046569268  0.4281739052242628  0.8339358846537337  1.0000
  O   O1        1.0  0.669473090897462  0.4522627927274101  0.9428038960042928  1.0000
  O   O2        1.0  0.8305266366559749  0.0477364648833216  0.4428046629342718  1.0000
  O   O3        1.0  0.3305232632212807  0.5477399822442806  0.057192269345812  1.0000
  O   O4        1.0  0.1694781358904507  0.9522535308376945  0.5571984047856446  1.0000
