data_image0
_chemical_formula_structural       Zn4H16C24N8O20
_chemical_formula_sum              "Zn4 H16 C24 N8 O20"
_cell_length_a       9.39438651683045
_cell_length_b       9.402907399255158
_cell_length_c       11.505369590536866
_cell_angle_alpha    107.31931918632428
_cell_angle_beta     107.26018479960169
_cell_angle_gamma    105.80731290355546

_space_group_name_H-M_alt    "P 1"
_space_group_IT_number       1

loop_
  _space_group_symop_operation_xyz
  'x, y, z'

loop_
  _atom_site_type_symbol
  _atom_site_label
  _atom_site_symmetry_multiplicity
  _atom_site_fract_x
  _atom_site_fract_y
  _atom_site_fract_z
  _atom_site_occupancy
  Zn  Zn1       1.0  0.23090433287773496  0.8551940909164062  0.09400365282564142  1.0000
  Zn  Zn2       1.0  0.761092007629955  0.1371707377749942  0.9058392154632456  1.0000
  Zn  Zn3       1.0  0.887717494239503  0.0122036632643727  0.40596247518572415  1.0000
  Zn  Zn4       1.0  0.6064192237339014  0.4818683543949049  0.594057771815329  1.0000
  H   H1        1.0  0.2053708816243187  0.0847448133090083  0.7478606834394339  1.0000
  H   H2        1.0  0.3373089812909669  0.4576516375157951  0.2516618682347199  1.0000
  H   H3        1.0  0.20878170142189134  0.587617160127806  0.7525380766642654  1.0000
  H   H4        1.0  0.8363410741109975  0.4570092208841032  0.24809864357649042  1.0000
  H   H5        1.0  0.7460390611282365  0.15733468508653914  0.2743765054965762  1.0000
  H   H6        1.0  0.8826640741239444  0.4708853168814641  0.7259379176660656  1.0000
  H   H7        1.0  0.22063432801635233  0.13205249954727097  0.22532415762789526  1.0000
  H   H8        1.0  0.9059126209256122  0.9946403734295471  0.7742201520925602  1.0000
  H   H9        1.0  0.6036246422520007  0.8128443476546819  0.11169759515171747  1.0000
  H   H10       1.0  0.7004187208712909  0.4914926520287041  0.8883676678967373  1.0000
  H   H11       1.0  0.24386806367800765  0.9518042150844793  0.389130221625784  1.0000
  H   H12       1.0  0.5617053853511819  0.8537375947378648  0.6107171235528026  1.0000
  H   H13       1.0  0.7638764812502785  0.9383780035030256  0.08733907696585409  1.0000
  H   H14       1.0  0.8500914504551889  0.6761100180880321  0.9126436644633383  1.0000
  H   H15       1.0  0.42742781639523025  0.10180117793373711  0.4120426510796662  1.0000
  H   H16       1.0  0.6880632487004092  0.014349945632339713  0.5873806134435637  1.0000
  C   C1        1.0  0.14875711921201418  0.9662087684679576  0.8872333671197479  1.0000
  C   C2        1.0  0.0793356846566837  0.2617359342912239  0.11235590503281398  1.0000
  C   C3        1.0  0.012742729498249636  0.32995870014461565  0.6130557171337613  1.0000
  C   C4        1.0  0.7181536533426538  0.40042247191172453  0.38741131078239727  1.0000
  C   C5        1.0  0.32251912869889304  0.9977602745977663  0.9306235397827577  1.0000
  C   C6        1.0  0.06722043413951438  0.392135669985926  0.0692828992149401  1.0000
  C   C7        1.0  0.14329470832745267  0.31786728986516266  0.5698954953957625  1.0000
  C   C8        1.0  0.748711128026507  0.5738378579669572  0.4305114675974265  1.0000
  C   C9        1.0  0.4373424858326587  0.0595849977822738  0.8858975977981769  1.0000
  C   C10       1.0  0.17369984463844182  0.5516100760035341  0.11402720289971305  1.0000
  C   C11       1.0  0.3029564206630723  0.4242133004587173  0.6147752064445341  1.0000
  C   C12       1.0  0.8100146313657249  0.6885986249724638  0.3856426786160725  1.0000
  C   C13       1.0  0.4314345852792485  0.12058867811100536  0.7825613786426826  1.0000
  C   C14       1.0  0.33829548816044763  0.6489482269592842  0.21713835706309226  1.0000
  C   C15       1.0  0.40024089248654354  0.5887610317857082  0.7178684832006893  1.0000
  C   C16       1.0  0.871427110229874  0.6828076417236489  0.282475436744093  1.0000
  C   C17       1.0  0.5472567427723617  0.9803681905773162  0.03658150290927147  1.0000
  C   C18       1.0  0.9434376894545834  0.510756228515426  0.9636144863972685  1.0000
  C   C19       1.0  0.2618354384535593  0.19425909373289582  0.4637796778675847  1.0000
  C   C20       1.0  0.7300806426491562  0.7978719965449558  0.5361831848123798  1.0000
  C   C21       1.0  0.6658327038678139  0.9355541184378141  0.12112911618032018  1.0000
  C   C22       1.0  0.8137898129585608  0.5444464739625872  0.8790093913964082  1.0000
  C   C23       1.0  0.2956689138306956  0.0648107560864517  0.3790170194279624  1.0000
  C   C24       1.0  0.6847670135619524  0.9160374329876575  0.6206965129247235  1.0000
  N   N1        1.0  0.39314680576645594  0.949435504773298  0.02551758830878727  1.0000
  N   N2        1.0  0.9237766788864121  0.3678515956947237  0.974575069122778  1.0000
  N   N3        1.0  0.1188218232383136  0.1745959909432031  0.47483658632154385  1.0000
  N   N4        1.0  0.6999201898958985  0.6440577870563471  0.5253243546810821  1.0000
  N   N5        1.0  0.5779950217142655  0.04864867297271052  0.9538855719444326  1.0000
  N   N6        1.0  0.09451101832511451  0.6241753811487883  0.046210138583838045  1.0000
  N   N7        1.0  0.3754542972364873  0.345157245932981  0.5466331996792703  1.0000
  N   N8        1.0  0.798366369447926  0.8288283578598481  0.45348598669993107  1.0000
  O   O1        1.0  0.07156597686007858  0.891808204314131  0.938861218348947  1.0000
  O   O2        1.0  0.9532753296872798  0.13293947617911783  0.060684993231106384  1.0000
  O   O3        1.0  0.883667663776812  0.20410205427087655  0.5610665564416946  1.0000
  O   O4        1.0  0.6439833578598878  0.3231400496603598  0.43914442856040375  1.0000
  O   O5        1.0  0.0856779967268864  0.014881390883111608  0.798686379313345  1.0000
  O   O6        1.0  0.2167601622393676  0.2871381280020344  0.20068259922164333  1.0000
  O   O7        1.0  0.038303356203812235  0.46716836683290813  0.7017667303368355  1.0000
  O   O8        1.0  0.7672255910184446  0.33753654526854154  0.2989882834510737  1.0000
  O   O9        1.0  0.5540034026408166  0.16311160304631042  0.7587775152481413  1.0000
  O   O10       1.0  0.4046595881353738  0.7951491490219595  0.24083191178117144  1.0000
  O   O11       1.0  0.5464590259011928  0.6552364463577902  0.7414251408989043  1.0000
  O   O12       1.0  0.9139686463462982  0.8052945999400123  0.2587644984246111  1.0000
  O   O13       1.0  0.294812007123518  0.1281295369012909  0.7157609843753076  1.0000
  O   O14       1.0  0.412786347033979  0.5791988062079483  0.2838232906217968  1.0000
  O   O15       1.0  0.3303043389227581  0.6631586374942202  0.7845431486003988  1.0000
  O   O16       1.0  0.8794721974897968  0.5464372575976241  0.21591411932899965  1.0000
  O   O17       1.0  0.7314879166531086  0.0413666242235564  0.2610642247655831  1.0000
  O   O18       1.0  0.7798637276838961  0.47010731337702083  0.7390960786609567  1.0000
  O   O19       1.0  0.21999150042281462  0.029643723500917898  0.23899298078378445  1.0000
  O   O20       1.0  0.7899591253261136  0.980951632670319  0.7606865535344126  1.0000
