data_image0
_chemical_formula_structural       Cu2H32C24S2N4O12
_chemical_formula_sum              "Cu2 H32 C24 S2 N4 O12"
_cell_length_a       7.164603787726993
_cell_length_b       10.074400249373086
_cell_length_c       10.074401586703992
_cell_angle_alpha    76.28340966825333
_cell_angle_beta     84.91936359608174
_cell_angle_gamma    84.91965195069761

_space_group_name_H-M_alt    "P 1"
_space_group_IT_number       1

loop_
  _space_group_symop_operation_xyz
  'x, y, z'

loop_
  _atom_site_type_symbol
  _atom_site_label
  _atom_site_symmetry_multiplicity
  _atom_site_fract_x
  _atom_site_fract_y
  _atom_site_fract_z
  _atom_site_occupancy
  Cu  Cu1       1.0  0.24999838111719444  0.7803653262358239  0.21963363249823695  1.0000
  Cu  Cu2       1.0  0.7500049539942214  0.21963188788863156  0.7803705980008928  1.0000
  H   H1        1.0  0.11512608440533265  0.9372427851354317  0.43627828112094846  1.0000
  H   H2        1.0  0.3848723959521152  0.5637132578876204  0.06276029583738559  1.0000
  H   H3        1.0  0.8848683108357848  0.0627685255780577  0.5637101804334748  1.0000
  H   H4        1.0  0.6151378139811002  0.4362951873920053  0.9372306878934324  1.0000
  H   H5        1.0  0.2008453898105743  0.45357461761941636  0.6777968078317187  1.0000
  H   H6        1.0  0.29916421955916656  0.3222052155550301  0.546425018984479  1.0000
  H   H7        1.0  0.7991540840533136  0.5464194656486681  0.3222074992067121  1.0000
  H   H8        1.0  0.7008415355205672  0.6777950889149905  0.453577266370381  1.0000
  H   H9        1.0  0.05607243069976427  0.8742913325955183  0.6920981487814758  1.0000
  H   H10       1.0  0.4439261334776318  0.30789641710912  0.12571303066000894  1.0000
  H   H11       1.0  0.9439157042409009  0.1257137694880726  0.3078933225745359  1.0000
  H   H12       1.0  0.5560749188359255  0.6921068254405327  0.8742819189978447  1.0000
  H   H13       1.0  0.19497795389436587  0.6595026349670476  0.9071132750468607  1.0000
  H   H14       1.0  0.30501701580150353  0.09288594223949079  0.3405025149849905  1.0000
  H   H15       1.0  0.8050185955803357  0.34049134213532983  0.09288531854562622  1.0000
  H   H16       1.0  0.69497678583366  0.9071203585207712  0.6594971716541806  1.0000
  H   H17       1.0  0.10306683815638003  0.5038872385942241  0.8930828516834595  1.0000
  H   H18       1.0  0.3969240642400464  0.10691518579395878  0.4961186201468877  1.0000
  H   H19       1.0  0.8969264080005886  0.49610969195453675  0.1069082985809473  1.0000
  H   H20       1.0  0.6030713964343805  0.8930890947823326  0.5038824414886349  1.0000
  H   H21       1.0  0.9541760951952372  0.656547592881921  0.8922041772985522  1.0000
  H   H22       1.0  0.5458221337279526  0.10778801867089528  0.34346205331989677  1.0000
  H   H23       1.0  0.04581871773325472  0.34344945360987106  0.10779477027890753  1.0000
  H   H24       1.0  0.45417857841587056  0.8922070788812276  0.6565399225967282  1.0000
  H   H25       1.0  0.024731447563361552  0.9815795740512736  0.17403971882637856  1.0000
  H   H26       1.0  0.47526576299655693  0.8259642643999002  0.0184203186103389  1.0000
  H   H27       1.0  0.9752664865989901  0.018415505339405096  0.8259634604704048  1.0000
  H   H28       1.0  0.5247348298095532  0.17403185721359898  0.9815814100515894  1.0000
  H   H29       1.0  0.22415728676043054  0.0415822057424577  0.1120239757904784  1.0000
  H   H30       1.0  0.2758380285109824  0.8879753179040363  0.9584148094318223  1.0000
  H   H31       1.0  0.7758374129849346  0.9584169643043123  0.8879804059856583  1.0000
  H   H32       1.0  0.7241610245935847  0.11202179983205696  0.0415857914884512  1.0000
  C   C1        1.0  0.13303933983048216  0.8318090895463611  0.4946660454637239  1.0000
  C   C2        1.0  0.36696479007334665  0.5053298760396246  0.1681825385347437  1.0000
  C   C3        1.0  0.8669677334984202  0.16816653407971668  0.5053353648089853  1.0000
  C   C4        1.0  0.6330403086542661  0.4946653807610559  0.8318280075508114  1.0000
  C   C5        1.0  0.21720807570509498  0.6056210435507055  0.4857197024171355  1.0000
  C   C6        1.0  0.28279777687414764  0.5142829030859984  0.39437326128060596  1.0000
  C   C7        1.0  0.7828006929596044  0.3943660012043253  0.5142886539718461  1.0000
  C   C8        1.0  0.7172090940758481  0.48570820997574043  0.6056332256026167  1.0000
  C   C9        1.0  0.18392798328263643  0.5619987786196674  0.6273141378268932  1.0000
  C   C10       1.0  0.3160781322717697  0.3726893865133576  0.438011454946448  1.0000
  C   C11       1.0  0.8160748837044454  0.43801486099756193  0.3726880052019368  1.0000
  C   C12       1.0  0.683928076160811  0.6273169393992291  0.5619783699509568  1.0000
  C   C13       1.0  0.1252982617786955  0.657834348666853  0.7055228723673324  1.0000
  C   C14       1.0  0.3747114087091888  0.2944753809789375  0.34215734687249727  1.0000
  C   C15       1.0  0.8747123713761269  0.3421464162222278  0.2944750025026224  1.0000
  C   C16       1.0  0.6252916311352196  0.7055249430457522  0.6578491062165668  1.0000
  C   C17       1.0  0.10026732827836332  0.7955746663167531  0.6359914910828409  1.0000
  C   C18       1.0  0.3997286310529802  0.3640053749680376  0.20444196448814006  1.0000
  C   C19       1.0  0.8997240595323817  0.20445100360532104  0.3639965808908557  1.0000
  C   C20       1.0  0.6002766017624381  0.636009130863485  0.7955448942536164  1.0000
  C   C21       1.0  0.09248303821498649  0.6156349776496268  0.8576727496029976  1.0000
  C   C22       1.0  0.40751411828873074  0.14232381260734425  0.38437307066934073  1.0000
  C   C23       1.0  0.9075097576610817  0.38436716121025677  0.14232408121399226  1.0000
  C   C24       1.0  0.5924872145310401  0.8576774069636456  0.6156243497339489  1.0000
  S   S1        1.0  0.7499925181563615  0.8413427749123766  0.158663127562619  1.0000
  S   S2        1.0  0.25000381971288027  0.15865436237837824  0.8413416410918585  1.0000
  N   N1        1.0  0.19090337554128214  0.7394414293910073  0.4211152306669844  1.0000
  N   N2        1.0  0.30908923338537164  0.5788862820064651  0.26057037643402486  1.0000
  N   N3        1.0  0.809090026870301  0.2605824340717362  0.5788910143093204  1.0000
  N   N4        1.0  0.690919147113533  0.42111285312714125  0.7394181072611873  1.0000
  O   O1        1.0  0.8104922400594391  0.9834077587730974  0.15443151091434976  1.0000
  O   O2        1.0  0.6895019444666419  0.8455716335840862  0.016596934737755527  1.0000
  O   O3        1.0  0.18950671462279442  0.0165903955964026  0.8455698308692376  1.0000
  O   O4        1.0  0.31049484983810777  0.15442139488914108  0.9834078348175196  1.0000
  O   O5        1.0  0.9115736340523597  0.7406873312316195  0.18981834479320975  1.0000
  O   O6        1.0  0.5884092604536946  0.8101963186708118  0.25931658698478804  1.0000
  O   O7        1.0  0.08842294864692953  0.2593088574299927  0.8101925998240631  1.0000
  O   O8        1.0  0.4115866271346534  0.18980602693107326  0.7406938622222797  1.0000
  O   O9        1.0  0.1624614589969298  0.9779452860988936  0.1939078842748146  1.0000
  O   O10       1.0  0.337534849918761  0.8060925552734801  0.022052225113334635  1.0000
  O   O11       1.0  0.8375361380676408  0.022052878047937  0.8060955413758749  1.0000
  O   O12       1.0  0.6624626634842626  0.19390555858520733  0.9779472480652912  1.0000
