data_image0
_chemical_formula_structural       Cu2H32C34N6Cl2O4
_chemical_formula_sum              "Cu2 H32 C34 N6 Cl2 O4"
_cell_length_a       7.546006359152992
_cell_length_b       8.979233230392767
_cell_length_c       12.058880727007661
_cell_angle_alpha    90.31496805592666
_cell_angle_beta     89.99932870602723
_cell_angle_gamma    89.99976956393974

_space_group_name_H-M_alt    "P 1"
_space_group_IT_number       1

loop_
  _space_group_symop_operation_xyz
  'x, y, z'

loop_
  _atom_site_type_symbol
  _atom_site_label
  _atom_site_symmetry_multiplicity
  _atom_site_fract_x
  _atom_site_fract_y
  _atom_site_fract_z
  _atom_site_occupancy
  Cu  Cu1       1.0  0.0512510599794354  0.4786257241791957  0.1818947230567431  1.0000
  Cu  Cu2       1.0  0.5512604624764917  0.5213981086651813  0.8181034102969635  1.0000
  H   H1        1.0  0.2303516814812241  0.2021305873194805  0.029763102556785305  1.0000
  H   H2        1.0  0.7303678613701123  0.7978924786484002  0.9702387009087162  1.0000
  H   H3        1.0  0.9023679229480023  0.23897181423885164  0.8818600341546133  1.0000
  H   H4        1.0  0.40235345083714696  0.7610525418733118  0.11808910530196212  1.0000
  H   H5        1.0  0.1170881688476371  0.2280160249486016  0.8279514745244756  1.0000
  H   H6        1.0  0.6170346925511226  0.7719618611214402  0.172046911981667  1.0000
  H   H7        1.0  0.1481835157672791  0.9416614053176317  0.056299695421167  1.0000
  H   H8        1.0  0.6481722639236336  0.0583621184686862  0.9437300731138408  1.0000
  H   H9        1.0  0.1152682233726026  0.12052893830926337  0.19216901075709814  1.0000
  H   H10       1.0  0.6153362207183193  0.8794645056977544  0.8078178116762871  1.0000
  H   H11       1.0  0.8982868952994423  0.07223962303999798  0.1465382158966051  1.0000
  H   H12       1.0  0.3983414552965171  0.9277905385320011  0.8534723310608572  1.0000
  H   H13       1.0  0.7987861627263511  0.017275017809737395  0.3413467317667056  1.0000
  H   H14       1.0  0.2988349347685285  0.9827142663510814  0.6586345996081137  1.0000
  H   H15       1.0  0.8287919221876334  0.6214271742090034  0.6010448269237045  1.0000
  H   H16       1.0  0.3287350349728441  0.37855985504626943  0.398965305986991  1.0000
  H   H17       1.0  0.910365463774731  0.5499254426864084  0.4110203138570938  1.0000
  H   H18       1.0  0.4104054585393654  0.45007351813321617  0.5890000305252414  1.0000
  H   H19       1.0  0.9650796500833606  0.5519924125282429  0.7813354494589291  1.0000
  H   H20       1.0  0.46507363438579563  0.4479929354755754  0.2186819802174966  1.0000
  H   H21       1.0  0.7499788312595326  0.39765185022164934  0.5588329318458848  1.0000
  H   H22       1.0  0.2500250676306379  0.6023221360590014  0.44117111275802773  1.0000
  H   H23       1.0  0.8667181080648731  0.08994447892081327  0.6806155728626138  1.0000
  H   H24       1.0  0.3666675183679331  0.9100256550560176  0.31938761409805494  1.0000
  H   H25       1.0  0.7835203244452559  0.884278741261042  0.5497759717682271  1.0000
  H   H26       1.0  0.28339578957059075  0.1157050742836248  0.45021458176140083  1.0000
  H   H27       1.0  0.689098440334618  0.1321938267364047  0.5204603367804594  1.0000
  H   H28       1.0  0.18915629001943293  0.8677759714608797  0.4795441421423946  1.0000
  H   H29       1.0  0.09879811171209242  0.6867398824787115  0.9813530812326193  1.0000
  H   H30       1.0  0.5987901923067226  0.3132649100493267  0.018672860912886304  1.0000
  H   H31       1.0  0.871050289592972  0.31498497250306196  0.0685468089153574  1.0000
  H   H32       1.0  0.3710710834057521  0.6850374948322723  0.9314589445907516  1.0000
  C   C1        1.0  0.11507099758047447  0.2664785685383819  0.0008054279676982998  1.0000
  C   C2        1.0  0.6151186572075602  0.7335283681117702  0.9992170829691177  1.0000
  C   C3        1.0  0.03471552011980351  0.19128419784338752  0.8982715171386033  1.0000
  C   C4        1.0  0.5347136024662119  0.8087274538739848  0.1017258816375914  1.0000
  C   C5        1.0  0.0279625702976105  0.0249490488598738  0.8977659552414965  1.0000
  C   C6        1.0  0.5279932002507053  0.9750470584368358  0.10223643534745014  1.0000
  C   C7        1.0  0.08834852208003241  0.92438492031539  0.975475533623552  1.0000
  C   C8        1.0  0.5883558876616561  0.0756209812812045  0.0245363893376691  1.0000
  C   C9        1.0  0.9642226768268143  0.9372233396320835  0.8054731316318638  1.0000
  C   C10       1.0  0.4642542243763401  0.06279088807917789  0.1945219749310212  1.0000
  C   C11       1.0  0.981248212045209  0.1644794127290297  0.17711129694954764  1.0000
  C   C12       1.0  0.4812798135321684  0.8355358007526233  0.8228687609386329  1.0000
  C   C13       1.0  0.8219715478442992  0.13414939738692766  0.3612496388997215  1.0000
  C   C14       1.0  0.32199061854302613  0.8658397585966142  0.6387240601178732  1.0000
  C   C15       1.0  0.9099325472363162  0.22391060207844038  0.28504930220657343  1.0000
  C   C16       1.0  0.4099239844229031  0.7760793415626351  0.7149403435676334  1.0000
  C   C17       1.0  0.9908473627249633  0.7839796230192845  0.8327457014594871  1.0000
  C   C18       1.0  0.49087492165178037  0.2160344880579785  0.16724921104459875  1.0000
  C   C19       1.0  0.19017416455675829  0.42035989272950763  0.9699250252522306  1.0000
  C   C20       1.0  0.6902300473975417  0.5796598925301594  0.0300447222057585  1.0000
  C   C21       1.0  0.868139189583502  0.7085110543161265  0.659147142961949  1.0000
  C   C22       1.0  0.3680943009026549  0.29149356237171287  0.3408461552613815  1.0000
  C   C23       1.0  0.8823655172633379  0.43135717356741304  0.4014075412408218  1.0000
  C   C24       1.0  0.3823943205449893  0.5686296593135011  0.5986129814037326  1.0000
  C   C25       1.0  0.9426068340056586  0.6683118733606364  0.7602939365359874  1.0000
  C   C26       1.0  0.4426087731201065  0.3316857644497446  0.23970709732630274  1.0000
  C   C27       1.0  0.7948205880447433  0.34814233817520807  0.4810722852522887  1.0000
  C   C28       1.0  0.29486783639280384  0.6518269968766005  0.51893142307663  1.0000
  C   C29       1.0  0.8894277334284196  0.9737720112058028  0.7021865822177347  1.0000
  C   C30       1.0  0.3893938474375175  0.026220228968640003  0.2977974129029235  1.0000
  C   C31       1.0  0.8421400215371831  0.8589130681779622  0.6301229607934574  1.0000
  C   C32       1.0  0.34207522497334236  0.1410816362492824  0.3698696765709997  1.0000
  C   C33       1.0  0.7625682238931829  0.1975604814734098  0.4600392378975472  1.0000
  C   C34       1.0  0.2626119062205134  0.8024122915196942  0.53995227349305  1.0000
  N   N1        1.0  0.06654290020145479  0.7803413270296105  0.9366311582523466  1.0000
  N   N2        1.0  0.5665622885294469  0.21965015057037357  0.06336928320009601  1.0000
  N   N3        1.0  0.9949129463548799  0.2860424881026801  0.09635441001899643  1.0000
  N   N4        1.0  0.49494874270100536  0.7139449209410957  0.9036528554655946  1.0000
  N   N5        1.0  0.9384200183046049  0.3699947935739091  0.3055993514108195  1.0000
  N   N6        1.0  0.43844945207056435  0.6299973473844033  0.6944166280318173  1.0000
  Cl  Cl1       1.0  0.10405138131616808  0.7018309664105684  0.25965868536774656  1.0000
  Cl  Cl2       1.0  0.6040722969235192  0.2982160522888222  0.7403474052066557  1.0000
  O   O1        1.0  0.18500248118071028  0.5243148997032493  0.046144321723829804  1.0000
  O   O2        1.0  0.6849988768157542  0.4756905458831966  0.9538577747357879  1.0000
  O   O3        1.0  0.2546886031120508  0.4416343684881312  0.8766970594143971  1.0000
  O   O4        1.0  0.7547467745962206  0.5583830460032501  0.1233111889271328  1.0000
