data_image0
_chemical_formula_structural       Ca4H40C32O28
_chemical_formula_sum              "Ca4 H40 C32 O28"
_cell_length_a       6.554070281
_cell_length_b       7.055561723358169
_cell_length_c       21.64
_cell_angle_alpha    90.0
_cell_angle_beta     90.0
_cell_angle_gamma    92.21972188451751

_space_group_name_H-M_alt    "P 1"
_space_group_IT_number       1

loop_
  _space_group_symop_operation_xyz
  'x, y, z'

loop_
  _atom_site_type_symbol
  _atom_site_label
  _atom_site_symmetry_multiplicity
  _atom_site_fract_x
  _atom_site_fract_y
  _atom_site_fract_z
  _atom_site_occupancy
  Ca  Ca1       1.0  0.5060200403846906  0.33871055064634  0.7141668207024026  1.0000
  Ca  Ca2       1.0  0.9939855010068754  0.6612798698590298  0.2141668207024026  1.0000
  Ca  Ca3       1.0  0.49397138247517364  0.6612883801743763  0.2858331792975974  1.0000
  Ca  Ca4       1.0  0.006025283734473402  0.3387077138745624  0.7858317929759694  1.0000
  H   H1        1.0  0.6978421436521742  0.3344128413981906  0.576702402957487  1.0000
  H   H2        1.0  0.8021665084183456  0.6655789974930713  0.0767088724584113  1.0000
  H   H3        1.0  0.3021381848409277  0.6655761607212938  0.423297597042513  1.0000
  H   H4        1.0  0.19782961003000576  0.3344227700994225  0.9232966728280942  1.0000
  H   H5        1.0  0.6952732904960471  0.32370402792507497  0.463040203327175  1.0000
  H   H6        1.0  0.8047364260966036  0.6763133419122198  0.9630466728280993  1.0000
  H   H7        1.0  0.3047079842389523  0.6763076683686577  0.5369593345656227  1.0000
  H   H8        1.0  0.19528058000265966  0.3236770785931569  0.036959334565622705  1.0000
  H   H9        1.0  0.3204399101798218  0.1557983429819743  0.46308502772643584  1.0000
  H   H10       1.0  0.17956327308833417  0.8442076797681963  0.9630919593345624  1.0000
  H   H11       1.0  0.6795334400074965  0.844206261382304  0.5369094269870587  1.0000
  H   H12       1.0  0.8204688842985419  0.1558167819985528  0.0369048059149719  1.0000
  H   H13       1.0  0.3242698124412868  0.1717948990547953  0.5781150646950124  1.0000
  H   H14       1.0  0.17573624494534812  0.8282068685377055  0.078121996303139  1.0000
  H   H15       1.0  0.6757175653713862  0.8282167972389374  0.4218793900184821  1.0000
  H   H16       1.0  0.8242723162188244  0.1718005725983573  0.9218743068391861  1.0000
  H   H17       1.0  0.374848824003415  0.6204956019642012  0.6254676524953808  1.0000
  H   H18       1.0  0.1251611601501637  0.3794905633834986  0.1254662661737527  1.0000
  H   H19       1.0  0.6251210015241142  0.3794976553129459  0.3745388170055435  1.0000
  H   H20       1.0  0.8748727476929333  0.6205026938936555  0.8745378927911248  1.0000
  H   H21       1.0  0.6169163795142723  0.632380257340529  0.624718576709796  1.0000
  H   H22       1.0  0.8830860511983333  0.3676087447789556  0.1247176524953773  1.0000
  H   H23       1.0  0.3830507493151316  0.367621510251972  0.3752837338262509  1.0000
  H   H24       1.0  0.11694797492499732  0.6323873492699761  0.875281423290204  1.0000
  H   H25       1.0  0.7955103639808103  0.6806011224591373  0.716792975970428  1.0000
  H   H26       1.0  0.704489310893557  0.3193949715898015  0.21679713493530536  1.0000
  H   H27       1.0  0.20447507408162124  0.3194006451333635  0.2832065619223627  1.0000
  H   H28       1.0  0.29552793176618053  0.6806011224591373  0.7832070240295722  1.0000
  H   H29       1.0  0.7046896805524696  0.6774352851515886  0.7859644177449142  1.0000
  H   H30       1.0  0.7953147490505047  0.3225650640550199  0.2859676524953798  1.0000
  H   H31       1.0  0.2953286147557321  0.3225494618102261  0.21403927911275392  1.0000
  H   H32       1.0  0.20467843613925402  0.6774395403092583  0.7140397412199633  1.0000
  H   H33       1.0  0.3841959246962645  0.9434734163133528  0.6654634935304956  1.0000
  H   H34       1.0  0.11579986628527193  0.0565382799803729  0.16546349353050263  1.0000
  H   H35       1.0  0.6157687439954886  0.0565425351380497  0.3345360443622951  1.0000
  H   H36       1.0  0.8842262944304978  0.9434521405249969  0.8345383548983349  1.0000
  H   H37       1.0  0.6267172020697842  0.9463697603017138  0.6651095194085033  1.0000
  H   H38       1.0  0.8732794212657427  0.0536263337472249  0.16511182994455  1.0000
  H   H39       1.0  0.3732474074818484  0.0536447727637963  0.33488770794824063  1.0000
  H   H40       1.0  0.1267480286589731  0.9463584132145897  0.8348914048059157  1.0000
  C   C1        1.0  0.010943783961352004  0.2526996302477045  0.584853974121998  1.0000
  C   C2        1.0  0.4890700205526102  0.7473049741165738  0.0848609057301317  1.0000
  C   C3        1.0  0.9890540968168937  0.7473078108883513  0.41514094269870583  1.0000
  C   C4        1.0  0.5109472221071273  0.2526911199323649  0.9151390942698683  1.0000
  C   C5        1.0  0.833939625414253  0.29402288478091526  0.5519417744916809  1.0000
  C   C6        1.0  0.6660587602511684  0.7059788828115785  0.0519413123844714  1.0000
  C   C7        1.0  0.16603489570177035  0.7059732092680164  0.448056839186691  1.0000
  C   C8        1.0  0.33395719319962325  0.29402288478091526  0.9480591497227381  1.0000
  C   C9        1.0  0.8327171564468757  0.2873550527097706  0.4878521256931592  1.0000
  C   C10       1.0  0.6673089296285469  0.7126523884262854  0.987864140480589  1.0000
  C   C11       1.0  0.1672638225875289  0.7126495516545006  0.5121427911275447  1.0000
  C   C12       1.0  0.33271453438909765  0.287346542394431  0.0121367837338298  1.0000
  C   C13       1.0  0.0076540173168524  0.2378377828872686  0.4551963955637676  1.0000
  C   C14       1.0  0.4923234052915434  0.7621724950205717  0.9551987060998144  1.0000
  C   C15       1.0  0.9923270799977859  0.7621696582487871  0.5447994454713481  1.0000
  C   C16       1.0  0.5076971254675016  0.237829272571922  0.0447994454713481  1.0000
  C   C17       1.0  0.18496547528608437  0.1967499804118802  0.4881954713493499  1.0000
  C   C18       1.0  0.3150469808788118  0.8032588791100679  0.9882033271719025  1.0000
  C   C19       1.0  0.8150214885457603  0.8032517871806207  0.5117999075785562  1.0000
  C   C20       1.0  0.684963638315843  0.19676132749900435  0.011799907578556203  1.0000
  C   C21       1.0  0.18699934760716272  0.20465464497951302  0.5524690388170086  1.0000
  C   C22       1.0  0.3129976734431992  0.7953499593847582  0.0524796672828103  1.0000
  C   C23       1.0  0.81296825434319  0.7953584697001048  0.4475314232902009  1.0000
  C   C24       1.0  0.6870246787858605  0.2046589001371899  0.9475249537892765  1.0000
  C   C25       1.0  0.009461160793286202  0.2613092326029118  0.6538659889094305  1.0000
  C   C26       1.0  0.4905144994852152  0.7386953717613665  0.1538743068391852  1.0000
  C   C27       1.0  0.9905231536068868  0.738665585657664  0.3461330868761578  1.0000
  C   C28       1.0  0.509486669392338  0.2613177429182514  0.846127079482443  1.0000
  C   C29       1.0  0.0035179069188587004  0.2300494259626475  0.3859302218114636  1.0000
  C   C30       1.0  0.4965015275518284  0.7699438313145066  0.8859366913123808  1.0000
  C   C31       1.0  0.9964609549449436  0.769940994542722  0.6140660813308685  1.0000
  C   C32       1.0  0.5035282761039639  0.2300607730497717  0.1140633086876122  1.0000
  O   O1        1.0  0.49702595398611044  0.5418475227230459  0.6251695933456531  1.0000
  O   O2        1.0  0.0029767561610966995  0.4581471529400005  0.1251686691312415  1.0000
  O   O3        1.0  0.5029456930114337  0.45815282648356265  0.3748331792975961  1.0000
  O   O4        1.0  0.9970542184234079  0.5418489411089382  0.8748294824399281  1.0000
  O   O5        1.0  0.17531244453504516  0.2471877826773081  0.6839376155268014  1.0000
  O   O6        1.0  0.32469537518148434  0.7528196584587548  0.18393992606284834  1.0000
  O   O7        1.0  0.8246814384624701  0.7527969642845065  0.31606099815157057  1.0000
  O   O8        1.0  0.6753175267304743  0.2471821091337461  0.81606146025878  1.0000
  O   O9        1.0  0.8415572489047706  0.2852274738740591  0.6819907578558215  1.0000
  O   O10       1.0  0.6584655490713376  0.7147742937184418  0.1819981515711646  1.0000
  O   O11       1.0  0.15844027703276  0.7147714569466572  0.3180064695009222  1.0000
  O   O12       1.0  0.34154077664199184  0.2852161267869349  0.8179990757855793  1.0000
  O   O13       1.0  0.7505029702217885  0.59599156732029  0.7513784658040663  1.0000
  O   O14       1.0  0.749499756191412  0.4040045267286416  0.2513766173752288  1.0000
  O   O15       1.0  0.24949895560364155  0.4040031083427493  0.24862245841035255  1.0000
  O   O16       1.0  0.2505114425307724  0.5959929857061823  0.7486238447319807  1.0000
  O   O17       1.0  0.17235675815229  0.21955337037310585  0.3567592421441788  1.0000
  O   O18       1.0  0.3276498314954068  0.7804611626924043  0.856766635859522  1.0000
  O   O19       1.0  0.8276074965586347  0.7804526523770648  0.6432384473197815  1.0000
  O   O20       1.0  0.6723905934061918  0.2195420232859817  0.1432347504621063  1.0000
  O   O21       1.0  0.5075215870231206  0.0165114301510627  0.6781455637707979  1.0000
  O   O22       1.0  0.9924720439136865  0.9834860822837612  0.17814417744916972  1.0000
  O   O23       1.0  0.4924429633883989  0.9835016845285551  0.321851663585953  1.0000
  O   O24       1.0  0.007557168340916602  0.0165043382216084  0.8218562846580397  1.0000
  O   O25       1.0  0.8310141808900583  0.2367413705939256  0.3586067467652471  1.0000
  O   O26       1.0  0.668980857535928  0.7632533050691137  0.858610443622922  1.0000
  O   O27       1.0  0.1689463717407236  0.7632490499114442  0.6413927911275437  1.0000
  O   O28       1.0  0.3310576276154222  0.2367399522080404  0.1413904805914967  1.0000
