data_image0
_chemical_formula_structural       Zn16H24C96S24O76F8
_chemical_formula_sum              "Zn16 H24 C96 S24 O76 F8"
_cell_length_a       19.649136496658706
_cell_length_b       19.63730753416063
_cell_length_c       33.40392052313017
_cell_angle_alpha    78.94761152964023
_cell_angle_beta     78.97331951185338
_cell_angle_gamma    63.9345997944988

_space_group_name_H-M_alt    "P 1"
_space_group_IT_number       1

loop_
  _space_group_symop_operation_xyz
  'x, y, z'

loop_
  _atom_site_type_symbol
  _atom_site_label
  _atom_site_symmetry_multiplicity
  _atom_site_fract_x
  _atom_site_fract_y
  _atom_site_fract_z
  _atom_site_occupancy
  Zn  Zn1       1.0  0.05642723302634779  0.40182935631253275  0.4770975111487629  1.0000
  Zn  Zn2       1.0  0.9848775029589447  0.4840568129938704  0.5604384272189973  1.0000
  Zn  Zn3       1.0  0.05783418721119919  0.5628145819286773  0.48194688947889125  1.0000
  Zn  Zn4       1.0  0.8987212171538772  0.5530425648623165  0.48081370052837963  1.0000
  Zn  Zn5       1.0  0.6975772217174239  0.3492139853309696  0.2714505798474107  1.0000
  Zn  Zn6       1.0  0.6891821877910829  0.19124358621929374  0.26566407558060934  1.0000
  Zn  Zn7       1.0  0.7710010525542971  0.2652541544824911  0.18942256918356293  1.0000
  Zn  Zn8       1.0  0.8485776914672981  0.19251430354870555  0.2731940040607626  1.0000
  Zn  Zn9       1.0  0.26636474860846693  0.7658595252060607  0.6890983871751715  1.0000
  Zn  Zn10      1.0  0.3485729946257834  0.6978004355779462  0.7711072675834529  1.0000
  Zn  Zn11      1.0  0.1921811854714122  0.8484157974062685  0.7708893775100591  1.0000
  Zn  Zn12      1.0  0.1926276908468054  0.6851316824503756  0.766484675335043  1.0000
  Zn  Zn13      1.0  0.5623011011490959  0.05891424137995932  0.9833966340369998  1.0000
  Zn  Zn14      1.0  0.40200533860739535  0.05450046330066272  0.9772801161628734  1.0000
  Zn  Zn15      1.0  0.5557062454664389  0.9004242434893049  0.9775729201680647  1.0000
  Zn  Zn16      1.0  0.483885630435516  0.9818949096914695  0.059484901823147064  1.0000
  H   H1        1.0  0.7499947354831634  0.4513842675133691  0.3500408929826051  1.0000
  H   H2        1.0  0.002090486190837699  0.29776998165213814  0.4003363786878039  1.0000
  H   H3        1.0  0.20361375872784754  0.6983675164768215  0.5989602325574737  1.0000
  H   H4        1.0  0.0432924353761095  0.5552845429923893  0.6489618502811041  1.0000
  H   H5        1.0  0.4639522896666506  0.24292323759394216  0.33994021715164274  1.0000
  H   H6        1.0  0.4827765719204251  0.7016999642608965  0.6004852812724053  1.0000
  H   H7        1.0  0.20639120523360077  0.9796095068747306  0.600961057298008  1.0000
  H   H8        1.0  0.9492915998159361  0.9628687685196199  0.3418493943437255  1.0000
  H   H9        1.0  0.6509467480258663  0.1507683493684767  0.048832156793729105  1.0000
  H   H10       1.0  0.5979271120864452  0.10291923426202494  0.2001483304467442  1.0000
  H   H11       1.0  0.5502168077890416  0.7699349275438512  0.147492806642525  1.0000
  H   H12       1.0  0.16139483641849492  0.14479273935368306  0.0413083533850838  1.0000
  H   H13       1.0  0.29840682551519393  0.0033037346431967663  0.8990833432917072  1.0000
  H   H14       1.0  0.44466195313003715  0.7475232502092056  0.8519826450731003  1.0000
  H   H15       1.0  0.30299344865220956  0.28116025432275654  0.9023758388428362  1.0000
  H   H16       1.0  0.7865827477097511  0.00978064394647052  0.9049810123882622  1.0000
  H   H17       1.0  0.2425457171801781  0.6260212201984318  0.3676420082934087  1.0000
  H   H18       1.0  0.8662209054389719  0.4281416702462907  0.6601681781767113  1.0000
  H   H19       1.0  0.0977584848471054  0.31794974562865275  0.6878620222980133  1.0000
  H   H20       1.0  0.7570500512018298  0.7283032904265102  0.36034237820877013  1.0000
  H   H21       1.0  0.8230076904194306  0.4429740235199305  0.06519932376062339  1.0000
  H   H22       1.0  0.12833859816289822  0.1550771521188281  0.2532286094394395  1.0000
  H   H23       1.0  0.5650258584786485  0.43551058021041905  0.8059077603224267  1.0000
  H   H24       1.0  0.9240898731058281  0.6927442690462656  0.7949618331564637  1.0000
  C   C1        1.0  0.06819594429089192  0.3167307375530229  0.559307141404787  1.0000
  C   C2        1.0  0.06704556679334668  0.5740338196873368  0.5670439252455566  1.0000
  C   C3        1.0  0.1826424514317253  0.4408418668622647  0.43708781543833203  1.0000
  C   C4        1.0  0.9338152697175064  0.6819412449993434  0.43822022467281835  1.0000
  C   C5        1.0  0.9293690904091605  0.4295403003769068  0.4326820284013309  1.0000
  C   C6        1.0  0.8196939746199661  0.5572872943215403  0.5649524822495451  1.0000
  C   C7        1.0  0.5689531530949168  0.3118620799414701  0.3125454005141108  1.0000
  C   C8        1.0  0.6809123009412232  0.18424161572819034  0.1793713943104365  1.0000
  C   C9        1.0  0.6928246281798708  0.4329623526689662  0.18901156582844433  1.0000
  C   C10       1.0  0.9366482434733642  0.18564337405703668  0.19101249370886106  1.0000
  C   C11       1.0  0.8206309175610328  0.3173376203983197  0.3197970990478112  1.0000
  C   C12       1.0  0.8089526646814987  0.0643442981560086  0.31005000439117936  1.0000
  C   C13       1.0  0.4328340504873792  0.6961857516436611  0.6874720369501262  1.0000
  C   C14       1.0  0.31358910880641844  0.8224815376905781  0.8192764600944145  1.0000
  C   C15       1.0  0.1848365306019062  0.9336616826021641  0.6875639653447791  1.0000
  C   C16       1.0  0.06575704194606398  0.8076459767147455  0.8091194347368004  1.0000
  C   C17       1.0  0.18409636354449788  0.675590066486322  0.6809148298334904  1.0000
  C   C18       1.0  0.314022288034259  0.567564371693692  0.8118890391236562  1.0000
  C   C19       1.0  0.4393431996834778  0.18457936941141642  0.939668349460611  1.0000
  C   C20       1.0  0.43194479069182273  0.9303792472848187  0.9295741279864913  1.0000
  C   C21       1.0  0.6865306142690173  0.9367187799576018  0.939907128505979  1.0000
  C   C22       1.0  0.5591427987699973  0.8150537301866055  0.060593446534809865  1.0000
  C   C23       1.0  0.5683351850839174  0.06876491550956836  0.06970682606204548  1.0000
  C   C24       1.0  0.3159846286594359  0.05858812198368212  0.0599968552343242  1.0000
  C   C25       1.0  0.9005329034114737  0.4027529621016941  0.4032360243178417  1.0000
  C   C26       1.0  0.8504557872617725  0.34522803750181896  0.3482338978749765  1.0000
  C   C27       1.0  0.8295676874548974  0.44512203071603573  0.3881563711612018  1.0000
  C   C28       1.0  0.9218612352343882  0.30328618750184705  0.3628866911559783  1.0000
  C   C29       1.0  0.805127572492047  0.4172709480204306  0.3612660178385809  1.0000
  C   C30       1.0  0.9464405901023338  0.3313316707574503  0.38960314602901747  1.0000
  C   C31       1.0  0.09667023685512528  0.6020412392694966  0.5954613662232902  1.0000
  C   C32       1.0  0.152676300904659  0.6493002230808288  0.6525132154104512  1.0000
  C   C33       1.0  0.1418378473145907  0.6431939189123457  0.5822625742339653  1.0000
  C   C34       1.0  0.1069474481501942  0.6086996349300265  0.6656695460600162  1.0000
  C   C35       1.0  0.16901871648759229  0.6663805588860187  0.6100650661807023  1.0000
  C   C36       1.0  0.07928711323430801  0.5858790382574173  0.6379318069408839  1.0000
  C   C37       1.0  0.3068842988561897  0.4556779736784692  0.40290694529141285  1.0000
  C   C38       1.0  0.4481495816173364  0.2986232094393273  0.3491194552296406  1.0000
  C   C39       1.0  0.2596872212371578  0.41718422182060544  0.41389167670063637  1.0000
  C   C40       1.0  0.4943287964288885  0.3374171627908069  0.3380963823429184  1.0000
  C   C41       1.0  0.38026912789028694  0.34168496845533974  0.3729937701123518  1.0000
  C   C42       1.0  0.37613485270867386  0.4125064058080172  0.3795274620460702  1.0000
  C   C43       1.0  0.7276933252681131  0.5827494175461252  0.6333437561940372  1.0000
  C   C44       1.0  0.5261314608537903  0.676874898329224  0.6213466326583444  1.0000
  C   C45       1.0  0.7456763899674356  0.5866310939988111  0.5907567262588671  1.0000
  C   C46       1.0  0.508942140895094  0.671634056105944  0.6636501178055313  1.0000
  C   C47       1.0  0.6059528274269823  0.6452751910381669  0.6103749218492069  1.0000
  C   C48       1.0  0.6476076135294164  0.6165194416021293  0.644609579326783  1.0000
  C   C49       1.0  0.07491920674820558  0.22736264156722552  0.6282013577023804  1.0000
  C   C50       1.0  0.1748698509295252  0.024339304388156773  0.6207631338711295  1.0000
  C   C51       1.0  0.08900490331420488  0.24271872387124205  0.5856448432393009  1.0000
  C   C52       1.0  0.1604887609313863  0.009344767480008894  0.6628764966039782  1.0000
  C   C53       1.0  0.14320234107592705  0.10380195578744633  0.6084228249257961  1.0000
  C   C54       1.0  0.10561656927054487  0.147663201821743  0.6414783247107749  1.0000
  C   C55       1.0  0.8351475064184227  0.8017863425445598  0.3991727220101993  1.0000
  C   C56       1.0  0.9025196063815314  0.9453695488072998  0.3488506402814195  1.0000
  C   C57       1.0  0.9057924752278054  0.7574269269517093  0.4134342626221468  1.0000
  C   C58       1.0  0.832141436612801  0.9892939858889848  0.33507065320454643  1.0000
  C   C59       1.0  0.9031431944369926  0.8772494326600223  0.37226399872661636  1.0000
  C   C60       1.0  0.8333276539852648  0.8707127086818717  0.3756384590639001  1.0000
  C   C61       1.0  0.6524420802580905  0.15598379032586965  0.1504070015444441  1.0000
  C   C62       1.0  0.5959737284093194  0.09812374402090995  0.0985716228276203  1.0000
  C   C63       1.0  0.6664659333476732  0.16847244124608116  0.1072928775858415  1.0000
  C   C64       1.0  0.5819365420522048  0.08576878448247527  0.14167527294024038  1.0000
  C   C65       1.0  0.6389808899306216  0.14028652310480558  0.08205269073279452  1.0000
  C   C66       1.0  0.6094361332111901  0.11381281382092825  0.1669174171190946  1.0000
  C   C67       1.0  0.6716794363219093  0.5218765903361062  0.11969834373324774  1.0000
  C   C68       1.0  0.5766053171358434  0.7249558910038162  0.1276143963453009  1.0000
  C   C69       1.0  0.6652213981871923  0.5065177622963049  0.16245127587009728  1.0000
  C   C70       1.0  0.583775747004843  0.7395502243990536  0.08521689929499128  1.0000
  C   C71       1.0  0.6081504129572721  0.6455423422614217  0.1400037278352784  1.0000
  C   C72       1.0  0.6388210681731294  0.6015436383367928  0.10670692848669457  1.0000
  C   C73       1.0  0.08503279849456652  0.11523646521344945  0.1793909981407324  1.0000
  C   C74       1.0  0.17032523724179072  0.12446845337197494  0.07333149044756483  1.0000
  C   C75       1.0  0.012690602824697798  0.15773563338864707  0.1668219456335223  1.0000
  C   C76       1.0  0.24185729124589975  0.08238126622538293  0.0859610881321231  1.0000
  C   C77       1.0  0.1134562565304904  0.13603763721908996  0.1074918890109018  1.0000
  C   C78       1.0  0.14303508270420204  0.1025556139677803  0.1454055690750096  1.0000
  C   C79       1.0  0.3415692603911181  0.8511991077659078  0.8482405312178897  1.0000
  C   C80       1.0  0.4025770254411682  0.9007056825984994  0.9018174181860344  1.0000
  C   C81       1.0  0.30140008513077987  0.9231816024297079  0.8624214880899288  1.0000
  C   C82       1.0  0.4424302116274603  0.8283539151156487  0.8879610744146902  1.0000
  C   C83       1.0  0.330918797579301  0.9473327240700657  0.888579823014048  1.0000
  C   C84       1.0  0.412695403964605  0.8040204704583476  0.8619582705027256  1.0000
  C   C85       1.0  0.40807571984755237  0.4530191257685345  0.8561659939719277  1.0000
  C   C86       1.0  0.3469985311094703  0.30191952435280467  0.8989529705398809  1.0000
  C   C87       1.0  0.3401101351007725  0.49416429327472866  0.838702153604146  1.0000
  C   C88       1.0  0.41489228919355264  0.2607696788741976  0.9157321255695551  1.0000
  C   C89       1.0  0.3446366875143099  0.37204215266663  0.8775022647001904  1.0000
  C   C90       1.0  0.41090478272275993  0.3828123039668796  0.8784454180072386  1.0000
  C   C91       1.0  0.9480446548459582  0.7882576302114971  0.8508499669184104  1.0000
  C   C92       1.0  0.8044892488433957  0.9512651057722371  0.8993861219240882  1.0000
  C   C93       1.0  0.9918066147219378  0.8294629922475565  0.8353172529848437  1.0000
  C   C94       1.0  0.7613666254965851  0.9101171068903325  0.9147597528647324  1.0000
  C   C95       1.0  0.8724768397396332  0.9064880625528245  0.8762529610334227  1.0000
  C   C96       1.0  0.8795199570908778  0.8322470029340822  0.8744390529934876  1.0000
  S   S1        1.0  0.2999795602082643  0.32878008099034167  0.3961023482005857  1.0000
  S   S2        1.0  0.4566102137108031  0.4253989340772222  0.35668493115981903  1.0000
  S   S3        1.0  0.6655663920860632  0.632531550269377  0.5648339003476721  1.0000
  S   S4        1.0  0.5884472653945708  0.6295672359203909  0.6902986055819155  1.0000
  S   S5        1.0  0.1388782004341778  0.16063206692684423  0.5620328258450016  1.0000
  S   S6        1.0  0.10862809011194231  0.09059268122364025  0.6877602792918722  1.0000
  S   S7        1.0  0.9691965196352185  0.7995979753302934  0.39840289827100867  1.0000
  S   S8        1.0  0.7666420118910081  0.9490405531215771  0.3501625788490372  1.0000
  S   S9        1.0  0.6188114302229194  0.588636650835973  0.1864859293472847  1.0000
  S   S10       1.0  0.6276682729081813  0.6581665039475625  0.06012560541522297  1.0000
  S   S11       1.0  0.0154507233630738  0.181464900870786  0.11405121457383419  1.0000
  S   S12       1.0  0.2410437072816265  0.056305276426385796  0.1388236834344028  1.0000
  S   S13       1.0  0.2797771581665316  0.44825864132884186  0.8499163497195639  1.0000
  S   S14       1.0  0.4757216795848222  0.30665947422289025  0.9061643451765491  1.0000
  S   S15       1.0  0.950030681334539  0.9207403105803139  0.8495625293764205  1.0000
  S   S16       1.0  0.8023860920341478  0.8175700320059673  0.9015449744853044  1.0000
  S   S17       1.0  0.2914760797148475  0.5442955477649819  0.41736924178141516  1.0000
  S   S18       1.0  0.7905803875016133  0.5450475492066219  0.67196904113176  1.0000
  S   S19       1.0  0.019848897752154898  0.29392429861973585  0.6634166648066325  1.0000
  S   S20       1.0  0.7521102531589605  0.7837095966395751  0.4101118323721309  1.0000
  S   S21       1.0  0.7091189877642989  0.45546040434436463  0.08313344675753603  1.0000
  S   S22       1.0  0.10814385512886561  0.07342781354972058  0.2298298877222322  1.0000
  S   S23       1.0  0.4822360232537619  0.4817856702921901  0.8558248958267924  1.0000
  S   S24       1.0  0.9722501055934032  0.691048704806008  0.847073051133563  1.0000
  O   O1        1.0  0.0003732269616278989  0.49924801997399737  0.4998817430326882  1.0000
  O   O2        1.0  0.0739574609358939  0.3141101774433253  0.5207629122028054  1.0000
  O   O3        1.0  0.0219227737062724  0.5429720523230944  0.584075340195554  1.0000
  O   O4        1.0  0.1476229070936554  0.5102814001153533  0.4434884022471479  1.0000
  O   O5        1.0  0.0477596108232703  0.37530290747713485  0.5772520728041358  1.0000
  O   O6        1.0  0.15812284835445212  0.3885534057096012  0.4480148361979984  1.0000
  O   O7        1.0  0.08935388666024831  0.5825602433367724  0.5288434609361374  1.0000
  O   O8        1.0  0.9970302099720881  0.6616705017907807  0.4522671668868838  1.0000
  O   O9        1.0  0.8817910690190871  0.48683858341443226  0.45049077798970677  1.0000
  O   O10       1.0  0.893916311613303  0.6441089989695926  0.44275188044660746  1.0000
  O   O11       1.0  0.9998790342957165  0.39147763543640923  0.4375559320933107  1.0000
  O   O12       1.0  0.8777047440533536  0.507677649250411  0.5818941231382979  1.0000
  O   O13       1.0  0.8182427916868845  0.5839793632343485  0.526851883511199  1.0000
  O   O14       1.0  0.7511176221227912  0.2501648544403212  0.24987328273238765  1.0000
  O   O15       1.0  0.6036221117069829  0.3554774331683674  0.3074243456332653  1.0000
  O   O16       1.0  0.6653583225057389  0.1652142705154135  0.21763389922681137  1.0000
  O   O17       1.0  0.740069810702039  0.37475922263461575  0.1718381374329851  1.0000
  O   O18       1.0  0.5917968336784866  0.2490549548633611  0.2977689156328012  1.0000
  O   O19       1.0  0.6672352432601371  0.435333593635946  0.22724186870084398  1.0000
  O   O20       1.0  0.7177869967478685  0.2243241278557164  0.163848230247801  1.0000
  O   O21       1.0  0.880181785860998  0.21285885185721284  0.1700947412340881  1.0000
  O   O22       1.0  0.8560565271351023  0.2473917198184524  0.31421732703555694  1.0000
  O   O23       1.0  0.9341698533670522  0.1812206488207624  0.22966272923159187  1.0000
  O   O24       1.0  0.7612012245128312  0.36669915647450324  0.303823247360846  1.0000
  O   O25       1.0  0.7409992938734291  0.09486413145312171  0.3001768479275171  1.0000
  O   O26       1.0  0.8585772990799326  0.09198139770689553  0.3005995476722418  1.0000
  O   O27       1.0  0.24926407501252604  0.7496446163718393  0.7493207758060549  1.0000
  O   O28       1.0  0.3751570272305144  0.7233935025761867  0.6674825821635082  1.0000
  O   O29       1.0  0.3558081822559415  0.7544150565835896  0.8111666525391783  1.0000
  O   O30       1.0  0.164556796935031  0.9337439579265098  0.7262842982499791  1.0000
  O   O31       1.0  0.4317035452942762  0.687523401721748  0.7265168873872057  1.0000
  O   O32       1.0  0.22368654568216328  0.8757949188679607  0.668150992763934  1.0000
  O   O33       1.0  0.2512892260592494  0.8676359125940539  0.8049797909305809  1.0000
  O   O34       1.0  0.09719525087946582  0.853909108167052  0.8051800058334067  1.0000
  O   O35       1.0  0.178859917342912  0.6499838503340386  0.7187917668364036  1.0000
  O   O36       1.0  0.09059704637770238  0.7466280966539218  0.7926973865716248  1.0000
  O   O37       1.0  0.21425149371663824  0.721698598965304  0.6642280947463064  1.0000
  O   O38       1.0  0.362579937955779  0.595210231460996  0.7977876353050988  1.0000
  O   O39       1.0  0.24445792505772349  0.5954891732608234  0.8048708420900752  1.0000
  O   O40       1.0  0.5006139596272237  0.9996056395250793  0.9992422056370883  1.0000
  O   O41       1.0  0.5044189092579431  0.15793736538518732  0.9527698223145505  1.0000
  O   O42       1.0  0.385483807263526  0.9939233769878941  0.9426003319448313  1.0000
  O   O43       1.0  0.6572497760958811  0.8882239429834229  0.9504384011809961  1.0000
  O   O44       1.0  0.3938711556547148  0.152112742347974  0.9450280832568511  1.0000
  O   O45       1.0  0.6577036596516663  0.005075753528465848  0.9488265027945674  1.0000
  O   O46       1.0  0.500116768080723  0.8908486811396941  0.937736944646346  1.0000
  O   O47       1.0  0.5690398823717473  0.8152468375005242  0.021610006694878302  1.0000
  O   O48       1.0  0.525164834627347  0.03511515095978976  0.0852467260534766  1.0000
  O   O49       1.0  0.5306605642127096  0.8730338339253128  0.08032053330714456  1.0000
  O   O50       1.0  0.590804163163469  0.08026335778061618  0.03156931865251518  1.0000
  O   O51       1.0  0.3152873748603753  0.07866815871835087  0.021357065297607402  1.0000
  O   O52       1.0  0.3744909420014011  0.01963936423067031  0.07914527179998028  1.0000
  O   O53       1.0  0.22065844371750393  0.6059511422607075  0.39344502730030945  1.0000
  O   O54       1.0  0.266103747647314  0.54658937201485  0.46028114875372955  1.0000
  O   O55       1.0  0.35792200860080914  0.5574906502553176  0.3986178391570975  1.0000
  O   O56       1.0  0.8150646174556683  0.4558542424802426  0.6752468797447122  1.0000
  O   O57       1.0  0.8560197931528392  0.5622123852044327  0.6594505353733595  1.0000
  O   O58       1.0  0.74179551098279  0.5683957466769415  0.7094162861199891  1.0000
  O   O59       1.0  0.06864893596889492  0.3412490005400316  0.6642765297939093  1.0000
  O   O60       1.0  0.9509741265207622  0.34798825316276816  0.6468059863967355  1.0000
  O   O61       1.0  0.017396085533441397  0.25030061238778256  0.7031550095066237  1.0000
  O   O62       1.0  0.7752051317527987  0.7096359778169372  0.387396679863528  1.0000
  O   O63       1.0  0.738220392500537  0.7615055655234287  0.45307456673466356  1.0000
  O   O64       1.0  0.6948418212733003  0.8474001765096236  0.3883252796022276  1.0000
  O   O65       1.0  0.7997709340475866  0.41534345975480846  0.08666697211739924  1.0000
  O   O66       1.0  0.6820775017356199  0.3970683997617357  0.09532745379409135  1.0000
  O   O67       1.0  0.6989828684365379  0.5010359162263355  0.043492115079644046  1.0000
  O   O68       1.0  0.08293077158635499  0.14567662749487914  0.25444491887927256  1.0000
  O   O69       1.0  0.06145853652477481  0.034489986072884414  0.24905079193014504  1.0000
  O   O70       1.0  0.1904483881682921  0.035032851994394335  0.22604777223353517  1.0000
  O   O71       1.0  0.5192990235118485  0.48354785470949935  0.8083336336045832  1.0000
  O   O72       1.0  0.4508318992494936  0.5582187058568523  0.8656923373594482  1.0000
  O   O73       1.0  0.538245839847562  0.4193418212329122  0.8789244805282905  1.0000
  O   O74       1.0  0.9737356481807707  0.6893673403155207  0.7988255459004562  1.0000
  O   O75       1.0  0.0480770138387925  0.6442640353479379  0.856935779400203  1.0000
  O   O76       1.0  0.9079235958357758  0.6765900543694915  0.8686253606508884  1.0000
  F   F1        1.0  0.7827292373434888  0.5155557470682911  0.3988427361670119  1.0000
  F   F2        1.0  0.9701045856088514  0.23413083728390668  0.3509444323976538  1.0000
  F   F3        1.0  0.15994636387617328  0.6624513768122855  0.5418970454897263  1.0000
  F   F4        1.0  0.0873353689135428  0.5911244369792287  0.7061503998333195  1.0000
  F   F5        1.0  0.7078697550854541  0.2079362045725332  0.08873092821696818  1.0000
  F   F6        1.0  0.5412727247237257  0.045322334599440156  0.1603689214503348  1.0000
  F   F7        1.0  0.23179955653404963  0.971925719776053  0.8511513979749096  1.0000
  F   F8        1.0  0.5112889023320761  0.7793311027577587  0.8997917973683514  1.0000
