data_image0
_chemical_formula_structural       Al4H64C84O24
_chemical_formula_sum              "Al4 H64 C84 O24"
_cell_length_a       6.659034918082771
_cell_length_b       21.595150280853872
_cell_length_c       25.29464050882416
_cell_angle_alpha    96.27631730259317
_cell_angle_beta     90.00301264019178
_cell_angle_gamma    90.00198744847492

_space_group_name_H-M_alt    "P 1"
_space_group_IT_number       1

loop_
  _space_group_symop_operation_xyz
  'x, y, z'

loop_
  _atom_site_type_symbol
  _atom_site_label
  _atom_site_symmetry_multiplicity
  _atom_site_fract_x
  _atom_site_fract_y
  _atom_site_fract_z
  _atom_site_occupancy
  Al  Al1       1.0  0.2349580259888953  0.2506636380401304  0.25068755016270944  1.0000
  Al  Al2       1.0  0.7785284162027821  0.7494156455320963  0.749095527034662  1.0000
  Al  Al3       1.0  0.7349701935634982  0.24937372785734616  0.24931462728937256  1.0000
  Al  Al4       1.0  0.2785358123041277  0.7506122804446419  0.7509166433225547  1.0000
  H   H1        1.0  0.9901091067979519  0.3755802551879627  0.5832852936489846  1.0000
  H   H2        1.0  0.8283105965310752  0.6215669050232081  0.41642188657524315  1.0000
  H   H3        1.0  0.489827431646539  0.1244327687635263  0.9167295030143947  1.0000
  H   H4        1.0  0.3284627927980921  0.8784241069746413  0.0835946624328798  1.0000
  H   H5        1.0  0.027817246945460297  0.3705146691141721  0.4084818537532301  1.0000
  H   H6        1.0  0.9597045740283858  0.6334131857113904  0.5899240551862166  1.0000
  H   H7        1.0  0.5276485109637647  0.1295053862617479  0.09152655113346951  1.0000
  H   H8        1.0  0.46013745074825607  0.866590333980298  0.9101196926960001  1.0000
  H   H9        1.0  0.8974886901230263  0.4630812806635376  0.27031163008469866  1.0000
  H   H10       1.0  0.11293666586291097  0.5367096081779152  0.7241296981314138  1.0000
  H   H11       1.0  0.39782752035633706  0.036906796604654304  0.22970992362540704  1.0000
  H   H12       1.0  0.6124053173880454  0.9633271372066476  0.7758582675329964  1.0000
  H   H13       1.0  0.0868557711390423  0.43530444470040663  0.6670558739697726  1.0000
  H   H14       1.0  0.8539603944897391  0.5634058736464099  0.32800270305832413  1.0000
  H   H15       1.0  0.586421833989135  0.06472037425275093  0.8329496731324897  1.0000
  H   H16       1.0  0.35417479265456103  0.9365947829464929  0.17201500532113564  1.0000
  H   H17       1.0  0.6839004353804153  0.08417484305849851  0.4562076756396182  1.0000
  H   H18       1.0  0.33037198218188024  0.961038423919824  0.5784111901052784  1.0000
  H   H19       1.0  0.18384030238251367  0.41586527972985  0.043779864011384007  1.0000
  H   H20       1.0  0.8303123569054731  0.5389053983949951  0.9215587327256288  1.0000
  H   H21       1.0  0.6752850896756184  0.15544081666644163  0.3844977922900982  1.0000
  H   H22       1.0  0.3373111116125073  0.8877688725312539  0.6485224993808887  1.0000
  H   H23       1.0  0.17513031842721458  0.34462361659280566  0.11551031326468572  1.0000
  H   H24       1.0  0.8373256988784162  0.6121645844893068  0.8514455301208913  1.0000
  H   H25       1.0  0.2981734386390754  0.1180569629051789  0.3508924458701372  1.0000
  H   H26       1.0  0.713406563453617  0.8461590602843359  0.6209000424728189  1.0000
  H   H27       1.0  0.7981454594610324  0.38189244118569127  0.14907997214297103  1.0000
  H   H28       1.0  0.21354121239330223  0.6538908683153082  0.8790969013428767  1.0000
  H   H29       1.0  0.3075783076637038  0.04420045102873621  0.4205736829208179  1.0000
  H   H30       1.0  0.7047116431983868  0.9174500566688124  0.5493317504405156  1.0000
  H   H31       1.0  0.807605187429459  0.455759745941549  0.07940642729759871  1.0000
  H   H32       1.0  0.2047546181918776  0.5825856480131647  0.9506523397009589  1.0000
  H   H33       1.0  0.740045014977177  0.2983962822343429  0.43760406403285407  1.0000
  H   H34       1.0  0.6739971186276109  0.3783235328380385  0.43831765557021646  1.0000
  H   H35       1.0  0.6132619070781898  0.3002866881267039  0.5315281509552464  1.0000
  H   H36       1.0  0.5451249664156066  0.37956838137942117  0.5311860235449545  1.0000
  H   H37       1.0  0.3118334634076305  0.3513944097365496  0.45412329244060606  1.0000
  H   H38       1.0  0.24435980688122783  0.3106144006632405  0.508219055067194  1.0000
  H   H39       1.0  0.37640668481378  0.27166802167943166  0.4534125308912494  1.0000
  H   H40       1.0  0.6146774536960179  0.612083803065893  0.5636146635704052  1.0000
  H   H41       1.0  0.5381390804486229  0.6387561507965742  0.5022819642746158  1.0000
  H   H42       1.0  0.7223237047477012  0.719451789297004  0.5979361405784405  1.0000
  H   H43       1.0  0.6586040626359233  0.746668237656138  0.5368096981000293  1.0000
  H   H44       1.0  0.29431979015442516  0.7204906620656006  0.550359320736746  1.0000
  H   H45       1.0  0.38398749902033547  0.7689982833469176  0.6066980912373057  1.0000
  H   H46       1.0  0.35499489923748934  0.6879424661325261  0.6095418281178057  1.0000
  H   H47       1.0  0.23989966916347774  0.2016024873243865  0.06240374097659182  1.0000
  H   H48       1.0  0.17386836536061875  0.12166947611070361  0.061686037186412114  1.0000
  H   H49       1.0  0.11317054474816501  0.1997040644416117  0.9684698062327614  1.0000
  H   H50       1.0  0.04506401794392901  0.12041720926566064  0.96880540600818  1.0000
  H   H51       1.0  0.8116860723737883  0.14856303402946483  0.04583858096291489  1.0000
  H   H52       1.0  0.7442758001381478  0.18935099026681715  0.9917449452330375  1.0000
  H   H53       1.0  0.8762336665008589  0.22830002688838388  0.04656974143839681  1.0000
  H   H54       1.0  0.11489636628939337  0.8878759838697551  0.9363470613762035  1.0000
  H   H55       1.0  0.03826840226569319  0.8612295482782316  0.9976814746522251  1.0000
  H   H56       1.0  0.22257261234936013  0.7805021640562587  0.9020664704754112  1.0000
  H   H57       1.0  0.1589104362864759  0.7533173525414584  0.9632095251711805  1.0000
  H   H58       1.0  0.7945868804141296  0.7793921438323324  0.949646669474511  1.0000
  H   H59       1.0  0.8843130367791331  0.7308963471689225  0.8933179136513163  1.0000
  H   H60       1.0  0.8551320380159381  0.8119324326805639  0.8904522857247772  1.0000
  H   H61       1.0  0.4884694241050623  0.29325761220123786  0.31183492534521673  1.0000
  H   H62       1.0  0.5239118849803289  0.7127885380498428  0.6855635575995437  1.0000
  H   H63       1.0  0.988494730892917  0.20672388024682684  0.18819744914834052  1.0000
  H   H64       1.0  0.023917890029338192  0.7872246535621913  0.8144494018318584  1.0000
  C   C1        1.0  0.48388691219196284  0.3149840253850797  0.17756804321188477  1.0000
  C   C2        1.0  0.5288136706241175  0.6814979956359012  0.8200484862396779  1.0000
  C   C3        1.0  0.9841059724807762  0.1850417194805587  0.3224340546272303  1.0000
  C   C4        1.0  0.028607583004820497  0.8185163005699467  0.6799510188128225  1.0000
  C   C5        1.0  0.48373712421233966  0.1498172131562754  0.19652944138878337  1.0000
  C   C6        1.0  0.531375888701973  0.8482975306017837  0.8064292098742671  1.0000
  C   C7        1.0  0.9835679728821559  0.3502056986622506  0.3034722531073299  1.0000
  C   C8        1.0  0.0314906006869506  0.6517309235850989  0.6935830641791088  1.0000
  C   C9        1.0  0.031185741787986398  0.5905562716812439  0.6596646683083593  1.0000
  C   C10       1.0  0.9680732096917024  0.4114648405248147  0.33700478262191075  1.0000
  C   C11       1.0  0.5311866828935266  0.9094662938014507  0.8403595319247474  1.0000
  C   C12       1.0  0.4681793398965866  0.08854537968165492  0.16300742808618202  1.0000
  C   C13       1.0  0.05908554151014299  0.4790780472758129  0.6504369172845375  1.0000
  C   C14       1.0  0.8883368294785967  0.5205660426044149  0.34540665068551146  1.0000
  C   C15       1.0  0.5587951478824705  0.0209441914009645  0.8495757959647747  1.0000
  C   C16       1.0  0.3885560689645757  0.9794323644866479  0.15461273378732443  1.0000
  C   C17       1.0  0.0729864000070037  0.5350477644171364  0.6821744953815314  1.0000
  C   C18       1.0  0.9149944180929381  0.46538628486041483  0.3133518091163197  1.0000
  C   C19       1.0  0.5726803748879091  0.9649810092741546  0.8178264298135929  1.0000
  C   C20       1.0  0.4152577864559531  0.034615983937023004  0.18666721032153083  1.0000
  C   C21       1.0  0.983972762675357  0.5896264301221521  0.6062478825357829  1.0000
  C   C22       1.0  0.985482489304587  0.4128007489181443  0.3916522605453495  1.0000
  C   C23       1.0  0.48421861003166095  0.9103847820170896  0.8937854693847385  1.0000
  C   C24       1.0  0.48543874805721987  0.08721387973881181  0.10836059294612002  1.0000
  C   C25       1.0  0.9725014074305135  0.533074336602894  0.5722300851202676  1.0000
  C   C26       1.0  0.9419562998023918  0.46756497655725576  0.42594796413133923  1.0000
  C   C27       1.0  0.4725830124893874  0.966935010338105  0.9277967403941931  1.0000
  C   C28       1.0  0.4419688479188224  0.0324426801881117  0.07407143431736071  1.0000
  C   C29       1.0  0.0083785860370327  0.4767446310768264  0.5958481839671352  1.0000
  C   C30       1.0  0.900859733585115  0.5228975910361414  0.40151635665971247  1.0000
  C   C31       1.0  0.5082546989788597  0.02326973908804322  0.9041681897820198  1.0000
  C   C32       1.0  0.4009586989939747  0.9771021326579047  0.09850519204296403  1.0000
  C   C33       1.0  0.932253608604192  0.5293714621031141  0.5154743154261611  1.0000
  C   C34       1.0  0.9411516350193947  0.4703851581358762  0.4835423659398047  1.0000
  C   C35       1.0  0.43232815390071977  0.9706295774930142  0.9845483621639419  1.0000
  C   C36       1.0  0.44116366955682906  0.029620485122379105  0.016475827490346304  1.0000
  C   C37       1.0  0.9462703535380895  0.41516818840182873  0.5111116867778521  1.0000
  C   C38       1.0  0.8836841116692682  0.5830788174137639  0.48846861604999964  1.0000
  C   C39       1.0  0.4461895445112845  0.08484230089274558  0.9889009030828649  1.0000
  C   C40       1.0  0.3838065232371263  0.9169189227527357  0.011549508975825502  1.0000
  C   C41       1.0  0.9841420743507995  0.41870535498456724  0.5645747500055834  1.0000
  C   C42       1.0  0.8678169949559515  0.5794331901090928  0.4342567887212924  1.0000
  C   C43       1.0  0.48394439828115304  0.08130642399341073  0.9354379744118477  1.0000
  C   C44       1.0  0.36794682027961295  0.9205644270308685  0.06576151083579161  1.0000
  C   C45       1.0  0.8175453924945657  0.09115009894807  0.43266771726396064  1.0000
  C   C46       1.0  0.19601547274971406  0.9353106243719369  0.587423488972128  1.0000
  C   C47       1.0  0.31747281469175453  0.4088844341372493  0.06732448463418451  1.0000
  C   C48       1.0  0.6959993054257224  0.5646562066156308  0.9125513117568715  1.0000
  C   C49       1.0  0.8127247614231832  0.1309803375737104  0.3931078872235362  1.0000
  C   C50       1.0  0.20001456506893325  0.8948007333900138  0.6264657013888242  1.0000
  C   C51       1.0  0.3126103624513518  0.36906230739088397  0.10689379389396692  1.0000
  C   C52       1.0  0.7000434200359961  0.6051594045998671  0.873507165480298  1.0000
  C   C53       1.0  0.9865538189588958  0.14102179859831662  0.36389931479442345  1.0000
  C   C54       1.0  0.0258864358134403  0.862616890133424  0.6385517992725199  1.0000
  C   C55       1.0  0.4864442941077698  0.358995085706816  0.13609486155539235  1.0000
  C   C56       1.0  0.5259844609667254  0.6373781089002079  0.8614309574944488  1.0000
  C   C57       1.0  0.16489178957456826  0.10983707971244172  0.3741683754957138  1.0000
  C   C58       1.0  0.8471607662193888  0.8715567827013403  0.6109780833446976  1.0000
  C   C59       1.0  0.6648524470426052  0.39013934170010595  0.12581848132112583  1.0000
  C   C60       1.0  0.34725669614166316  0.6284644781756228  0.8890095977323117  1.0000
  C   C61       1.0  0.1701568101781206  0.06925001459058681  0.41305944525253585  1.0000
  C   C62       1.0  0.8424677821311376  0.9113188128208022  0.5714679488363147  1.0000
  C   C63       1.0  0.6701460134925127  0.4307324400535821  0.08692351041719353  1.0000
  C   C64       1.0  0.34250086251618217  0.5886939145379133  0.9285148908655432  1.0000
  C   C65       1.0  0.9966875657849099  0.059634279267292825  0.44332154872499535  1.0000
  C   C66       1.0  0.017159787589982  0.9439726793934896  0.5590333204482151  1.0000
  C   C67       1.0  0.4966693523792926  0.44037222406052484  0.05667038163874591  1.0000
  C   C68       1.0  0.517136489892998  0.5560169263326104  0.9409477203559649  1.0000
  C   C69       1.0  0.003488255524622699  0.019237842858743213  0.4837451859038851  1.0000
  C   C70       1.0  0.011621305444634796  0.9845566777097687  0.5187363421409686  1.0000
  C   C71       1.0  0.5034839858629709  0.4807649447353839  0.016245771524303607  1.0000
  C   C72       1.0  0.5115997948806736  0.5154420660743284  0.9812513844078129  1.0000
  C   C73       1.0  0.7202353934923948  0.3423157831555769  0.46351196459685445  1.0000
  C   C74       1.0  0.5626730134331908  0.3351293913235623  0.5057321463546744  1.0000
  C   C75       1.0  0.36315207401943883  0.3159874021508884  0.47914082477947073  1.0000
  C   C76       1.0  0.6431073699583507  0.647479987370076  0.5360793877279948  1.0000
  C   C77       1.0  0.616897520511202  0.7125785725601048  0.5642382632825333  1.0000
  C   C78       1.0  0.4011422692333396  0.7232425492933318  0.5836905551465535  1.0000
  C   C79       1.0  0.22012397420598256  0.15768252174046893  0.03648999392282801  1.0000
  C   C80       1.0  0.0625600880885315  0.16485716513189172  0.9942583368148449  1.0000
  C   C81       1.0  0.863026484033405  0.18398437670276022  0.020831717437239702  1.0000
  C   C82       1.0  0.14330351791704027  0.8524940745816708  0.9639014333607678  1.0000
  C   C83       1.0  0.11716794542410008  0.7873780828309549  0.9357640588225212  1.0000
  C   C84       1.0  0.9013974621840645  0.7766632426251618  0.9163173417747362  1.0000
  O   O1        1.0  0.6557376889735878  0.173288633867223  0.20749097619804505  1.0000
  O   O2        1.0  0.36049402439360273  0.823967858950027  0.7952304066824071  1.0000
  O   O3        1.0  0.15551439464881864  0.32658595681511576  0.29271088322111893  1.0000
  O   O4        1.0  0.860705093875154  0.6761991007162393  0.7046425653952539  1.0000
  O   O5        1.0  0.31277563049615514  0.29812317464260474  0.19353216185323424  1.0000
  O   O6        1.0  0.6995808360470762  0.6969340868003613  0.8028447000385486  1.0000
  O   O7        1.0  0.8130806226378906  0.20217143378199864  0.3066258937949443  1.0000
  O   O8        1.0  0.199355352661378  0.802936722530319  0.6970668864835405  1.0000
  O   O9        1.0  0.316073288380636  0.17425726129945932  0.21102052625759882  1.0000
  O   O10       1.0  0.7002050989416374  0.8249197387076775  0.7916731586656242  1.0000
  O   O11       1.0  0.8159039246903461  0.3259329114401481  0.28875454814343027  1.0000
  O   O12       1.0  0.2003529734777061  0.6749840201264661  0.7084746884075132  1.0000
  O   O13       1.0  0.15444917969912805  0.20258725776047026  0.3066929660184315  1.0000
  O   O14       1.0  0.8584683292648306  0.7990649321796611  0.6941989672308467  1.0000
  O   O15       1.0  0.6541403126127888  0.2971858775523586  0.1931604520053796  1.0000
  O   O16       1.0  0.3587752861222028  0.7011251891489748  0.8058990875353943  1.0000
  O   O17       1.0  0.4858632234923803  0.26065316543031264  0.28224287177991414  1.0000
  O   O18       1.0  0.5270196910735265  0.7416231951162474  0.7177492181326317  1.0000
  O   O19       1.0  0.9858539240414287  0.23936941511229287  0.21775606968269307  1.0000
  O   O20       1.0  0.0270377131097348  0.7583973444744317  0.7822594123495464  1.0000
  O   O21       1.0  0.9184685042964701  0.3560983741908146  0.48526959292475175  1.0000
  O   O22       1.0  0.8466883820106545  0.6410663703034558  0.5159083478707914  1.0000
  O   O23       1.0  0.41834771455822317  0.14390485673244063  0.014749472949922906  1.0000
  O   O24       1.0  0.3468430677711893  0.8589297229158606  0.9841107390197907  1.0000
