data_image0
_chemical_formula_structural       AlH3C27O6F12
_chemical_formula_sum              "Al1 H3 C27 O6 F12"
_cell_length_a       4.059026084779868
_cell_length_b       16.086500219787695
_cell_length_c       16.091162367343994
_cell_angle_alpha    119.84116883500617
_cell_angle_beta     88.78367243450884
_cell_angle_gamma    88.7985574046576

_space_group_name_H-M_alt    "P 1"
_space_group_IT_number       1

loop_
  _space_group_symop_operation_xyz
  'x, y, z'

loop_
  _atom_site_type_symbol
  _atom_site_label
  _atom_site_symmetry_multiplicity
  _atom_site_fract_x
  _atom_site_fract_y
  _atom_site_fract_z
  _atom_site_occupancy
  Al  Al1       1.0  0.0001828530289315981  0.4999473430196204  0.500065653383075  1.0000
  H   H1        1.0  0.49987280326814687  0.9227679849697812  0.07710795926443145  1.0000
  H   H2        1.0  0.425710775367186  0.6578229541933284  0.07969634042459725  1.0000
  H   H3        1.0  0.5738472682865351  0.9201228593607241  0.3419304465680853  1.0000
  C   C1        1.0  0.48397965548094396  0.5722898727713146  0.6467161684204186  1.0000
  C   C2        1.0  0.5001163383841529  0.5730427489658612  0.42697922890597806  1.0000
  C   C3        1.0  0.5163516562139705  0.35325962250635  0.4276171473054333  1.0000
  C   C4        1.0  0.4754720900120617  0.7838049525849656  0.06596206617925307  1.0000
  C   C5        1.0  0.4998324573661677  0.8837791935365474  0.11606227743688187  1.0000
  C   C6        1.0  0.5242232427398079  0.9339002642460842  0.21600846587299566  1.0000
  C   C7        1.0  0.535650687675009  0.882604570900277  0.2653450164210867  1.0000
  C   C8        1.0  0.4997220197743388  0.7831840160647662  0.2166062373413951  1.0000
  C   C9        1.0  0.4638824360471574  0.7344462744208684  0.11722762358623844  1.0000
  C   C10       1.0  0.6831469509968997  0.19283334621832898  0.28391731896287814  1.0000
  C   C11       1.0  0.6890975338352376  0.09294887278395689  0.23387740746780855  1.0000
  C   C12       1.0  0.5296803490589923  0.0398435621599802  0.26956043200392094  1.0000
  C   C13       1.0  0.3653884572152108  0.09422297603190091  0.359507700750342  1.0000
  C   C14       1.0  0.3648566902792608  0.19401751770752182  0.4105824065339547  1.0000
  C   C15       1.0  0.52323311155196  0.24516385510457184  0.37354367962893065  1.0000
  C   C16       1.0  0.31095888180341547  0.7659757421068397  0.9069800724741841  1.0000
  C   C17       1.0  0.3170402077478158  0.7159688134303012  0.8071198901998997  1.0000
  C   C18       1.0  0.47692366564137256  0.6263159416365555  0.7547899139967171  1.0000
  C   C19       1.0  0.6352030080551501  0.5892613621655941  0.8059241277693944  1.0000
  C   C20       1.0  0.6345676732643143  0.6403085569344286  0.9056829993913099  1.0000
  C   C21       1.0  0.470285488927324  0.7302707078716894  0.9600591065350914  1.0000
  C   C22       1.0  0.6647547673045721  0.640734732145454  0.23414076490659852  1.0000
  C   C23       1.0  0.6669133107068959  0.5904980157752109  0.28393539282476626  1.0000
  C   C24       1.0  0.5001300172876029  0.6266246128881577  0.3733802447471604  1.0000
  C   C25       1.0  0.33306230999175307  0.7160290340216878  0.4094090573312884  1.0000
  C   C26       1.0  0.3348576433418557  0.7657574100379282  0.3591003132526823  1.0000
  C   C27       1.0  0.49972612993717275  0.7301402422129613  0.2696768336820908  1.0000
  O   O1        1.0  0.2783648253074559  0.3944641639463884  0.41091792443567965  1.0000
  O   O2        1.0  0.253635167778512  0.5153772113567427  0.6066130322854094  1.0000
  O   O3        1.0  0.2582879717909705  0.5893907213226869  0.48536492089672845  1.0000
  O   O4        1.0  0.7467019071805794  0.39333452545798053  0.4845169290055011  1.0000
  O   O5        1.0  0.7421686004331179  0.5147704695392437  0.4107205022561829  1.0000
  O   O6        1.0  0.7220289535928117  0.5890380507139029  0.6055651923189133  1.0000
  F   F1        1.0  0.2032235687767354  0.24138588186345802  0.49682132567506443  1.0000
  F   F2        1.0  0.8385801410780472  0.23933142469572033  0.2447768692228109  1.0000
  F   F3        1.0  0.1899804841464174  0.050458938658870515  0.39860982633835124  1.0000
  F   F4        1.0  0.8620828408440672  0.04755672526008681  0.14894419194379085  1.0000
  F   F5        1.0  0.16156818522962618  0.7551331007067504  0.7606559879101411  1.0000
  F   F6        1.0  0.13789462745198483  0.8509276654732932  0.9523544910552248  1.0000
  F   F7        1.0  0.7967869021345848  0.5029905480790688  0.7585384098655581  1.0000
  F   F8        1.0  0.809860137827023  0.6011848134976105  0.9494107999109218  1.0000
  F   F9        1.0  0.8387636783413582  0.601181553222716  0.14948950040032838  1.0000
  F   F10       1.0  0.8324401433818024  0.5051508771789913  0.24225022956104442  1.0000
  F   F11       1.0  0.1607436482191744  0.8504000325871958  0.3985494403771312  1.0000
  F   F12       1.0  0.16774185771173927  0.7578172394072314  0.4947837333591496  1.0000
