data_image0
_chemical_formula_structural       Zn6H32C60N4O32
_chemical_formula_sum              "Zn6 H32 C60 N4 O32"
_cell_length_a       18.413421819753427
_cell_length_b       18.437538451568454
_cell_length_c       18.49806072423446
_cell_angle_alpha    109.43928702003163
_cell_angle_beta     109.24417371135401
_cell_angle_gamma    109.51675756039467

_space_group_name_H-M_alt    "P 1"
_space_group_IT_number       1

loop_
  _space_group_symop_operation_xyz
  'x, y, z'

loop_
  _atom_site_type_symbol
  _atom_site_label
  _atom_site_symmetry_multiplicity
  _atom_site_fract_x
  _atom_site_fract_y
  _atom_site_fract_z
  _atom_site_occupancy
  Zn  Zn1       1.0  0.5688675958427182  0.5045602820109494  0.07132157027995586  1.0000
  Zn  Zn2       1.0  0.4430118166622137  0.5044658955237864  0.9439612298237346  1.0000
  Zn  Zn3       1.0  0.9950511292604887  0.9347089520103534  0.9275794357928502  1.0000
  Zn  Zn4       1.0  0.9921103059091719  0.06044886979786669  0.05440306278963192  1.0000
  Zn  Zn5       1.0  0.4322741251967273  0.9371518440121914  0.49386728667253954  1.0000
  Zn  Zn6       1.0  0.5597751532148436  0.06913410268222721  0.4985410484992483  1.0000
  H   H1        1.0  0.23547992735748827  0.35308488367090246  0.014209712731627529  1.0000
  H   H2        1.0  0.6717834247945261  0.7753301994164301  0.019009263167589444  1.0000
  H   H3        1.0  0.2438727989129176  0.282060915384477  0.13068846666909192  1.0000
  H   H4        1.0  0.8602415988149372  0.8809405135463276  0.13060264189078175  1.0000
  H   H5        1.0  0.40639794647763944  0.2909496607200025  0.14449806441319157  1.0000
  H   H6        1.0  0.8648772089590651  0.7308487337159802  0.14100511403738378  1.0000
  H   H7        1.0  0.30630492409505916  0.1156921755945746  0.996372727342084  1.0000
  H   H8        1.0  0.8860170876674613  0.6823237299078213  0.989525079860712  1.0000
  H   H9        1.0  0.29889962975475726  0.18853279120994423  0.8821471452825661  1.0000
  H   H10       1.0  0.697969247266407  0.5783697715394566  0.8795551546053131  1.0000
  H   H11       1.0  0.3786542115902662  0.7967822665037116  0.1838959946201299  1.0000
  H   H12       1.0  0.4943291989494014  0.8078905114982077  0.11276639875420352  1.0000
  H   H13       1.0  0.37530028886135364  0.6402734451692422  0.1812327593054518  1.0000
  H   H14       1.0  0.6420091070339637  0.9164666358074881  0.2877102394395762  1.0000
  H   H15       1.0  0.5208851160160178  0.749356978711418  0.35761308021238836  1.0000
  H   H16       1.0  0.638977341479439  0.761139560235932  0.2886128404551867  1.0000
  H   H17       1.0  0.40892463868811285  0.23881600370089015  0.586893426846437  1.0000
  H   H18       1.0  0.34147075575898367  0.2055777164935293  0.6975608437130985  1.0000
  H   H19       1.0  0.5451568407228252  0.4080794959634132  0.7330646737850584  1.0000
  H   H20       1.0  0.4487308186449823  0.1274042214565583  0.7365701335866246  1.0000
  H   H21       1.0  0.6544719782708127  0.3320953329145269  0.7727381550224591  1.0000
  H   H22       1.0  0.5881856545170407  0.2975230735508987  0.8842073169532935  1.0000
  H   H23       1.0  0.6758493474522353  0.09575057825051657  0.8147727781380281  1.0000
  H   H24       1.0  0.6783894205442493  0.9609619990952678  0.8567132308843665  1.0000
  H   H25       1.0  0.8506183944394294  0.14677563239067123  0.8407170554589453  1.0000
  H   H26       1.0  0.6018563008450214  0.8409851817885181  0.6748551664761206  1.0000
  H   H27       1.0  0.7745103745527828  0.028218539680899792  0.6578763912135341  1.0000
  H   H28       1.0  0.7751390036123383  0.8915085005189595  0.6973197711905498  1.0000
  H   H29       1.0  0.2708709305947892  0.09453196230746388  0.41425230915118044  1.0000
  H   H30       1.0  0.2980641078514381  0.15176919283406684  0.294880778552951  1.0000
  H   H31       1.0  0.09135409986121343  0.9669844130799631  0.27979567828611335  1.0000
  H   H32       1.0  0.17677146909280586  0.8963386235351648  0.10889681186673517  1.0000
  C   C1        1.0  0.4920432879699915  0.6328116286227115  0.09992101653309497  1.0000
  C   C2        1.0  0.4115063113671198  0.38257392583941646  0.02849521903461038  1.0000
  C   C3        1.0  0.6544596268164894  0.6130806574193456  0.028675441405702842  1.0000
  C   C4        1.0  0.4815666831899961  0.38863510695799147  0.8633214248783927  1.0000
  C   C5        1.0  0.2520992042077097  0.301199665298533  0.01256658950547517  1.0000
  C   C6        1.0  0.7210160518295794  0.7563494185761143  0.014650353645009682  1.0000
  C   C7        1.0  0.20063929048016152  0.20592054176822933  0.9317937300569594  1.0000
  C   C8        1.0  0.7322338716192435  0.7268339985028189  0.9317490374225482  1.0000
  C   C9        1.0  0.20401868754018435  0.16633836857884887  0.9964323253366625  1.0000
  C   C10       1.0  0.8370208522206466  0.7863244646520112  0.9937142382181814  1.0000
  C   C11       1.0  0.2578293016695028  0.26250133963755923  0.07647876345004788  1.0000
  C   C12       1.0  0.8240236436140833  0.8128860228437133  0.07596137319852393  1.0000
  C   C13       1.0  0.346506972160931  0.2661256892429263  0.0836392787126171  1.0000
  C   C14       1.0  0.8271811354919975  0.7305880674029552  0.08119889092623819  1.0000
  C   C15       1.0  0.2923181788860703  0.16981119809733503  0.001946502468065604  1.0000
  C   C16       1.0  0.8386837740104127  0.7029381218238343  0.9973954366956614  1.0000
  C   C17       1.0  0.2874708239901622  0.2087534571876688  0.9380770975327548  1.0000
  C   C18       1.0  0.7353638772313786  0.645519564394135  0.9360079221821633  1.0000
  C   C19       1.0  0.34147403151784045  0.30595225492093175  0.020675812920558142  1.0000
  C   C20       1.0  0.7239346432269471  0.6741916261260454  0.02065257109190091  1.0000
  C   C21       1.0  0.5012219660501174  0.7955664681793593  0.16788162241270033  1.0000
  C   C22       1.0  0.43459794250757244  0.7025765890924871  0.20653832561738006  1.0000
  C   C23       1.0  0.43594476065159427  0.7873300484244579  0.20540165418692866  1.0000
  C   C24       1.0  0.5181940261108693  0.8474758685110045  0.3026131256956503  1.0000
  C   C25       1.0  0.5827691659453789  0.8550337572226993  0.2642973022511297  1.0000
  C   C26       1.0  0.5154924949785522  0.7612556482157797  0.30245587569719107  1.0000
  C   C27       1.0  0.58134291872598  0.7698196286884735  0.26558044071863646  1.0000
  C   C28       1.0  0.5014212039931466  0.710694295646796  0.169028644134876  1.0000
  C   C29       1.0  0.4109842947476778  0.23231260803934353  0.7138888413641523  1.0000
  C   C30       1.0  0.5250093552709884  0.3454898708079028  0.7338261150278383  1.0000
  C   C31       1.0  0.44801851296826106  0.2525620053105371  0.6538052424617077  1.0000
  C   C32       1.0  0.5083400790558555  0.21031356515339175  0.677344360600905  1.0000
  C   C33       1.0  0.47069715165897447  0.19065423653604796  0.7372057212302179  1.0000
  C   C34       1.0  0.585131214360885  0.3041776601061414  0.7570314357875814  1.0000
  C   C35       1.0  0.5483537727606346  0.28365321623414985  0.8175179579147167  1.0000
  C   C36       1.0  0.48894776524134176  0.3254039536209488  0.7956715467226726  1.0000
  C   C37       1.0  0.8698908957224205  0.0113846908353636  0.8945038603712375  1.0000
  C   C38       1.0  0.1236317449270103  0.09434973348893289  0.9819435565948493  1.0000
  C   C39       1.0  0.8919065391790894  0.8527237539560913  0.9779337239424702  1.0000
  C   C40       1.0  0.10552204057892571  0.02039019382761609  0.13777928836685754  1.0000
  C   C41       1.0  0.34845274257861547  0.9758812076425227  0.37954015526458545  1.0000
  C   C42       1.0  0.5207060703284441  0.9158628457381824  0.37511965250872936  1.0000
  C   C43       1.0  0.5875310791979729  0.9791345671826335  0.6160907837914207  1.0000
  C   C44       1.0  0.5136871390794795  0.14383586958361144  0.610677488538897  1.0000
  C   C45       1.0  0.6985932521629722  0.9754292355504645  0.8115249064255461  1.0000
  C   C46       1.0  0.7945563298412281  0.07897154246597889  0.8025405603448444  1.0000
  C   C47       1.0  0.699359176405771  0.050878976375010196  0.7902188864831101  1.0000
  C   C48       1.0  0.6577841250607646  0.9836216638463566  0.6885030295981874  1.0000
  C   C49       1.0  0.6573288899458802  0.9088918534580086  0.7112895907151536  1.0000
  C   C50       1.0  0.7538001103988422  0.012846133573219697  0.7024385779020503  1.0000
  C   C51       1.0  0.7526937055997178  0.9368492117957882  0.723158809298148  1.0000
  C   C52       1.0  0.7944846907386846  0.0023247307764933  0.823305193617095  1.0000
  C   C53       1.0  0.26482810084596053  0.08325802491560809  0.2803261127635038  1.0000
  C   C54       1.0  0.14982641406972866  0.9805625022113913  0.2718907603179303  1.0000
  C   C55       1.0  0.24828545896232868  0.051726947282375604  0.34502924645050104  1.0000
  C   C56       1.0  0.2793906532117203  0.9819113866017299  0.3155355618609118  1.0000
  C   C57       1.0  0.29403645932439554  0.014039033325928997  0.2503215453638389  1.0000
  C   C58       1.0  0.18038927709517327  0.9121538932510729  0.2426345299992645  1.0000
  C   C59       1.0  0.19701570720462766  0.941407620875836  0.1766058934813087  1.0000
  C   C60       1.0  0.16618835201028756  0.0099837251140542  0.2050505152296437  1.0000
  N   N1        1.0  0.11823285035130479  0.16877513878210942  0.8502391664532282  1.0000
  N   N2        1.0  0.6865198953910792  0.7291792247955087  0.8515441860588947  1.0000
  N   N3        1.0  0.3708449070239084  0.027660320236293497  0.23667559613465977  1.0000
  N   N4        1.0  0.1344706571911089  0.8177176304937317  0.21644828566624583  1.0000
  O   O1        1.0  0.5383468663451937  0.5993448600157124  0.12624592479117777  1.0000
  O   O2        1.0  0.43681847926767137  0.6024932731831211  0.018340614973382567  1.0000
  O   O3        1.0  0.4929074906521366  0.4120722377778208  0.08353922776004202  1.0000
  O   O4        1.0  0.6780512535038525  0.5866885958388933  0.0842571638954296  1.0000
  O   O5        1.0  0.38474085737333036  0.4127107403499507  0.9790019986231822  1.0000
  O   O6        1.0  0.5754068642100237  0.5913428522507972  0.9786962115148793  1.0000
  O   O7        1.0  0.529915788393005  0.4118844407434068  0.9431579783683757  1.0000
  O   O8        1.0  0.4275632786648557  0.4165277981618586  0.8376656684853783  1.0000
  O   O9        1.0  0.9033708327942733  0.9637674356524497  0.8708502693570918  1.0000
  O   O10       1.0  0.897499044858719  0.06664971922687357  0.9753050396881514  1.0000
  O   O11       1.0  0.094816221525619  0.013999258596861398  0.9247469942624842  1.0000
  O   O12       1.0  0.9175800388949539  0.8271791747991343  0.9220810239004674  1.0000
  O   O13       1.0  0.0892955406565292  0.11919947333255718  0.027568016786567288  1.0000
  O   O14       1.0  0.9082311626220232  0.9311842840065339  0.021504759571804626  1.0000
  O   O15       1.0  0.08649451446488135  0.9742720439580946  0.05914764174210038  1.0000
  O   O16       1.0  0.07744589939481729  0.07399150103373128  0.16312489453110854  1.0000
  O   O17       1.0  0.32325556132533245  0.9203430260077708  0.4053213055675327  1.0000
  O   O18       1.0  0.4272710384437346  0.030614891362866097  0.40522640056350656  1.0000
  O   O19       1.0  0.4679076434826752  0.8871130084083912  0.4019846018932253  1.0000
  O   O20       1.0  0.5745793059163802  0.998547736199981  0.40638558243236367  1.0000
  O   O21       1.0  0.5056388561418216  0.9226077733006759  0.5850853921860163  1.0000
  O   O22       1.0  0.6131569647685922  0.03296017330764299  0.589283656739674  1.0000
  O   O23       1.0  0.46161436010643087  0.06281479116319838  0.5823166053201587  1.0000
  O   O24       1.0  0.5691006308111  0.17187516044249662  0.5848612910740055  1.0000
  O   O25       1.0  0.11161468993637409  0.1228752180504173  0.7794040993218798  1.0000
  O   O26       1.0  0.06039560685508149  0.18488112842818075  0.8590221194271945  1.0000
  O   O27       1.0  0.6610754612283003  0.6661505488962689  0.7796220520881146  1.0000
  O   O28       1.0  0.6788145849280481  0.7958537859242084  0.8622803218640837  1.0000
  O   O29       1.0  0.42245290197248403  0.10355991292462358  0.25682771310474084  1.0000
  O   O30       1.0  0.37677613500263607  0.9606138535357259  0.20482026222023103  1.0000
  O   O31       1.0  0.05931828909445605  0.7861385349693107  0.20823281101316832  1.0000
  O   O32       1.0  0.17372618098777085  0.7766408879921584  0.20171846054493153  1.0000
