data_image0
_chemical_formula_structural       Ag4H18C22N4O8
_chemical_formula_sum              "Ag4 H18 C22 N4 O8"
_cell_length_a       6.375421528079386
_cell_length_b       9.169464728735525
_cell_length_c       10.638084759926844
_cell_angle_alpha    64.3234733235843
_cell_angle_beta     81.31861698542154
_cell_angle_gamma    82.81266788139872

_space_group_name_H-M_alt    "P 1"
_space_group_IT_number       1

loop_
  _space_group_symop_operation_xyz
  'x, y, z'

loop_
  _atom_site_type_symbol
  _atom_site_label
  _atom_site_symmetry_multiplicity
  _atom_site_fract_x
  _atom_site_fract_y
  _atom_site_fract_z
  _atom_site_occupancy
  Ag  Ag1       1.0  0.2805831197817881  0.014738513043006697  0.13057046401404188  1.0000
  Ag  Ag2       1.0  0.7194162403843692  0.9852644177924215  0.8694284600737633  1.0000
  Ag  Ag3       1.0  0.8494796190861963  0.8583704951842321  0.24087102140855882  1.0000
  Ag  Ag4       1.0  0.1505151239739604  0.14163115985635236  0.7591297414188461  1.0000
  H   H1        1.0  0.8197979523615118  0.5963684875785942  0.4765179758266101  1.0000
  H   H2        1.0  0.18020511843962342  0.4036296384031246  0.5234833513210617  1.0000
  H   H3        1.0  0.6575680329771956  0.5337197345894537  0.6399726644650912  1.0000
  H   H4        1.0  0.3424370259430988  0.4662747733171031  0.3600288977456074  1.0000
  H   H5        1.0  0.9355650320142603  0.5302737977320575  0.6381257253304824  1.0000
  H   H6        1.0  0.06443948682176882  0.4697255605541598  0.3618740680104224  1.0000
  H   H7        1.0  0.7400292001069887  0.6994341636724073  0.7899498360224088  1.0000
  H   H8        1.0  0.25996594653677363  0.300563851547821  0.21005131433442162  1.0000
  H   H9        1.0  0.5406275041228099  0.25880598907556146  0.6007847474165189  1.0000
  H   H10       1.0  0.4593767461506816  0.7411957964360878  0.39921510061240184  1.0000
  H   H11       1.0  0.7021146752211038  0.3380848964276522  0.43625446660574596  1.0000
  H   H12       1.0  0.29789142519126705  0.6619144795325481  0.5637432960229276  1.0000
  H   H13       1.0  0.8159907088369492  0.259452143972524  0.598929804606648  1.0000
  H   H14       1.0  0.18401249402604958  0.7405447653430882  0.4010700865126537  1.0000
  H   H15       1.0  0.1682908177480371  0.5750190752182077  0.8868969720325383  1.0000
  H   H16       1.0  0.831708402958242  0.4249850621053496  0.11309869246908731  1.0000
  H   H17       1.0  0.7661291981808986  0.14407269445717222  0.324824452396328  1.0000
  H   H18       1.0  0.23386911901356908  0.8559253662890141  0.6751773321505895  1.0000
  C   C1        1.0  0.7997642832813484  0.5979235081760589  0.5801872009071262  1.0000
  C   C2        1.0  0.20023878604018822  0.4020746157700685  0.41981318711764  1.0000
  C   C3        1.0  0.6218917442495596  0.6682176922722433  0.15400857190276435  1.0000
  C   C4        1.0  0.3781094675350829  0.3317828310473415  0.8459892059076991  1.0000
  C   C5        1.0  0.7443610890482972  0.7993276040115657  0.6854113669019314  1.0000
  C   C6        1.0  0.25563550710995037  0.2006716455487591  0.3145891887710448  1.0000
  C   C7        1.0  0.6943665974200145  0.24293282005572783  0.5437083131605362  1.0000
  C   C8        1.0  0.3056363368804541  0.7570665164853094  0.4562916326467814  1.0000
  C   C9        1.0  0.1936586235626906  0.7569795206704057  0.019420872667929228  1.0000
  C   C10       1.0  0.8063406015823916  0.24302462275994682  0.9805776092024274  1.0000
  C   C11       1.0  0.31541420739764453  0.5420949520926682  0.9363267277149704  1.0000
  C   C12       1.0  0.6845822522599292  0.45790550802698227  0.06367244661765172  1.0000
  C   C13       1.0  0.3588144549089237  0.6276599521334842  0.010068343025366812  1.0000
  C   C14       1.0  0.6411804246519067  0.3723404923477743  0.9899338011423993  1.0000
  C   C15       1.0  0.5486108905465842  0.5852698016431717  0.07461267414814891  1.0000
  C   C16       1.0  0.45138108998526855  0.4147281741579008  0.9253906593873324  1.0000
  C   C17       1.0  0.7577092594362399  0.0458234513592117  0.43028552536721776  1.0000
  C   C18       1.0  0.242288922737167  0.9541758219818913  0.5697158169622584  1.0000
  C   C19       1.0  0.7237547768028066  0.07683788829103118  0.5495374605899386  1.0000
  C   C20       1.0  0.2762449913857595  0.9231614088308431  0.45046466839603033  1.0000
  C   C21       1.0  0.7760653491568663  0.7676644783236879  0.5662023745311303  1.0000
  C   C22       1.0  0.22393455109356353  0.23233360213207985  0.43379831842646155  1.0000
  N   N1        1.0  0.7198626456916558  0.9498805728800475  0.6777064213915126  1.0000
  N   N2        1.0  0.2801371195377058  0.050118720170637183  0.3222938293486308  1.0000
  N   N3        1.0  0.7848119887723045  0.8941073699596415  0.43796862249307367  1.0000
  N   N4        1.0  0.2151861934010952  0.1058919033814618  0.5620327198363954  1.0000
  O   O1        1.0  0.16301575676245522  0.7687369070831378  0.13649646066418342  1.0000
  O   O2        1.0  0.8369791213187696  0.23126353536252248  0.8635047443806628  1.0000
  O   O3        1.0  0.09715521719942197  0.8385447439631333  0.911859962575555  1.0000
  O   O4        1.0  0.9028470390365018  0.16146065148129904  0.0881358938987091  1.0000
  O   O5        1.0  0.6949879929009343  0.5803422599895783  0.268468914762515  1.0000
  O   O6        1.0  0.30501969500620163  0.41965714178699887  0.7315305736455642  1.0000
  O   O7        1.0  0.6180472901890683  0.8249377162236013  0.09887843338048444  1.0000
  O   O8        1.0  0.381955374069264  0.1750640455072698  0.9011206279919435  1.0000
