data_image0
_chemical_formula_structural       Zn2H10C18N2O10
_chemical_formula_sum              "Zn2 H10 C18 N2 O10"
_cell_length_a       7.397309881958781
_cell_length_b       9.103997441475894
_cell_length_c       13.071624837526091
_cell_angle_alpha    104.00693570857625
_cell_angle_beta     95.5695437151018
_cell_angle_gamma    75.2286752045415

_space_group_name_H-M_alt    "P 1"
_space_group_IT_number       1

loop_
  _space_group_symop_operation_xyz
  'x, y, z'

loop_
  _atom_site_type_symbol
  _atom_site_label
  _atom_site_symmetry_multiplicity
  _atom_site_fract_x
  _atom_site_fract_y
  _atom_site_fract_z
  _atom_site_occupancy
  Zn  Zn1       1.0  0.3008313493268631  0.5753050613091019  0.5126489948475734  1.0000
  Zn  Zn2       1.0  0.6991752671923023  0.42469933593480397  0.4873537489998723  1.0000
  H   H1        1.0  0.740651776184393  0.4378082054713346  0.17062143992825435  1.0000
  H   H2        1.0  0.2945393280790399  0.8881539647420807  0.36717288072925663  1.0000
  H   H3        1.0  0.2593301659283682  0.5621858477432369  0.8293865125577751  1.0000
  H   H4        1.0  0.1415419859712372  0.5587799263342462  0.18444171674733664  1.0000
  H   H5        1.0  0.8584558150132012  0.44122798597616947  0.8155556244039627  1.0000
  H   H6        1.0  0.8900263380843756  0.41931655073229024  0.003474178430316493  1.0000
  H   H7        1.0  0.10996759313611196  0.5806902804620931  0.9965267918345401  1.0000
  H   H8        1.0  0.0889588915653619  0.3414841463082253  0.4658787686125335  1.0000
  H   H9        1.0  0.9110402792019487  0.6585100733336234  0.5341112917344261  1.0000
  H   H10       1.0  0.7054525553449976  0.1118254452818448  0.6328349444475447  1.0000
  C   C1        1.0  0.5067228261819494  0.7969361402870021  0.5246021607227149  1.0000
  C   C2        1.0  0.264505422812519  0.5370489612083276  0.13834678086344349  1.0000
  C   C3        1.0  0.3962320670142603  0.5316611912262204  0.868567709006001  1.0000
  C   C4        1.0  0.6037508851903652  0.4683331911251969  0.1314302847061342  1.0000
  C   C5        1.0  0.4090677856455827  0.5204524318706589  0.9751481278491168  1.0000
  C   C6        1.0  0.5909159957639787  0.4795225247025384  0.024847476508014686  1.0000
  C   C7        1.0  0.5530092327645948  0.9496403907228486  0.5282221501939546  1.0000
  C   C8        1.0  0.4470140840114426  0.050348539733846606  0.47177446285838437  1.0000
  C   C9        1.0  0.7186278832549464  0.9865684496406781  0.5950812531496721  1.0000
  C   C10       1.0  0.2813948605027221  0.013427441944948278  0.4049228683533455  1.0000
  C   C11       1.0  0.49325198687541416  0.20307958941673818  0.47539119476238045  1.0000
  C   C12       1.0  0.5372342439446315  0.5112868120902904  0.6987930767118441  1.0000
  C   C13       1.0  0.46272758255009455  0.4887361604742964  0.3012066114323345  1.0000
  C   C14       1.0  0.44433593848762604  0.4966895288920553  0.18765502627255864  1.0000
  C   C15       1.0  0.5556667342726912  0.5033126877001591  0.8123450837818991  1.0000
  C   C16       1.0  0.7522377723115881  0.45157985771625414  0.965409867980085  1.0000
  C   C17       1.0  0.24775317560751384  0.5484042222179468  0.03458598660061799  1.0000
  C   C18       1.0  0.7354818836457897  0.46294751120557004  0.8616661873824324  1.0000
  N   N1        1.0  0.9750438772358763  0.4378827592605532  0.48734693749193514  1.0000
  N   N2        1.0  0.02495667242832413  0.562124255725564  0.512647338959894  1.0000
  O   O1        1.0  0.3366882409542172  0.7990125302594607  0.5337645505661754  1.0000
  O   O2        1.0  0.140931156762818  0.1117660046615967  0.3885771464118334  1.0000
  O   O3        1.0  0.6633409217261885  0.20098986588979526  0.46624959486198475  1.0000
  O   O4        1.0  0.6431378294252356  0.678175532535448  0.5106622114920468  1.0000
  O   O5        1.0  0.3568798974976631  0.32181381815026805  0.48933270232604525  1.0000
  O   O6        1.0  0.37599891134434676  0.5727423255083933  0.6638076306992173  1.0000
  O   O7        1.0  0.6240103873475887  0.42726328133517183  0.33619762102814826  1.0000
  O   O8        1.0  0.6843344886749707  0.45367395030240926  0.6448735233781447  1.0000
  O   O9        1.0  0.31566960629815094  0.546351786390659  0.3551286300664599  1.0000
  O   O10       1.0  0.8591077870588181  0.8882294493305448  0.6114174759993742  1.0000
