data_image0
_chemical_formula_structural       AlH9C27N7O6F3
_chemical_formula_sum              "Al1 H9 C27 N7 O6 F3"
_cell_length_a       3.936543354350661
_cell_length_b       18.19837041705399
_cell_length_c       18.170151504597307
_cell_angle_alpha    120.9936636870465
_cell_angle_beta     95.75722909726309
_cell_angle_gamma    94.36965756643923

_space_group_name_H-M_alt    "P 1"
_space_group_IT_number       1

loop_
  _space_group_symop_operation_xyz
  'x, y, z'

loop_
  _atom_site_type_symbol
  _atom_site_label
  _atom_site_symmetry_multiplicity
  _atom_site_fract_x
  _atom_site_fract_y
  _atom_site_fract_z
  _atom_site_occupancy
  Al  Al1       1.0  0.006632397441009635  0.0008967671647824031  0.49596696392772094  1.0000
  H   H1        1.0  0.5255475463398013  0.3154806164893669  0.4196142579754464  1.0000
  H   H2        1.0  0.7282628284101095  0.0872587821415962  0.8964038067427111  1.0000
  H   H3        1.0  0.5798370640495776  0.6058774528114411  0.19233402486881354  1.0000
  H   H4        1.0  0.48832734311313425  0.31495141558510636  0.8972357217030194  1.0000
  H   H5        1.0  0.744286837150156  0.012193398703296096  0.736028617471696  1.0000
  H   H6        1.0  0.5883302316376628  0.7669364233224697  0.2752260132561588  1.0000
  H   H7        1.0  0.30591749575491173  0.59911864583686  0.4129630876203051  1.0000
  H   H8        1.0  0.4755477134031381  0.07406527483256299  0.17605325776978725  1.0000
  H   H9        1.0  0.539847510750988  0.23540466486476666  0.49802648501673014  1.0000
  C   C1        1.0  0.4977810768190666  0.0632823908112812  0.4282689130124878  1.0000
  C   C2        1.0  0.5848108481344455  0.07093181996205537  0.6299833610433792  1.0000
  C   C3        1.0  0.44068286198505285  0.8679983065998726  0.43271793798670893  1.0000
  C   C4        1.0  0.5138099928530053  0.24536020996434615  0.38425920908130706  1.0000
  C   C5        1.0  0.49902914254573716  0.1999991079399024  0.2935041714584585  1.0000
  C   C6        1.0  0.679459119261807  0.11985230755235676  0.8610864448796888  1.0000
  C   C7        1.0  0.6065167429805314  0.2053151096342063  0.9064638861063158  1.0000
  C   C8        1.0  0.4403965488194785  0.5925886160736056  0.29704757875386884  1.0000
  C   C9        1.0  0.5168798976978904  0.6399341354684509  0.2578101500367679  1.0000
  C   C10       1.0  0.5408464763178529  0.24842060266937688  0.8621717058362603  1.0000
  C   C11       1.0  0.538906583245691  0.2047379830070568  0.7733757265249253  1.0000
  C   C12       1.0  0.6111501611051011  0.11942164439186337  0.7263245746707765  1.0000
  C   C13       1.0  0.6875205733024147  0.0783723695580889  0.7723158976038603  1.0000
  C   C14       1.0  0.5189718574101009  0.7287940403787018  0.3035005790784736  1.0000
  C   C15       1.0  0.43036242562968857  0.7724380936946245  0.38739293880673387  1.0000
  C   C16       1.0  0.3483453977809745  0.7234333073098256  0.4243318499028844  1.0000
  C   C17       1.0  0.3586210010096025  0.6349911350580655  0.3814387031705593  1.0000
  C   C18       1.0  0.48321811900956396  0.10947527508770348  0.24621369007088123  1.0000
  C   C19       1.0  0.4751040969554979  0.06638128651339768  0.29050582803762376  1.0000
  C   C20       1.0  0.4963376614267858  0.11025703467649349  0.3809235781087139  1.0000
  C   C21       1.0  0.5199825318035637  0.20082687148104844  0.4274570092459697  1.0000
  C   C22       1.0  0.4607899470578757  0.3745618627401581  0.25308080230833946  1.0000
  C   C23       1.0  0.5641165723626999  0.24432937500534985  0.12221802189839787  1.0000
  C   C24       1.0  0.503669324069314  0.24712199522598147  0.24770054239575498  1.0000
  C   C25       1.0  0.4557383912915398  0.4986955859040307  0.24980447159693855  1.0000
  C   C26       1.0  0.5268324406475884  0.3778190298566172  0.12271170783377262  1.0000
  C   C27       1.0  0.590542207038567  0.2509873623679866  0.00036581558546800315  1.0000
  N   N1        1.0  0.5174159492522818  0.332229001517554  0.16602588432301252  1.0000
  N   N2        1.0  0.5631728263140732  0.20289750393559558  0.16490468748848028  1.0000
  N   N3        1.0  0.44808172482179026  0.330254798637405  0.2927628121841082  1.0000
  N   N4        1.0  0.42108206103198137  0.4581390576458233  0.2937406052802558  1.0000
  N   N5        1.0  0.5050709430460286  0.4621742776931157  0.16650924798142339  1.0000
  N   N6        1.0  0.6076812758521085  0.2046834116741039  0.0389347473382387  1.0000
  N   N7        1.0  0.5567233866872242  0.3354847035613913  0.03880513555684215  1.0000
  O   O1        1.0  0.2283927758718037  0.9045341559217093  0.4841398492279296  1.0000
  O   O2        1.0  0.23292688869349126  0.009118962679352197  0.4108560190364229  1.0000
  O   O3        1.0  0.34345215141879487  0.0850624546435625  0.5886529643883377  1.0000
  O   O4        1.0  0.6678052243108469  0.9075051495797908  0.414413893160443  1.0000
  O   O5        1.0  0.793970123111393  0.017501543779658804  0.5947589254899269  1.0000
  O   O6        1.0  0.7645499344527948  0.0828302072766576  0.4842733725358315  1.0000
  F   F1        1.0  0.4558906669061643  0.9786556596115474  0.24481204867360876  1.0000
  F   F2        1.0  0.2690490781579129  0.7631667404841237  0.5059070644719197  1.0000
  F   F3        1.0  0.4718760214945021  0.24778990086576164  0.7321634322103989  1.0000
