data_image0
_chemical_formula_structural       Zn8H80C96N8O26
_chemical_formula_sum              "Zn8 H80 C96 N8 O26"
_cell_length_a       23.83366009802597
_cell_length_b       23.83463759972739
_cell_length_c       23.833904606034153
_cell_angle_alpha    66.89349115755131
_cell_angle_beta     72.32137777342818
_cell_angle_gamma    107.6885869288937

_space_group_name_H-M_alt    "P 1"
_space_group_IT_number       1

loop_
  _space_group_symop_operation_xyz
  'x, y, z'

loop_
  _atom_site_type_symbol
  _atom_site_label
  _atom_site_symmetry_multiplicity
  _atom_site_fract_x
  _atom_site_fract_y
  _atom_site_fract_z
  _atom_site_occupancy
  Zn  Zn1       1.0  0.057059997900090344  0.9574159306538377  0.4864839659092937  1.0000
  Zn  Zn2       1.0  0.057052661951807686  0.09964047548935892  0.456469127460231  1.0000
  Zn  Zn3       1.0  0.9429270920755927  0.9864731684868248  0.4574192864641796  1.0000
  Zn  Zn4       1.0  0.942948031068248  0.9564655289991819  0.5996418915727015  1.0000
  Zn  Zn5       1.0  0.9438906145285986  0.543538257613932  0.013522629929610498  1.0000
  Zn  Zn6       1.0  0.05612120447889885  0.5135299555759616  0.043538244393431506  1.0000
  Zn  Zn7       1.0  0.9438893490568743  0.40036072531251676  0.042589115103915366  1.0000
  Zn  Zn8       1.0  0.05609744469771269  0.5425800377244059  0.900361435723724  1.0000
  H   H1        1.0  0.9233108052694733  0.651051475472869  0.11322262719968271  1.0000
  H   H2        1.0  0.07668261050745445  0.6132018533581914  0.15108476117067923  1.0000
  H   H3        1.0  0.9250533120612303  0.8896450678706103  0.34740126171033103  1.0000
  H   H4        1.0  0.0749020239210481  0.8473892644682407  0.3896863942279083  1.0000
  H   H5        1.0  0.07670563151565803  0.463452469939547  0.7722819765792223  1.0000
  H   H6        1.0  0.9233319557195755  0.272235364059121  0.9634845533575742  1.0000
  H   H7        1.0  0.07491387391593916  0.22754075930875928  0.5354174570128476  1.0000
  H   H8        1.0  0.9250632907166507  0.03541957713743951  0.7275137917716703  1.0000
  H   H9        1.0  0.7370595878790313  0.4645835329901331  0.11036101631589901  1.0000
  H   H10       1.0  0.7370551515022683  0.27247901018718323  0.15260440242877135  1.0000
  H   H11       1.0  0.2642814619509366  0.22776899126672845  0.34889422016877336  1.0000
  H   H12       1.0  0.26427224904327323  0.036548988778818556  0.38674887681569453  1.0000
  H   H13       1.0  0.26296113911080704  0.6103526422224661  0.9645747117899429  1.0000
  H   H14       1.0  0.26292925091087227  0.6525963692036286  0.7724748753137545  1.0000
  H   H15       1.0  0.7357281349940764  0.8489176994476966  0.7277615169236918  1.0000
  H   H16       1.0  0.7357166527529205  0.8867748508555241  0.536540218303514  1.0000
  H   H17       1.0  0.9155753246972083  0.8411875714315753  0.7493697819363518  1.0000
  H   H18       1.0  0.9089491836252604  0.8031195715243767  0.8307098005554465  1.0000
  H   H19       1.0  0.09052591504335793  0.6649165814055849  0.7506408030097232  1.0000
  H   H20       1.0  0.13381699816396533  0.7396391496104188  0.669313472696302  1.0000
  H   H21       1.0  0.9094436704052883  0.6588247388906087  0.9256099482154099  1.0000
  H   H22       1.0  0.8661718269109426  0.6968876357064174  0.8941628899457611  1.0000
  H   H23       1.0  0.0844555808332712  0.8350796680798779  0.5743961930184084  1.0000
  H   H24       1.0  0.09106036702795706  0.7603580117078579  0.6058349527257645  1.0000
  H   H25       1.0  0.9155418249740136  0.07439219766566663  0.33504106632747704  1.0000
  H   H26       1.0  0.9089338364337749  0.10583995614783241  0.260313874281259  1.0000
  H   H27       1.0  0.09056455016622077  0.4256099502917934  0.15885537488922089  1.0000
  H   H28       1.0  0.1338374633216332  0.3941608441373106  0.19692176388998206  1.0000
  H   H29       1.0  0.9094702669687962  0.2506611130958659  0.1649049971622745  1.0000
  H   H30       1.0  0.8661877398557252  0.16932031407922207  0.23961224956299523  1.0000
  H   H31       1.0  0.08442625146662407  0.24934022613505388  0.3412002458845222  1.0000
  H   H32       1.0  0.09105026351701881  0.33067783341738977  0.3031481887178487  1.0000
  H   H33       1.0  0.08005083951554326  0.6236881656515506  0.26099193095276246  1.0000
  H   H34       1.0  0.0875026667013188  0.7048245032301352  0.24793131771848903  1.0000
  H   H35       1.0  0.14360022901547598  0.7019997997980879  0.1814778277595153  1.0000
  H   H36       1.0  0.9199359459572064  0.760909199326008  0.1237158449317517  1.0000
  H   H37       1.0  0.9124799051005255  0.7478885406633394  0.2048434859999515  1.0000
  H   H38       1.0  0.8563678711815256  0.681415652025997  0.20203593692990302  1.0000
  H   H39       1.0  0.14304977349185313  0.818623060432678  0.2978159890266027  1.0000
  H   H40       1.0  0.08551391944484264  0.7502087170669611  0.2983775380265711  1.0000
  H   H41       1.0  0.08060116424893944  0.7402608841995786  0.3778506492157944  1.0000
  H   H42       1.0  0.8569017541519129  0.7977604499455071  0.3186067747846547  1.0000
  H   H43       1.0  0.9144668845953915  0.7983471269491886  0.2502091653823373  1.0000
  H   H44       1.0  0.9193814976596287  0.8778169295597992  0.24027838832914455  1.0000
  H   H45       1.0  0.919943790839852  0.15897404114415514  0.956373335196943  1.0000
  H   H46       1.0  0.9125104948969919  0.1645728667111399  0.8826778131240827  1.0000
  H   H47       1.0  0.8563989989390564  0.1749330391818447  0.9415835925389187  1.0000
  H   H48       1.0  0.08006182924837905  0.456337478689079  0.6590323198210368  1.0000
  H   H49       1.0  0.08752566829402038  0.3826674355493224  0.6646034354685426  1.0000
  H   H50       1.0  0.14363539949692947  0.44159227916351534  0.6749668895086456  1.0000
  H   H51       1.0  0.8569072257999931  0.05913190652774604  0.8244455526768845  1.0000
  H   H52       1.0  0.9144519344835373  0.11610407943911827  0.83530969669669  1.0000
  H   H53       1.0  0.9193818115176171  0.04155970161030332  0.8403208755825344  1.0000
  H   H54       1.0  0.14304667240379842  0.3244621082083867  0.5591701589196132  1.0000
  H   H55       1.0  0.08548526555136247  0.33531921838110174  0.6161292366519502  1.0000
  H   H56       1.0  0.08058870949317762  0.34034188811124716  0.5415662225020625  1.0000
  H   H57       1.0  0.6163838650918833  0.17553682665983666  0.18137630195782614  1.0000
  H   H58       1.0  0.5485695953697912  0.16468718970543955  0.2497856453479628  1.0000
  H   H59       1.0  0.6181168667194185  0.15967829287423999  0.2597083499148453  1.0000
  H   H60       1.0  0.616427302883167  0.4408646833135136  0.2022104634492052  1.0000
  H   H61       1.0  0.5485716862745492  0.38388807870192926  0.20164580354032308  1.0000
  H   H62       1.0  0.6180980859241316  0.4584415364248783  0.12217416080692783  1.0000
  H   H63       1.0  0.38462299411528994  0.04366014802651115  0.3762674505057431  1.0000
  H   H64       1.0  0.45272996111985003  0.11732880665032036  0.2951408465085875  1.0000
  H   H65       1.0  0.3834507227255698  0.05841145785566937  0.29794032939187787  1.0000
  H   H66       1.0  0.3846724475328784  0.3410408192552552  0.2389996280947742  1.0000
  H   H67       1.0  0.4527536287544861  0.33542144780036404  0.2520589211309455  1.0000
  H   H68       1.0  0.3834762748407882  0.3250649440683802  0.3185174020545745  1.0000
  H   H69       1.0  0.3835857985987517  0.6813620700566646  0.6755351558305447  1.0000
  H   H70       1.0  0.4514090999899664  0.7497756276817994  0.6646807676048636  1.0000
  H   H71       1.0  0.381859759821559  0.7596898362633411  0.6596837477022814  1.0000
  H   H72       1.0  0.3836104467336056  0.7021960019682254  0.9408469943113359  1.0000
  H   H73       1.0  0.451447958546801  0.7016267302359012  0.8838737372840907  1.0000
  H   H74       1.0  0.3819255645068295  0.6221553329216079  0.9584316355540918  1.0000
  H   H75       1.0  0.6153570577969276  0.8762790988148339  0.5436551084809833  1.0000
  H   H76       1.0  0.5472478939167756  0.7951532822648062  0.6173222604254461  1.0000
  H   H77       1.0  0.6165192657098256  0.7979564784747379  0.5584081872163225  1.0000
  H   H78       1.0  0.6153430240691549  0.7390196849680138  0.8410282124043459  1.0000
  H   H79       1.0  0.5472595216003668  0.7520786478615947  0.8354140034515464  1.0000
  H   H80       1.0  0.6165565042753087  0.8185433164316152  0.8250479300091982  1.0000
  C   C1        1.0  0.182219780554334  0.09113282420621262  0.40885455504841406  1.0000
  C   C2        1.0  0.9999872887281639  0.13925502603968457  0.3607156125588701  1.0000
  C   C3        1.0  0.9999652677900103  0.9094631912088361  0.40951362894653437  1.0000
  C   C4        1.0  0.8177772324278862  0.9088683867820037  0.5911209747857596  1.0000
  C   C5        1.0  2.6531643832972915e-05  0.8607458388568433  0.6392805559590397  1.0000
  C   C6        1.0  0.9999998457474105  0.09052597514465081  0.5904988480843372  1.0000
  C   C7        1.0  1.1670707706538756e-06  0.5910996642229449  0.09112400464553616  1.0000
  C   C8        1.0  3.221004444509519e-05  0.3607467651098305  0.13926631606103965  1.0000
  C   C9        1.0  0.818975350228058  0.4094882489477313  0.09051049389074001  1.0000
  C   C10       1.0  6.879111140192356e-06  0.40887049603891507  0.9089117205871843  1.0000
  C   C11       1.0  0.9999815677980732  0.6392655132517361  0.8607274669500383  1.0000
  C   C12       1.0  0.18102745603415824  0.5905120232067418  0.9094875663665998  1.0000
  C   C13       1.0  1.9357777588785073e-05  0.804608008622111  0.6954124002376999  1.0000
  C   C14       1.0  0.9999879709237618  0.6954051720258861  0.8045926183884898  1.0000
  C   C15       1.0  0.9566360345463778  0.777259937700457  0.766780211774495  1.0000
  C   C16       1.0  0.0440267827968555  0.7234071965194319  0.7332297274795889  1.0000
  C   C17       1.0  0.9559688732396837  0.7227506322346289  0.8206230715448939  1.0000
  C   C18       1.0  0.0433794631309539  0.7765993751210019  0.6793850764336539  1.0000
  C   C19       1.0  7.423123733107647e-07  0.1953965263755606  0.30457844015337787  1.0000
  C   C20       1.0  2.765723482410539e-05  0.3046068596656538  0.19539356857241325  1.0000
  C   C21       1.0  0.956629490630462  0.17938541524339502  0.2765670308521989  1.0000
  C   C22       1.0  0.04404840443739743  0.32061779217919206  0.22275378265519652  1.0000
  C   C23       1.0  0.9559798810146063  0.23323699626795502  0.22338636310514906  1.0000
  C   C24       1.0  0.043370691899731556  0.2667622338845704  0.27726158002769097  1.0000
  C   C25       1.0  0.9999848365807933  0.6285569496282051  0.12861780041929904  1.0000
  C   C26       1.0  0.9567105489341188  0.6569408497253519  0.13566072445615865  1.0000
  C   C27       1.0  0.9559165029474672  0.6923302279504854  0.17027432782715812  1.0000
  C   C28       1.0  0.9999690448270118  0.6991821745439212  0.1992815965577603  1.0000
  C   C29       1.0  0.04403899572611173  0.6702013304784842  0.1924091403602118  1.0000
  C   C30       1.0  0.04326893575917269  0.6356165713427231  0.1569965975055395  1.0000
  C   C31       1.0  0.9999583590405479  0.7348776214254258  0.23499197472729338  1.0000
  C   C32       1.0  0.9999404465685089  0.7656699856734973  0.26581343037300087  1.0000
  C   C33       1.0  0.9999478927598066  0.8013871616477034  0.3014954903851573  1.0000
  C   C34       1.0  0.9565164451329835  0.8311712130365053  0.30752047010617634  1.0000
  C   C35       1.0  0.9576796155454373  0.86623523460743  0.3424484865337048  1.0000
  C   C36       1.0  0.9999661774787613  0.8720061748236037  0.3720578464510705  1.0000
  C   C37       1.0  0.04226395539097199  0.8424099161835417  0.36628480700760946  1.0000
  C   C38       1.0  0.04340788581306049  0.8074473306063013  0.3312628184373095  1.0000
  C   C39       1.0  2.595912509664279e-05  0.37139254440185  0.8714347654701411  1.0000
  C   C40       1.0  0.0432981054511714  0.4076204903457707  0.7997801880998523  1.0000
  C   C41       1.0  0.044086082365517074  0.37380326362195854  0.7635954018223572  1.0000
  C   C42       1.0  2.2187919270762857e-05  0.3007519561970824  0.8007896609432733  1.0000
  C   C43       1.0  0.955959346556902  0.2635529065376402  0.8738424114849719  1.0000
  C   C44       1.0  0.9567376809362358  0.2997340141568259  0.907658565719096  1.0000
  C   C45       1.0  0.9999952262833459  0.2650548040312658  0.7650815911458223  1.0000
  C   C46       1.0  0.9999683994260237  0.2342599087746394  0.7342688115150222  1.0000
  C   C47       1.0  0.9999646566397826  0.19856305344208633  0.698557065494242  1.0000
  C   C48       1.0  0.04341778814187341  0.2359647283406261  0.625345701910973  1.0000
  C   C49       1.0  0.042280716969315846  0.19987584991107352  0.5914508417350175  1.0000
  C   C50       1.0  0.9999840881433285  0.12797545286858275  0.6279641961269034  1.0000
  C   C51       1.0  0.9576937161817085  0.09145815738006044  0.6998507256376738  1.0000
  C   C52       1.0  0.9565331661499454  0.12534751511223868  0.7359508733984298  1.0000
  C   C53       1.0  0.7440659654380184  0.37203825784001765  0.12796356248178847  1.0000
  C   C54       1.0  0.7086861044503648  0.4085536897842487  0.133742057015354  1.0000
  C   C55       1.0  0.638701568051701  0.37466482607305124  0.16876985727841978  1.0000
  C   C56       1.0  0.6028772409626126  0.30144824529950387  0.19852478489911363  1.0000
  C   C57       1.0  0.6386977203303488  0.26404569881802337  0.19249236571255318  1.0000
  C   C58       1.0  0.708681671599031  0.3001428428547044  0.15756317768077113  1.0000
  C   C59       1.0  0.5314792315612776  0.2657594281366613  0.23419097788109156  1.0000
  C   C60       1.0  0.46986638442556466  0.23494880632707543  0.265005198854503  1.0000
  C   C61       1.0  0.3984646744032858  0.19926049727313713  0.3006949695336019  1.0000
  C   C62       1.0  0.3626039002887822  0.23645129163312362  0.3075732061300513  1.0000
  C   C63       1.0  0.2926072497471494  0.2002672869427613  0.3429860435480875  1.0000
  C   C64       1.0  0.2571748552410895  0.12861071765879473  0.37135735339261794  1.0000
  C   C65       1.0  0.2926025759213929  0.09238002266508975  0.3643143144685297  1.0000
  C   C66       1.0  0.36260012197355007  0.12619876956085116  0.3297075287984867  1.0000
  C   C67       1.0  0.25593606868515206  0.6279534199864969  0.872029725930268  1.0000
  C   C68       1.0  0.29132382362461573  0.63373081873619  0.908548114054788  1.0000
  C   C69       1.0  0.36130628796071557  0.6687505298576042  0.8746605919355229  1.0000
  C   C70       1.0  0.3971237957995086  0.6984981152251776  0.8014447009485576  1.0000
  C   C71       1.0  0.36129328669397154  0.6924733042974721  0.7640443617386266  1.0000
  C   C72       1.0  0.2913063225534742  0.6575545550535297  0.800138178229815  1.0000
  C   C73       1.0  0.468520481907916  0.7341751434591046  0.7657516655998573  1.0000
  C   C74       1.0  0.5301322947789159  0.7649935949926174  0.7349422257556312  1.0000
  C   C75       1.0  0.6015347131435219  0.8007076152490742  0.6992517619022818  1.0000
  C   C76       1.0  0.6373985332202138  0.8075899884394743  0.736445995232394  1.0000
  C   C77       1.0  0.7073954321932231  0.84300400644544  0.7002602133732763  1.0000
  C   C78       1.0  0.7428238748832142  0.8713828066616569  0.6286026428188833  1.0000
  C   C79       1.0  0.7073906170073985  0.8643404194015646  0.592371481229591  1.0000
  C   C80       1.0  0.6373912665025542  0.8297199134681035  0.6261899299880793  1.0000
  C   C81       1.0  0.09117270800935968  0.6756912996907118  0.22241380101168315  1.0000
  C   C82       1.0  0.9088066419558557  0.7223515323584095  0.175726199701053  1.0000
  C   C83       1.0  0.0904794554350658  0.7773763704520177  0.3258660232454743  1.0000
  C   C84       1.0  0.9094855345707343  0.8258223729182819  0.2773887921050144  1.0000
  C   C85       1.0  0.9088295288372804  0.18642137483587362  0.9154852108060964  1.0000
  C   C86       1.0  0.09119965398566171  0.4154649259616221  0.6864615115493392  1.0000
  C   C87       1.0  0.9094898389739966  0.08366289027729593  0.8131048372956684  1.0000
  C   C88       1.0  0.09047145765422468  0.3131174740614426  0.5836760756378041  1.0000
  C   C89       1.0  0.6032234431906289  0.1868952536655045  0.22260260032272317  1.0000
  C   C90       1.0  0.6032292409515421  0.416337433067838  0.17415756466345292  1.0000
  C   C91       1.0  0.3980755786513228  0.08453855881072056  0.32425734789055116  1.0000
  C   C92       1.0  0.3980941009105905  0.3135798353540552  0.27757754241876836  1.0000
  C   C93       1.0  0.3967659025532201  0.7225926164902746  0.6868928923507834  1.0000
  C   C94       1.0  0.3967948635401158  0.6741434554334944  0.9163238406348524  1.0000
  C   C95       1.0  0.601915548382287  0.8242752535957435  0.584527642559763  1.0000
  C   C96       1.0  0.6019189946566996  0.777591330022112  0.8135700726651789  1.0000
  N   N1        1.0  0.9114270526367463  0.7995016701786852  0.7889397880425333  1.0000
  N   N2        1.0  0.08842105770185071  0.7003507320520368  0.711069390027319  1.0000
  N   N3        1.0  0.9115600537650439  0.700509159670368  0.888071679979262  1.0000
  N   N4        1.0  0.08859501452077016  0.799648644911315  0.611936502989266  1.0000
  N   N5        1.0  0.9114065538542135  0.11193768648604423  0.29960938862828357  1.0000
  N   N6        1.0  0.08844561959695338  0.38806167996619206  0.2005404043776835  1.0000
  N   N7        1.0  0.9115783756666856  0.21108525459565186  0.20032365303094213  1.0000
  N   N8        1.0  0.08858067091167499  0.2889177978473754  0.2995177453117392  1.0000
  O   O1        1.0  0.9999974992707765  0.9999985024759398  0.49999938744014116  1.0000
  O   O2        1.0  0.15296964474383398  0.026562096269820794  0.42990073585978905  1.0000
  O   O3        1.0  0.04445884039496664  0.15532470103665474  0.37988565338507385  1.0000
  O   O4        1.0  0.9634972613564652  0.9392673495068491  0.4089007874150495  1.0000
  O   O5        1.0  0.15296527841942256  0.1264237927487812  0.4170871811454048  1.0000
  O   O6        1.0  0.036449224514221536  0.9088534906368082  0.43932046638385464  1.0000
  O   O7        1.0  0.9555043075624279  0.0756259426591156  0.38911058765954454  1.0000
  O   O8        1.0  0.8470242652560743  0.929922181617684  0.5265665560216771  1.0000
  O   O9        1.0  0.9555483493586648  0.8798971665592958  0.6553562335106091  1.0000
  O   O10       1.0  0.8470268398536476  0.9170827813016443  0.6264388112737931  1.0000
  O   O11       1.0  0.04449589756467295  0.88913837848596  0.5756496004332303  1.0000
  O   O12       1.0  0.0364732610011202  0.12760373755511267  0.5242307528592676  1.0000
  O   O13       1.0  0.9635204597451832  0.02424137617876468  0.6275913998124664  1.0000
  O   O14       1.0  2.254464099822106e-06  0.5000047916248249  2.7326591051821852e-06  1.0000
  O   O15       1.0  0.9564760020647185  0.5828987016044778  0.07007581381186885  1.0000
  O   O16       1.0  0.03526958211101328  0.4243769094038258  0.12011799356257306  1.0000
  O   O17       1.0  0.8481664012913155  0.3724043247157026  0.09112630276766957  1.0000
  O   O18       1.0  0.04352764813251754  0.5700795374843679  0.08289786791491587  1.0000
  O   O19       1.0  0.8481693802752586  0.47577263931776065  0.06070473066738909  1.0000
  O   O20       1.0  0.9647907819960223  0.34467776055217303  0.11086496002903354  1.0000
  O   O21       1.0  0.956482253441493  0.37357930141212836  0.9734547716733885  1.0000
  O   O22       1.0  0.035203440316230725  0.6108570956093615  0.8446571235268718  1.0000
  O   O23       1.0  0.0435251054737193  0.4734406342838539  0.8735946574554629  1.0000
  O   O24       1.0  0.9647543678763526  0.6201169682400762  0.9243570773129476  1.0000
  O   O25       1.0  0.1518379361183477  0.5607131706438437  0.9757602775798728  1.0000
  O   O26       1.0  0.1518267646027809  0.5911276635818794  0.8723962099828096  1.0000
