data_image0
_chemical_formula_structural       Cu12H24C48N36
_chemical_formula_sum              "Cu12 H24 C48 N36"
_cell_length_a       14.913744351614461
_cell_length_b       22.711043199435334
_cell_length_c       23.205664089397025
_cell_angle_alpha    90.21188723773474
_cell_angle_beta     90.44724245140443
_cell_angle_gamma    90.15510453510696

_space_group_name_H-M_alt    "P 1"
_space_group_IT_number       1

loop_
  _space_group_symop_operation_xyz
  'x, y, z'

loop_
  _atom_site_type_symbol
  _atom_site_label
  _atom_site_symmetry_multiplicity
  _atom_site_fract_x
  _atom_site_fract_y
  _atom_site_fract_z
  _atom_site_occupancy
  Cu  Cu1       1.0  0.6155559589618419  0.4201139341245294  0.6631946271821221  1.0000
  Cu  Cu2       1.0  0.6527746821111221  0.3958468787899961  0.5392805935179794  1.0000
  Cu  Cu3       1.0  0.5930009286052215  0.2920735967814849  0.6359996371041134  1.0000
  Cu  Cu4       1.0  0.3714520566857544  0.0869311109355806  0.1667553741041701  1.0000
  Cu  Cu5       1.0  0.34935730616662397  0.10627406113695058  0.039552504768792594  1.0000
  Cu  Cu6       1.0  0.4184480607948089  0.20991953772911384  0.1353762235662614  1.0000
  Cu  Cu7       1.0  0.118708081411711  0.5812875332737589  0.8370614167114994  1.0000
  Cu  Cu8       1.0  0.15698178109217759  0.604732302715  0.9616609238709019  1.0000
  Cu  Cu9       1.0  0.0952643215630005  0.7084575406122438  0.8649395974343151  1.0000
  Cu  Cu10      1.0  0.8760242765997505  0.9150141795218258  0.3343306817321618  1.0000
  Cu  Cu11      1.0  0.8544166254765245  0.8947238488306439  0.4605894390867391  1.0000
  Cu  Cu12      1.0  0.9169028226324161  0.7903914918249981  0.3643173866141609  1.0000
  H   H1        1.0  0.7475554244693612  0.5266248138877998  0.6890469033771112  1.0000
  H   H2        1.0  0.7595023928578897  0.5207009237424315  0.5025363814395263  1.0000
  H   H3        1.0  0.4936052354725149  0.24653239039746205  0.7583889353324338  1.0000
  H   H4        1.0  0.4795264286353457  0.4369588058815311  0.7652712484942725  1.0000
  H   H5        1.0  0.6230200756780208  0.31853368104138713  0.42793483322379433  1.0000
  H   H6        1.0  0.6296017131486451  0.18197648090072951  0.5575714312434172  1.0000
  H   H7        1.0  0.2311598647216685  0.9856010933838205  0.1892048987362571  1.0000
  H   H8        1.0  0.24487222931475122  0.9794883434641407  0.0027914657368910013  1.0000
  H   H9        1.0  0.526937514702631  0.25377995605254006  0.2564249759342729  1.0000
  H   H10       1.0  0.5008537734375906  0.06446466922599109  0.2731099006778805  1.0000
  H   H11       1.0  0.3812659475654314  0.17994515163088917  0.9270539123666879  1.0000
  H   H12       1.0  0.38825656763965816  0.3189370641388507  0.05516647692235211  1.0000
  H   H13       1.0  0.2500829299651883  0.4756936357775388  0.8110616841956002  1.0000
  H   H14       1.0  0.26489774959661355  0.48016036384708377  0.9976539289395348  1.0000
  H   H15       1.0  0.9951181994426008  0.754499200724183  0.7419807656716132  1.0000
  H   H16       1.0  0.9811771540970897  0.5640127295888673  0.734326245552694  1.0000
  H   H17       1.0  0.125559248564393  0.6811379756899213  0.0732276712373618  1.0000
  H   H18       1.0  0.1275791327542848  0.8183187291494392  0.9441960099266495  1.0000
  H   H19       1.0  0.7372700964346777  0.017218691081936296  0.3114568109758196  1.0000
  H   H20       1.0  0.7500170234486347  0.020863672934950696  0.4981044295594543  1.0000
  H   H21       1.0  0.020778273234711295  0.7463331530310526  0.24275036604689862  1.0000
  H   H22       1.0  0.003998373013523301  0.9362794130373614  0.22902072576695787  1.0000
  H   H23       1.0  0.8864643297950467  0.8202321166788449  0.5724831427277692  1.0000
  H   H24       1.0  0.8826420755860126  0.6814841341829023  0.44404471586992866  1.0000
  C   C1        1.0  0.7407099277743612  0.5159637142784773  0.6436374167794625  1.0000
  C   C2        1.0  0.7772964354258817  0.5454620271468967  0.5961922340302621  1.0000
  C   C3        1.0  0.7464034246969503  0.5135902376454808  0.5478945719716108  1.0000
  C   C4        1.0  0.49998512326110506  0.29356620313644294  0.7516161196782605  1.0000
  C   C5        1.0  0.46410563296591073  0.3404789743173495  0.7836312072684493  1.0000
  C   C6        1.0  0.4919875128047552  0.39126605657082075  0.7543989593223159  1.0000
  C   C7        1.0  0.6241611154388877  0.29274084916092846  0.46719073229852637  1.0000
  C   C8        1.0  0.6277422892453686  0.23142197488038355  0.47383270722946946  1.0000
  C   C9        1.0  0.6290257350410968  0.22289943879992785  0.5336579988383932  1.0000
  C   C10       1.0  0.24341810668860833  0.993647066805316  0.1439125161323389  1.0000
  C   C11       1.0  0.214764888740298  0.9604965091489672  0.09598192674140898  1.0000
  C   C12       1.0  0.2513493772808175  0.989792957000553  0.0483040191761432  1.0000
  C   C13       1.0  0.510427762338594  0.20742470934392543  0.2521247920840466  1.0000
  C   C14       1.0  0.5369454743888014  0.15965965594857318  0.2865806314442665  1.0000
  C   C15       1.0  0.4978350507025696  0.11018707460883087  0.2599274338354647  1.0000
  C   C16       1.0  0.3843977555729765  0.20650976517183744  0.9659745146852003  1.0000
  C   C17       1.0  0.3841607116302157  0.26799806758207717  0.9719633093879808  1.0000
  C   C18       1.0  0.38626288734323583  0.2775780521713144  0.0317042336905118  1.0000
  C   C19       1.0  0.24405490005018754  0.48594869312707784  0.8565430047028215  1.0000
  C   C20       1.0  0.2808229818540938  0.45592690195874047  0.9038892326001643  1.0000
  C   C21       1.0  0.2510252470128336  0.48749353844816307  0.9523046678410269  1.0000
  C   C22       1.0  0.001548558471171201  0.7074620201402552  0.7486192166929939  1.0000
  C   C23       1.0  0.9650457181802637  0.6605460266293334  0.7163500499393294  1.0000
  C   C24       1.0  0.993448459803247  0.6097413832339666  0.7454671512060784  1.0000
  C   C25       1.0  0.125558418118672  0.7071077401241935  0.034089395971946594  1.0000
  C   C26       1.0  0.1268116448451337  0.7685101876559696  0.027717666576471293  1.0000
  C   C27       1.0  0.1281645424055426  0.7772857217210002  0.967944202016895  1.0000
  C   C28       1.0  0.7495391560010419  0.008752940777455398  0.35678942670871555  1.0000
  C   C29       1.0  0.7201652666291097  0.0408929207554891  0.40485372888276316  1.0000
  C   C30       1.0  0.7568822504954653  0.0111955847082257  0.4525454736713074  1.0000
  C   C31       1.0  0.006810195748606398  0.7928988838012356  0.24776497487458474  1.0000
  C   C32       1.0  0.03484146051868461  0.8407070779676998  0.21399053871400042  1.0000
  C   C33       1.0  0.9989229053660723  0.8904269065291148  0.24144786860834702  1.0000
  C   C34       1.0  0.8872044999914623  0.7937590751143018  0.5334882232692166  1.0000
  C   C35       1.0  0.8838341247350601  0.7323210630713315  0.5274296049561542  1.0000
  C   C36       1.0  0.8836487073054827  0.7227783572002336  0.4676684969113154  1.0000
  C   C37       1.0  0.16345923346745653  0.9062360345547162  0.10122267847912518  1.0000
  C   C38       1.0  0.12667353291210054  0.813798990061443  0.0722673773847262  1.0000
  C   C39       1.0  0.0864016410484894  0.8452962746093672  0.1611099195701087  1.0000
  C   C40       1.0  0.8321842211253027  0.5982624397054719  0.6022199030255706  1.0000
  C   C41       1.0  0.9132795918549378  0.6573420152192996  0.6629260458193329  1.0000
  C   C42       1.0  0.8797843495158377  0.6878895908618003  0.5724362949884636  1.0000
  C   C43       1.0  0.6679178166490801  0.09463467403931253  0.3996843207013967  1.0000
  C   C44       1.0  0.5893305171071505  0.15506830818549128  0.3396520370469815  1.0000
  C   C45       1.0  0.6290640625411754  0.18632228262504213  0.42913303739111097  1.0000
  C   C46       1.0  0.3344114288061562  0.4028007356390475  0.8976648727298909  1.0000
  C   C47       1.0  0.413394609519834  0.3436279257171008  0.8369476705362047  1.0000
  C   C48       1.0  0.38065528594964354  0.3126811384042084  0.9271239227874517  1.0000
  N   N1        1.0  0.6953673957381312  0.4681161268424815  0.5655925129210218  1.0000
  N   N2        1.0  0.6909059521322263  0.4705017169551552  0.6250332556624159  1.0000
  N   N3        1.0  0.5416093133401746  0.375914020809347  0.7089985536413935  1.0000
  N   N4        1.0  0.5456669809859919  0.31513555821469896  0.7063903363558026  1.0000
  N   N5        1.0  0.6256858477788116  0.2752485851597868  0.5608626326777681  1.0000
  N   N6        1.0  0.6244669056995279  0.31897232339814247  0.5193003187899521  1.0000
  N   N7        1.0  0.2981187163552903  0.03719578931022479  0.0667466130613477  1.0000
  N   N8        1.0  0.2939842292809089  0.038801367014023896  0.1262559149481604  1.0000
  N   N9        1.0  0.4504893584848801  0.12721656690639796  0.21369068591172183  1.0000
  N   N10       1.0  0.4594544305929276  0.18748049828575827  0.2078635724673816  1.0000
  N   N11       1.0  0.38866339257675975  0.2257046633770443  0.0594127475986355  1.0000
  N   N12       1.0  0.3855868250698861  0.1812027280560216  0.0183971437691994  1.0000
  N   N13       1.0  0.20018744295818183  0.5331570886348018  0.9347896267485895  1.0000
  N   N14       1.0  0.1949677282896474  0.5312959534180449  0.8753164811538169  1.0000
  N   N15       1.0  0.043840508879469615  0.6251107762982855  0.7910610006982565  1.0000
  N   N16       1.0  0.04796171207433281  0.6858756099758523  0.793907553404523  1.0000
  N   N17       1.0  0.12698644532119374  0.7250144333663824  0.9405356313336668  1.0000
  N   N18       1.0  0.1271183259556139  0.681103857800842  0.9818807486152609  1.0000
  N   N19       1.0  0.8044714392442887  0.9645384751448629  0.434010566033983  1.0000
  N   N20       1.0  0.8006614597444826  0.9638558745776391  0.37443457587393436  1.0000
  N   N21       1.0  0.9520274065632325  0.8735366490612578  0.2874599979737127  1.0000
  N   N22       1.0  0.9579745057297588  0.813037996090571  0.29233408039322484  1.0000
  N   N23       1.0  0.8876790344061547  0.7746501156349551  0.4400420728965386  1.0000
  N   N24       1.0  0.8880240984406882  0.8191188841154683  0.481126474254495  1.0000
  N   N25       1.0  0.1614387374801609  0.8667316793485328  0.0578390155475148  1.0000
  N   N26       1.0  0.09158865903728501  0.7996597052697111  0.12401763703240928  1.0000
  N   N27       1.0  0.12344097906118628  0.8985785684440869  0.1524172224484062  1.0000
  N   N28       1.0  0.8691590502489392  0.606201308106428  0.6547531074931214  1.0000
  N   N29       1.0  0.9150856007682294  0.7017545441313116  0.6246203779039163  1.0000
  N   N30       1.0  0.8408871859877608  0.6359599311220024  0.5579941034764744  1.0000
  N   N31       1.0  0.6274850343386406  0.10216608027043608  0.3481777101294341  1.0000
  N   N32       1.0  0.5935753345299588  0.20040814826742093  0.37716210476509104  1.0000
  N   N33       1.0  0.665298332319182  0.13377211709070738  0.44338112745082725  1.0000
  N   N34       1.0  0.3701902489562414  0.39487638995484525  0.8451786753291728  1.0000
  N   N35       1.0  0.41518438449553235  0.2990029325082162  0.8750738001294635  1.0000
  N   N36       1.0  0.34285843503992214  0.364696107798281  0.9416711856909785  1.0000
