data_image0
_chemical_formula_structural       CdH32C40N18O8
_chemical_formula_sum              "Cd1 H32 C40 N18 O8"
_cell_length_a       7.74073799245702
_cell_length_b       8.574751737574605
_cell_length_c       17.339756061906442
_cell_angle_alpha    78.94007717691711
_cell_angle_beta     83.58344238583531
_cell_angle_gamma    65.99016529677215

_space_group_name_H-M_alt    "P 1"
_space_group_IT_number       1

loop_
  _space_group_symop_operation_xyz
  'x, y, z'

loop_
  _atom_site_type_symbol
  _atom_site_label
  _atom_site_symmetry_multiplicity
  _atom_site_fract_x
  _atom_site_fract_y
  _atom_site_fract_z
  _atom_site_occupancy
  Cd  Cd1       1.0  0.9999998121763839  0.9999996807615474  1.402564372210464e-06  1.0000
  H   H1        1.0  0.2001283180078914  0.0992121629988745  0.2751734919130584  1.0000
  H   H2        1.0  0.7998738109214898  0.9007826093943551  0.7248266231091877  1.0000
  H   H3        1.0  0.964263068833972  0.3730029467575022  0.20696502038345702  1.0000
  H   H4        1.0  0.03573831877358198  0.6269905192846326  0.7930341063641962  1.0000
  H   H5        1.0  0.7599155579103325  0.5492631943996856  0.42880537776605365  1.0000
  H   H6        1.0  0.24007802584721824  0.4507302754661211  0.5711935669569428  1.0000
  H   H7        1.0  0.994511357660926  0.27446494948296163  0.49815198818716766  1.0000
  H   H8        1.0  0.005486313382370192  0.7255311074352947  0.5018470735734368  1.0000
  H   H9        1.0  0.6274665822164637  0.6199907699078722  0.23068227398561453  1.0000
  H   H10       1.0  0.37253257650862553  0.3800078631498139  0.769315884044488  1.0000
  H   H11       1.0  0.6070321758981481  0.724905270178894  0.3125544738644734  1.0000
  H   H12       1.0  0.39296846837232385  0.2750869041372611  0.6874448167204719  1.0000
  H   H13       1.0  0.7343630747387307  0.7567448355744943  0.10466662586649991  1.0000
  H   H14       1.0  0.26563366520883147  0.24325640844093505  0.8953331296724869  1.0000
  H   H15       1.0  0.06355543022868916  0.9578264266863314  0.199221050210113  1.0000
  H   H16       1.0  0.9364426054903418  0.042174852035827805  0.8007815199366777  1.0000
  H   H17       1.0  0.2969421364576946  0.9852065850558205  0.6517673498111023  1.0000
  H   H18       1.0  0.7030546014746193  0.014794673584717104  0.3482335578397624  1.0000
  H   H19       1.0  0.39481819692223763  0.8592152364928366  0.7877000323679584  1.0000
  H   H20       1.0  0.6051861601242977  0.14079247520952265  0.21229985908084356  1.0000
  H   H21       1.0  0.7385193343138354  0.3685973996545614  0.7143421395690126  1.0000
  H   H22       1.0  0.26147554634397363  0.6314051471114797  0.2856581595323888  1.0000
  H   H23       1.0  0.6394010700506384  0.4935126334262848  0.5777850709403012  1.0000
  H   H24       1.0  0.36059659607568056  0.5064925095608005  0.4222159869265241  1.0000
  H   H25       1.0  0.6932591081705439  0.3868496140213083  0.853800858598504  1.0000
  H   H26       1.0  0.3067454366346423  0.6131516188578915  0.14619850290920766  1.0000
  H   H27       1.0  0.7154163080020126  0.5808020001521116  0.8655527268431342  1.0000
  H   H28       1.0  0.2845845172160395  0.41920184554087575  0.1344482978453314  1.0000
  H   H29       1.0  0.46606395921043026  0.7744681778121036  0.9516476279322745  1.0000
  H   H30       1.0  0.533934643170916  0.2255407910211105  0.0483489717030139  1.0000
  H   H31       1.0  0.0444935442593675  0.5853949824611034  0.947334373996256  1.0000
  H   H32       1.0  0.9555065416521134  0.4146075422556876  0.05266451030574612  1.0000
  C   C1        1.0  0.2461313573152211  0.0067259219396831015  0.4300094605713198  1.0000
  C   C2        1.0  0.7538690981889715  0.9932727385121753  0.5699909360106474  1.0000
  C   C3        1.0  0.11073835749064635  0.1686325580858964  0.3910687342000259  1.0000
  C   C4        1.0  0.8892600558821117  0.8313647978709043  0.6089307397792396  1.0000
  C   C5        1.0  0.10218753010558856  0.19718049936806642  0.3086643133468813  1.0000
  C   C6        1.0  0.8978179447877109  0.8028155537265178  0.6913349304383871  1.0000
  C   C7        1.0  0.9717681287352563  0.351329989313939  0.2707824045782061  1.0000
  C   C8        1.0  0.02823065725308987  0.6486634804402769  0.7292168535132151  1.0000
  C   C9        1.0  0.8485529781262714  0.47924119361110945  0.31359987912059495  1.0000
  C   C10       1.0  0.15144302138592994  0.5207496872346126  0.686399196261334  1.0000
  C   C11       1.0  0.8583065143885092  0.45083987260061786  0.39549481808637665  1.0000
  C   C12       1.0  0.1416902294684022  0.5491522926585405  0.6045035174023283  1.0000
  C   C13       1.0  0.9881528353750825  0.2965967881740071  0.4342542185661173  1.0000
  C   C14       1.0  0.011847622144358623  0.703401857652743  0.5657450259039791  1.0000
  C   C15       1.0  0.7073445093854718  0.6459971946890873  0.2713873909689966  1.0000
  C   C16       1.0  0.2926555774124751  0.3539962732090843  0.7286118014505405  1.0000
  C   C17       1.0  0.8072736214415883  0.7918464204295931  0.1439817157623864  1.0000
  C   C18       1.0  0.19272311749834609  0.20815483089839398  0.8560186158325322  1.0000
  C   C19       1.0  0.9719543810248085  0.8929996772300229  0.19389482249066958  1.0000
  C   C20       1.0  0.02804569871975099  0.1069938418560241  0.8061084023204401  1.0000
  C   C21       1.0  0.40398366656667406  0.8193846431213033  0.5254987398361238  1.0000
  C   C22       1.0  0.5960158588494052  0.18061919711517052  0.47450177446828695  1.0000
  C   C23       1.0  0.46385528122074504  0.7479315704107492  0.6053711821914973  1.0000
  C   C24       1.0  0.5361408992390436  0.25207098181181214  0.3946296272939591  1.0000
  C   C25       1.0  0.3940436527458929  0.8502425676441805  0.6650774201630938  1.0000
  C   C26       1.0  0.6059558726701866  0.1497612725922934  0.3349230941413168  1.0000
  C   C27       1.0  0.44813372709866434  0.7785619468826256  0.7418592560444354  1.0000
  C   C28       1.0  0.5518646843799927  0.22144447320533805  0.2581404858732341  1.0000
  C   C29       1.0  0.5710887028615731  0.6048436339289653  0.7608286868458123  1.0000
  C   C30       1.0  0.42891361205352047  0.3951627732783365  0.2391702820002735  1.0000
  C   C31       1.0  0.6420564155734283  0.503801657477979  0.7009289770560019  1.0000
  C   C32       1.0  0.3579403223588784  0.4961996011625587  0.2990719305948559  1.0000
  C   C33       1.0  0.58939089687248  0.5741600262870891  0.6236718998260571  1.0000
  C   C34       1.0  0.41061048783334536  0.4258425111987664  0.376328070915946  1.0000
  C   C35       1.0  0.6231297233693595  0.5284125185000336  0.8455332974085081  1.0000
  C   C36       1.0  0.37687296416132915  0.4715900025046765  0.15446545554973307  1.0000
  C   C37       1.0  0.3853354103667498  0.7038337598567921  0.9403599293413337  1.0000
  C   C38       1.0  0.6146622597900802  0.29617135388008353  0.059638824301742895  1.0000
  C   C39       1.0  0.1771755531525302  0.6021356173278961  0.9375238110986074  1.0000
  C   C40       1.0  0.8228288047804712  0.39786303755584385  0.06247638846772931  1.0000
  N   N1        1.0  0.3580510062753249  0.8683754276985172  0.4002349166231767  1.0000
  N   N2        1.0  0.6419546524672838  0.13162322532919288  0.5997652172712763  1.0000
  N   N3        1.0  0.45996623066740494  0.7480625926991777  0.4617716224301915  1.0000
  N   N4        1.0  0.5400371971774832  0.2519412419691776  0.5382286948585817  1.0000
  N   N5        1.0  0.3219347436331077  0.5084979172472686  0.8947660246365673  1.0000
  N   N6        1.0  0.6780690568273683  0.4915020312185022  0.10523407676436143  1.0000
  N   N7        1.0  0.4535790998226473  0.5749236674477274  0.8974315250951791  1.0000
  N   N8        1.0  0.5464230302355161  0.42508014713900627  0.10256712969766112  1.0000
  N   N9        1.0  0.20912612701354752  0.7248512594838775  0.9667085885585536  1.0000
  N   N10       1.0  0.7908715461661587  0.2751538323153397  0.03328843691670611  1.0000
  N   N11       1.0  0.8024171140772365  0.7490530530553557  0.22264798881911227  1.0000
  N   N12       1.0  0.19758371404254402  0.25094172119391095  0.7773521918750177  1.0000
  N   N13       1.0  0.9066417913028603  0.8123982440556361  0.2556436242431843  1.0000
  N   N14       1.0  0.09335773600731305  0.18759653204966753  0.7443566221228224  1.0000
  N   N15       1.0  0.9146617834383262  0.8835976353080285  0.12368500574122271  1.0000
  N   N16       1.0  0.08533439500620693  0.11640493153963401  0.8763169558561117  1.0000
  N   N17       1.0  0.6937510275410188  0.9293479057927386  0.9134964561875734  1.0000
  N   N18       1.0  0.30625165595915854  0.07065464446218782  0.08650460099442372  1.0000
  O   O1        1.0  0.268045538933073  0.984657304482795  0.5095175614897158  1.0000
  O   O2        1.0  0.7319545449631518  0.0153452348591046  0.4904824749241641  1.0000
  O   O3        1.0  0.7295719632038598  0.05464165794251132  0.9281310840766184  1.0000
  O   O4        1.0  0.27042737332477895  0.9453596189236109  0.07187142039829551  1.0000
  O   O5        1.0  0.7429868415276246  0.7882380821889046  0.9613669303122024  1.0000
  O   O6        1.0  0.2570130554964152  0.21176187915752825  0.0386339441603099  1.0000
  O   O7        1.0  0.609851684215286  0.9500828715081655  0.8521213899934353  1.0000
  O   O8        1.0  0.3901509962620082  0.049919700684419914  0.1478813953563787  1.0000
