data_image0
_chemical_formula_structural       Zn4H38C62I2N16O2
_chemical_formula_sum              "Zn4 H38 C62 I2 N16 O2"
_cell_length_a       14.821840041462135
_cell_length_b       14.955094276813458
_cell_length_c       14.896541403482935
_cell_angle_alpha    110.2296852055893
_cell_angle_beta     106.97863070729996
_cell_angle_gamma    110.10802611779177

_space_group_name_H-M_alt    "P 1"
_space_group_IT_number       1

loop_
  _space_group_symop_operation_xyz
  'x, y, z'

loop_
  _atom_site_type_symbol
  _atom_site_label
  _atom_site_symmetry_multiplicity
  _atom_site_fract_x
  _atom_site_fract_y
  _atom_site_fract_z
  _atom_site_occupancy
  Zn  Zn1       1.0  0.015383041068375302  0.6435936871728035  0.15153477266841267  1.0000
  Zn  Zn2       1.0  0.0024192599988878956  0.37131114505489654  0.8682399737394281  1.0000
  Zn  Zn3       1.0  0.13915573579347304  0.6352421469055402  0.9973305753224867  1.0000
  Zn  Zn4       1.0  0.8730346231130215  0.3699696547032333  0.011888897448699476  1.0000
  H   H1        1.0  0.954354366867925  0.8170485743511975  0.5437034724588163  1.0000
  H   H2        1.0  0.530136019541807  0.33266580595315526  0.046643585927675785  1.0000
  H   H3        1.0  0.6949299334502828  0.14588444664886424  0.5312055593555132  1.0000
  H   H4        1.0  0.33163985633188287  0.11302594926393542  0.44435521099546105  1.0000
  H   H5        1.0  0.5362253180729084  0.9899749010863914  0.3613069508471798  1.0000
  H   H6        1.0  0.4911600147289121  0.270139264304369  0.6144100457761186  1.0000
  H   H7        1.0  0.04955181106353731  0.3162303144194709  0.3300367782825121  1.0000
  H   H8        1.0  0.2676694063643695  0.6664807250619873  0.6780582981641461  1.0000
  H   H9        1.0  0.05333489761960663  0.31616442965594166  0.4948737690016643  1.0000
  H   H10       1.0  0.2632557127409997  0.6667240680518062  0.5126361914877438  1.0000
  H   H11       1.0  0.9999710422629563  0.8287053462122744  0.8230682820340509  1.0000
  H   H12       1.0  0.17354455389421025  0.19467983950789863  0.7034122626361423  1.0000
  H   H13       1.0  0.713431185229048  0.9076266296705098  0.8708621192316957  1.0000
  H   H14       1.0  0.8437628381994317  0.3536189840176505  0.666021616526095  1.0000
  H   H15       1.0  0.20964021114514259  0.899985249654918  0.3707437220605955  1.0000
  H   H16       1.0  0.9790771788769919  0.9737130454149394  0.793754969543834  1.0000
  H   H17       1.0  0.7332504877532318  0.7614899232167144  0.8989672751561957  1.0000
  H   H18       1.0  0.21393629789029234  0.6739895577218248  0.8139853667958976  1.0000
  H   H19       1.0  0.013922485855758303  0.3195970533722346  0.1693321741694264  1.0000
  H   H20       1.0  0.682806450620163  0.32977753216319167  0.08680587689828927  1.0000
  H   H21       1.0  0.36717849539506636  0.6691669771878139  0.15216712948791422  1.0000
  H   H22       1.0  0.04253658871179769  0.3186681582862149  0.6489605540020735  1.0000
  H   H23       1.0  0.77602524762235  0.6452339724673806  0.4253774198957533  1.0000
  H   H24       1.0  0.19321755323187523  0.6750169008708085  0.35312240764547215  1.0000
  H   H25       1.0  0.8466943325395918  0.6838776659439461  0.24332557777471941  1.0000
  H   H26       1.0  0.1744829742042526  0.3151472306632144  0.9960908466807938  1.0000
  H   H27       1.0  0.9877768712459628  0.6633785201600801  0.8159004411692055  1.0000
  H   H28       1.0  0.8002842920553308  0.10998552417695623  0.9724642471596998  1.0000
  H   H29       1.0  0.9991849878450341  0.9662360834875869  0.49749847292279303  1.0000
  H   H30       1.0  0.10614176376426343  0.01872193194581939  0.7053718970609922  1.0000
  H   H31       1.0  0.8999111403199224  0.7441603623604749  0.14929860502962822  1.0000
  H   H32       1.0  0.9667378581913229  0.18473412691772492  0.7143901467948414  1.0000
  H   H33       1.0  0.3173357732420357  0.3688264436445293  0.8724512718658419  1.0000
  H   H34       1.0  0.6822577026997791  0.7751906147311802  0.22024181598180825  1.0000
  H   H35       1.0  0.3284830161996624  0.1919803408400682  0.04631703365188138  1.0000
  H   H36       1.0  0.8612977213998931  0.945631017305182  0.33617643392317137  1.0000
  H   H37       1.0  0.18429026450488104  0.017536199145858654  0.8776601482711474  1.0000
  H   H38       1.0  0.5100671738211988  0.6541371502890954  0.25939164302101864  1.0000
  C   C1        1.0  0.8978552848279551  0.7048831029998793  0.9956576626443979  1.0000
  C   C2        1.0  0.2075511561254473  0.1937244454680425  0.7784763651370316  1.0000
  C   C3        1.0  0.7943510513777243  0.7120760422744681  0.4071789391093862  1.0000
  C   C4        1.0  0.28806068216118774  0.2915437040781086  0.8731822759719707  1.0000
  C   C5        1.0  0.7168003551898324  0.6991582201398857  0.3154988750616995  1.0000
  C   C6        1.0  0.3326439320181152  0.29176460759465767  0.970566907599036  1.0000
  C   C7        1.0  0.741109676022923  0.7855343272917423  0.2926285352592118  1.0000
  C   C8        1.0  0.2945103551134239  0.19219422919959328  0.9708119351500245  1.0000
  C   C9        1.0  0.8425912969136462  0.8808438995073898  0.35723102887004643  1.0000
  C   C10       1.0  0.21365580156214753  0.09419427558471942  0.8757944669886089  1.0000
  C   C11       1.0  0.9201166940677157  0.8916964075621224  0.44665667075054255  1.0000
  C   C12       1.0  0.9036152821132292  0.12666711778401657  0.8078903079470978  1.0000
  C   C13       1.0  0.1702103353921913  0.09462338941798978  0.7793646778838268  1.0000
  C   C14       1.0  0.513921593034155  0.5826747744960129  0.21163487937180767  1.0000
  C   C15       1.0  0.5265462708282129  0.4030875821560755  0.09682552339392467  1.0000
  C   C16       1.0  0.8083725985895998  0.34784769513252917  0.7196504857709916  1.0000
  C   C17       1.0  0.2290969150679487  0.8780223509977034  0.30415971883971343  1.0000
  C   C18       1.0  0.4167879298737348  0.48729259645847384  0.12676403731897082  1.0000
  C   C19       1.0  0.6240052497446484  0.5007399407418731  0.17527611405002835  1.0000
  C   C20       1.0  0.42464610635794753  0.3949276234922224  0.06925279278647174  1.0000
  C   C21       1.0  0.6163866718354571  0.5921016318788617  0.23572338148382263  1.0000
  C   C22       1.0  0.6156110372639958  0.1404981577767117  0.5112003221498542  1.0000
  C   C23       1.0  0.6985198582626141  0.2966385271191001  0.6947482350085964  1.0000
  C   C24       1.0  0.4115209984514577  0.12004638819421833  0.46356377559782663  1.0000
  C   C25       1.0  0.5258968946404821  0.052205372294260075  0.4153109883040714  1.0000
  C   C26       1.0  0.5015210083743327  0.20867196713528097  0.5595784674023394  1.0000
  C   C27       1.0  0.4213058800746553  0.03810612211398738  0.3915715949012297  1.0000
  C   C28       1.0  0.6048389546959642  0.21833703057180293  0.5871864405312268  1.0000
  C   C29       1.0  0.09848808231006252  0.3938029225517425  0.4061911368001675  1.0000
  C   C30       1.0  0.21896307230161227  0.5890275780979479  0.6016947989145508  1.0000
  C   C31       1.0  0.10052825840088529  0.3937829486715644  0.5000426583341665  1.0000
  C   C32       1.0  0.21671371881542006  0.5890833218577852  0.5077263939347392  1.0000
  C   C33       1.0  0.15589932365137574  0.4922797391144443  0.5992020848727366  1.0000
  C   C34       1.0  0.3246136562942611  0.9363171275565493  0.3011129209071088  1.0000
  C   C35       1.0  0.15112511367603793  0.4922966653626873  0.40639565132884325  1.0000
  C   C36       1.0  0.9352903509883961  0.8440437695076782  0.8316428699874624  1.0000
  C   C37       1.0  0.7765250860246695  0.8904359782236  0.8600211237879524  1.0000
  C   C38       1.0  0.9244518630223054  0.9266569368239813  0.8158200924524196  1.0000
  C   C39       1.0  0.7868180649871095  0.8070015087351335  0.8750759563400126  1.0000
  C   C40       1.0  0.1686045358268729  0.5872689018240962  0.787236508990546  1.0000
  C   C41       1.0  0.050759559577883806  0.4073683160089487  0.19939057293698434  1.0000
  C   C42       1.0  0.8487050915102543  0.9557240274084007  0.8358422038579223  1.0000
  C   C43       1.0  0.8708308624751596  0.786375541530859  0.8674335046527094  1.0000
  C   C44       1.0  0.7368152513146101  0.4167909403858587  0.12176714040352019  1.0000
  C   C45       1.0  0.13995903378432936  0.4949984792715085  0.6922095060690695  1.0000
  C   C46       1.0  0.30461900706298906  0.5834050613402083  0.10770109273079953  1.0000
  C   C47       1.0  0.08108151986508719  0.40637187189085483  0.7030715204506779  1.0000
  C   C48       1.0  0.1426573386654866  0.5884109468560156  0.29295685896765633  1.0000
  C   C49       1.0  0.8203163324481866  0.5971528550751302  0.20117450074683083  1.0000
  C   C50       1.0  0.2067185844508117  0.40257039465709  0.026923382748734168  1.0000
  C   C51       1.0  0.7037771763971107  0.3184725209829792  0.7968689451847909  1.0000
  C   C52       1.0  0.3039313228416844  0.8669008935858783  0.19651031111611422  1.0000
  C   C53       1.0  0.9637878446935847  0.6717762831973532  0.8793034827202538  1.0000
  C   C54       1.0  0.8347232557085605  0.12667972181519338  0.92115024299887  1.0000
  C   C55       1.0  0.901674253311633  0.7186861943985647  0.9065077453496786  1.0000
  C   C56       1.0  0.12392859680426235  0.49553611720082813  0.3053232219426152  1.0000
  C   C57       1.0  0.8566450254363718  0.05980555396582323  0.8480968509864159  1.0000
  C   C58       1.0  0.8637433578964108  0.748771493994596  0.07497135931077291  1.0000
  C   C59       1.0  0.9336927522474526  0.10882214752935235  0.7214238153459436  1.0000
  C   C60       1.0  0.724666423927282  0.5065766633885573  0.1748013730730025  1.0000
  C   C61       1.0  0.314710782071991  0.48967679127778757  0.09319439382375097  1.0000
  C   C62       1.0  0.8950127202213383  0.8078132625352481  0.47242115532917267  1.0000
  I   I1        1.0  0.5749746714894429  0.26650049737202863  0.8309506507641021  1.0000
  I   I2        1.0  0.39442620371242043  0.8851897462749959  0.11401989556367213  1.0000
  N   N1        1.0  0.9556434050725502  0.6540102794831172  0.017022877320315166  1.0000
  N   N2        1.0  0.0826646311159394  0.5570343575973027  0.18877178606974357  1.0000
  N   N3        1.0  0.8817559365842629  0.5632907320758916  0.1640443312203105  1.0000
  N   N4        1.0  0.1396870455965598  0.442245218884537  0.0025289398554520577  1.0000
  N   N5        1.0  0.8082490842366568  0.37593545100174436  0.8750100005608561  1.0000
  N   N6        1.0  0.20548995816848506  0.7762044647889751  0.14279456160113574  1.0000
  N   N7        1.0  0.9955480801871914  0.6346131703674088  0.9469419940169107  1.0000
  N   N8        1.0  0.867360481565129  0.22527874635564876  0.9258085080229679  1.0000
  N   N9        1.0  0.9101568251466434  0.2258377315127262  0.8575675716078311  1.0000
  N   N10       1.0  0.8727959644494308  0.39396662645435737  0.8266108838588128  1.0000
  N   N11       1.0  0.15919992372480615  0.7831161659774396  0.2105102419538199  1.0000
  N   N12       1.0  0.1296433617474619  0.5557670979907386  0.8486426878068019  1.0000
  N   N13       1.0  0.026036211435737807  0.44549021269310873  0.13117222209318416  1.0000
  N   N14       1.0  0.8295533305985574  0.4505361844217078  0.1145638533498074  1.0000
  N   N15       1.0  0.1998469294291851  0.5534462291703334  0.05238027545896533  1.0000
  N   N16       1.0  0.0752976822578972  0.44327018189184025  0.7963050368214016  1.0000
  O   O1        1.0  0.8056600199177524  0.7907899106413794  0.06991635823700915  1.0000
  O   O2        1.0  0.9239810253281392  0.023478428470831023  0.6582539607341575  1.0000
