data_image0
_chemical_formula_structural       La2H34C34N2O14
_chemical_formula_sum              "La2 H34 C34 N2 O14"
_cell_length_a       10.002410746749156
_cell_length_b       10.693122471628294
_cell_length_c       10.734811075082336
_cell_angle_alpha    64.39473285486926
_cell_angle_beta     65.46593956268116
_cell_angle_gamma    67.21703449714632

_space_group_name_H-M_alt    "P 1"
_space_group_IT_number       1

loop_
  _space_group_symop_operation_xyz
  'x, y, z'

loop_
  _atom_site_type_symbol
  _atom_site_label
  _atom_site_symmetry_multiplicity
  _atom_site_fract_x
  _atom_site_fract_y
  _atom_site_fract_z
  _atom_site_occupancy
  La  La1       1.0  0.7150978471742135  0.9898869193674715  0.4925534270780717  1.0000
  La  La2       1.0  0.2849004123411163  0.010109381069263202  0.5074433959434617  1.0000
  H   H1        1.0  0.48445848328627517  0.4045262235467321  0.6650372128429893  1.0000
  H   H2        1.0  0.5155414546030315  0.5954636820657059  0.3349664097225187  1.0000
  H   H3        1.0  0.31732936774564285  0.6493501521718059  0.6647965257815399  1.0000
  H   H4        1.0  0.6826653832025046  0.35063865952986356  0.335208602457122  1.0000
  H   H5        1.0  0.9800751876110712  0.5596255572647238  0.5884142770052988  1.0000
  H   H6        1.0  0.019927162822192247  0.4403803418464206  0.41156844632200784  1.0000
  H   H7        1.0  0.14780679146943504  0.3150927936512602  0.5874181345204974  1.0000
  H   H8        1.0  0.8521928327425101  0.6849109601838919  0.4125674832325004  1.0000
  H   H9        1.0  0.27950536118443386  0.3914328794507398  0.1340867131224783  1.0000
  H   H10       1.0  0.7204879552219694  0.6085731364633559  0.8659170780464793  1.0000
  H   H11       1.0  0.7372292083919733  0.3761405635666152  0.07193612191012028  1.0000
  H   H12       1.0  0.2627594248163876  0.623866512630265  0.9280689806915703  1.0000
  H   H13       1.0  0.8911591081136906  0.11175056126533175  0.08405272280388244  1.0000
  H   H14       1.0  0.10884919427609677  0.8882447672302121  0.9159500389134722  1.0000
  H   H15       1.0  0.08722273975811848  0.18745469072238308  0.9111720938979604  1.0000
  H   H16       1.0  0.9127747430019469  0.8125481180910725  0.08883151345147411  1.0000
  H   H17       1.0  0.2741431378531516  0.1003786491169265  0.92076974279739  1.0000
  H   H18       1.0  0.725860023547206  0.899631669016834  0.07922659264077946  1.0000
  H   H19       1.0  0.04355761238782213  0.31989483215140524  0.07463678269203909  1.0000
  H   H20       1.0  0.9564361246207438  0.6801057842149377  0.9253645355662529  1.0000
  H   H21       1.0  0.20623449156501295  0.350695567003612  0.9218623521992344  1.0000
  H   H22       1.0  0.7937615117588878  0.6493126163135727  0.07814134466237738  1.0000
  H   H23       1.0  0.22875668496197224  0.22965131651770324  0.0930737922666296  1.0000
  H   H24       1.0  0.7712352678051176  0.770351499838256  0.9069346988004058  1.0000
  H   H25       1.0  0.13704418364126533  0.9223874338897816  0.3126231442705957  1.0000
  H   H26       1.0  0.8629666636666113  0.0776186508221315  0.6873767794990685  1.0000
  H   H27       1.0  0.29657517678248263  0.9780643227719708  0.17177723850252857  1.0000
  H   H28       1.0  0.703433592161204  0.0219416897247982  0.8282151183518139  1.0000
  H   H29       1.0  0.33081902642921085  0.7107491242359245  0.25518699132445016  1.0000
  H   H30       1.0  0.6691898628446253  0.2892559121944842  0.7448178548227206  1.0000
  H   H31       1.0  0.34127882953478667  0.7898078944847595  0.06913825004066619  1.0000
  H   H32       1.0  0.658724472807677  0.2101895809954399  0.9308673344083047  1.0000
  H   H33       1.0  0.1730642198520371  0.7399718357104633  0.20093845451453515  1.0000
  H   H34       1.0  0.8269391907766136  0.2600289249193608  0.7990740472295813  1.0000
  C   C1        1.0  0.4381942074110014  0.20813980933790793  0.6056592896619223  1.0000
  C   C2        1.0  0.5618019464802799  0.7918521797948017  0.3943383385603171  1.0000
  C   C3        1.0  0.3289103836375702  0.3467318396305643  0.6215096599496306  1.0000
  C   C4        1.0  0.6710900972986665  0.653260198048322  0.37849096825711104  1.0000
  C   C5        1.0  0.3738453549355114  0.43954657763084987  0.6481392242566599  1.0000
  C   C6        1.0  0.6261524128806786  0.5604433073963476  0.35186336500298415  1.0000
  C   C7        1.0  0.2810153512444273  0.5758635066209195  0.6474770920048913  1.0000
  C   C8        1.0  0.7189832502654171  0.4241274385222624  0.3525228583426667  1.0000
  C   C9        1.0  0.14079954986715396  0.6208537009415024  0.6213022248953168  1.0000
  C   C10       1.0  0.8592003508329356  0.37914473447860797  0.37869118704760035  1.0000
  C   C11       1.0  0.09130579604767769  0.5246990567169902  0.6041591569198986  1.0000
  C   C12       1.0  0.9086924514236824  0.475301504935729  0.3958320941039517  1.0000
  C   C13       1.0  0.1850065474486726  0.3889262326182177  0.6031852010363679  1.0000
  C   C14       1.0  0.8149933150048979  0.6110764787692701  0.39680450565443  1.0000
  C   C15       1.0  0.9518528954032419  0.22670787028827277  0.39617138611060915  1.0000
  C   C16       1.0  0.048146939790477544  0.7732906020103344  0.6038266926962167  1.0000
  C   C17       1.0  0.5204227977628975  0.22906737095049579  0.23387681137339913  1.0000
  C   C18       1.0  0.47957863931176115  0.7709332584585836  0.7661206564731416  1.0000
  C   C19       1.0  0.5095018790176127  0.3700673234087759  0.11398213113942997  1.0000
  C   C20       1.0  0.49049392431117417  0.6299376263886886  0.8860211820365009  1.0000
  C   C21       1.0  0.3753693733567688  0.4398804566363592  0.07406331778738463  1.0000
  C   C22       1.0  0.6246256486834625  0.5601234035423275  0.9259389008095128  1.0000
  C   C23       1.0  0.6337893660744243  0.43143336295914747  0.039526023209170126  1.0000
  C   C24       1.0  0.3662039372307008  0.5685726603306519  0.9604787013325692  1.0000
  C   C25       1.0  0.960574159568097  0.027981811463448004  0.15420742873887153  1.0000
  C   C26       1.0  0.03943278023968588  0.9720145713142475  0.8457935275060963  1.0000
  C   C27       1.0  0.1594986373851697  0.147949248932207  0.98118888152343  1.0000
  C   C28       1.0  0.8405007641051088  0.8520546302898565  0.018812603566836016  1.0000
  C   C29       1.0  0.1596711854529431  0.26905201211657465  0.020203654154776984  1.0000
  C   C30       1.0  0.8403268010502317  0.7309529508904333  0.9797997589542291  1.0000
  C   C31       1.0  0.20388084348703472  0.9310522590237867  0.19968197664913837  1.0000
  C   C32       1.0  0.7961256123268187  0.06895806786073419  0.8003131086294746  1.0000
  C   C33       1.0  0.2656548341978394  0.7845419444357515  0.17910242581037042  1.0000
  C   C34       1.0  0.7343494625295649  0.2154598468072564  0.820903703530533  1.0000
  N   N1        1.0  0.1043558795400585  0.0329662422121828  0.1097867625451272  1.0000
  N   N2        1.0  0.8956495939328305  0.9670355076935451  0.8902133498392361  1.0000
  O   O1        1.0  0.5666428140050287  0.17213740057870544  0.6255894898990207  1.0000
  O   O2        1.0  0.4333461938537582  0.8278481925214436  0.37442107174434375  1.0000
  O   O3        1.0  0.40374841743758333  0.13110953084319021  0.5647585240829757  1.0000
  O   O4        1.0  0.5962501468830441  0.8688899441076645  0.43523121564199135  1.0000
  O   O5        1.0  0.08405115973108933  0.19418951401630116  0.4072496627829025  1.0000
  O   O6        1.0  0.9159519043697487  0.8058090039115698  0.5927518327282685  1.0000
  O   O7        1.0  0.8928186296515079  0.13792799158653676  0.4012068481295969  1.0000
  O   O8        1.0  0.1071809138381782  0.8620672988222465  0.5987973806010062  1.0000
  O   O9        1.0  0.6314568278538674  0.18397180559535536  0.28476255298284053  1.0000
  O   O10       1.0  0.36854308489019166  0.8160223686087632  0.7152364309577594  1.0000
  O   O11       1.0  0.4186517170513042  0.16377234747110242  0.2762500745638476  1.0000
  O   O12       1.0  0.5813551548314136  0.8362249818701528  0.7237346588971719  1.0000
  O   O13       1.0  0.9044159244065143  0.9361920021566306  0.26736320677093767  1.0000
  O   O14       1.0  0.0955929472327526  0.06380544365396898  0.7326346938420869  1.0000
