data_image0
_chemical_formula_structural       Zr6H28C56S10O42
_chemical_formula_sum              "Zr6 H28 C56 S10 O42"
_cell_length_a       16.449238865743812
_cell_length_b       16.447846554343624
_cell_length_c       16.51415633030313
_cell_angle_alpha    62.0888385190756
_cell_angle_beta     59.8721823823441
_cell_angle_gamma    60.26006447009806

_space_group_name_H-M_alt    "P 1"
_space_group_IT_number       1

loop_
  _space_group_symop_operation_xyz
  'x, y, z'

loop_
  _atom_site_type_symbol
  _atom_site_label
  _atom_site_symmetry_multiplicity
  _atom_site_fract_x
  _atom_site_fract_y
  _atom_site_fract_z
  _atom_site_occupancy
  Zr  Zr1       1.0  0.8874758802702161  0.9035175209898938  0.6000271602348946  1.0000
  Zr  Zr2       1.0  0.10860566923544462  0.10614299776209189  0.3979533723931041  1.0000
  Zr  Zr3       1.0  0.10180716387744576  0.8977928531729233  0.6060544508138931  1.0000
  Zr  Zr4       1.0  0.8939649468003095  0.11218528177126086  0.3923088255031359  1.0000
  Zr  Zr5       1.0  0.1074177239227863  0.8957239132004136  0.3893764887513457  1.0000
  Zr  Zr6       1.0  0.8885861461923027  0.1140571000985845  0.6088051760683085  1.0000
  H   H1        1.0  0.0784071463388046  0.7556356760201551  0.575192822108768  1.0000
  H   H2        1.0  0.090175880988383  0.08191725577941612  0.24989579396709868  1.0000
  H   H3        1.0  0.08056681638922203  0.08655733255032066  0.5899884406331353  1.0000
  H   H4        1.0  0.7427839073617193  0.09543883028640485  0.5813119264885032  1.0000
  H   H5        1.0  0.8333692113843936  0.6780641122320648  0.8667387355630962  1.0000
  H   H6        1.0  0.11922937200768045  0.3747087638879592  0.17387158181229978  1.0000
  H   H7        1.0  0.8039079479244503  0.46163238127356004  0.6715960535037196  1.0000
  H   H8        1.0  0.17185059719948004  0.5683131973692641  0.3049955193003484  1.0000
  H   H9        1.0  0.45426483178368215  0.8109612747666758  0.06334114854794139  1.0000
  H   H10       1.0  0.5634656637226526  0.17711205657343507  0.9555803068708283  1.0000
  H   H11       1.0  0.16414970423091546  0.8111790326175524  0.9422038215286219  1.0000
  H   H12       1.0  0.8101945795577592  0.1787738482353233  0.07632630168887282  1.0000
  H   H13       1.0  0.43434215639976503  0.583189868537673  0.6724350984377877  1.0000
  H   H14       1.0  0.5836620122783103  0.4476379407140669  0.3053791867149513  1.0000
  H   H15       1.0  0.44378221202786244  0.16690690130286615  0.3131521207093613  1.0000
  H   H16       1.0  0.5738820814228238  0.8215130934570779  0.6628858378652608  1.0000
  H   H17       1.0  0.24556457784583322  0.496493092700881  0.971667456705532  1.0000
  H   H18       1.0  0.1414155187806614  0.6016280553247598  0.9976673461393162  1.0000
  H   H19       1.0  0.17727882234387965  0.5000545416198391  0.09447860409316888  1.0000
  H   H20       1.0  0.22048094447161756  0.5315110953179315  0.8469452062889856  1.0000
  H   H21       1.0  0.17911707989861012  0.6206549415648935  0.7488423984374251  1.0000
  H   H22       1.0  0.17174413911800446  0.6592085691439565  0.8351501935676069  1.0000
  H   H23       1.0  0.7884883577542466  0.47499185147216866  0.9886565500573852  1.0000
  H   H24       1.0  0.7589312782293474  0.5030241588793843  0.09348262435340617  1.0000
  H   H25       1.0  0.7294595501721232  0.5983790108496408  0.9904891031457906  1.0000
  H   H26       1.0  0.9019327029614669  0.35127685326367  0.02606586316772317  1.0000
  H   H27       1.0  0.9511348667984051  0.25414148618618526  0.11634121378843079  1.0000
  H   H28       1.0  0.8335239691353846  0.34096043739124593  0.15333966522345582  1.0000
  C   C1        1.0  0.9938123269628175  0.742584371328718  0.48199878073862107  1.0000
  C   C2        1.0  0.28117531682499924  0.9888446243534761  0.2365705347716798  1.0000
  C   C3        1.0  0.9916040686317018  0.2779225273839004  0.5044667988445967  1.0000
  C   C4        1.0  0.7264503193086467  0.00926371790896501  0.772593041769795  1.0000
  C   C5        1.0  0.9859837486708043  0.7398606429151258  0.7628033963740675  1.0000
  C   C6        1.0  0.7307279443140686  0.0037724367715768355  0.4903781879136701  1.0000
  C   C7        1.0  0.01030765816064866  0.2694288126357734  0.2349424343618551  1.0000
  C   C8        1.0  0.27518039384214166  0.996402083831832  0.4975692016096998  1.0000
  C   C9        1.0  0.2740356227416356  0.7356586949552621  0.49465239692911916  1.0000
  C   C10       1.0  0.9903224100374363  0.9986696350050365  0.778275264045483  1.0000
  C   C11       1.0  0.7325803956541462  0.28400969516856384  0.49381159387710477  1.0000
  C   C12       1.0  0.995398262791454  0.0014510577449514761  0.22947207769863806  1.0000
  C   C13       1.0  0.9184058946635433  0.4312136617418716  0.5601002787626684  1.0000
  C   C14       1.0  0.056654061548755415  0.5989552162863135  0.4160259470262488  1.0000
  C   C15       1.0  0.986398073762366  0.3716435708998206  0.4986652505180801  1.0000
  C   C16       1.0  0.9908325656520203  0.6564778765854201  0.4796219221326651  1.0000
  C   C17       1.0  0.029310387488038693  0.5173441506234013  0.4448964308327632  1.0000
  C   C18       1.0  0.94354892493547  0.5148374928619506  0.529036929887525  1.0000
  C   C19       1.0  0.42812914157560994  0.9221106581167575  0.09355335332679009  1.0000
  C   C20       1.0  0.5909208954459116  0.06526209076536575  0.9257037088932235  1.0000
  C   C21       1.0  0.3728485207397297  0.9860832204818807  0.15070498038770827  1.0000
  C   C22       1.0  0.6437816659263691  0.003587393489141356  0.866369525539248  1.0000
  C   C23       1.0  0.5129155816041118  0.034637031639796645  0.00921538743310182  1.0000
  C   C24       1.0  0.508494108495391  0.9505236005542346  0.011990045686566565  1.0000
  C   C25       1.0  0.052378786728716986  0.9259552445743041  0.922197512702077  1.0000
  C   C26       1.0  0.9222923964938659  0.06420408676956403  0.0958815957480539  1.0000
  C   C27       1.0  0.9877733677906588  0.993795321777249  0.8703582102130056  1.0000
  C   C28       1.0  0.9894672937892109  0.9986142561510577  0.14532052946496082  1.0000
  C   C29       1.0  0.9449056672086086  0.03703324753252692  0.014985713680005093  1.0000
  C   C30       1.0  0.027840904658127462  0.9514038359929985  0.0049195900551524474  1.0000
  C   C31       1.0  0.41769648120897773  0.6023762865964458  0.5577685251936514  1.0000
  C   C32       1.0  0.6000218685242942  0.4280271436794365  0.42036063981876026  1.0000
  C   C33       1.0  0.36701337892654334  0.6515853145148398  0.4918953460947151  1.0000
  C   C34       1.0  0.6481964766870475  0.3763322175905871  0.4885572687401518  1.0000
  C   C35       1.0  0.516357811112037  0.510946459690544  0.4453715333171999  1.0000
  C   C36       1.0  0.5031944210163032  0.5213207374282549  0.5309940271393288  1.0000
  C   C37       1.0  0.0606304253659076  0.5926999242041974  0.8856815204529694  1.0000
  C   C38       1.0  0.8944356342332114  0.6274038978790986  0.894539555803611  1.0000
  C   C39       1.0  0.8845032864057103  0.543403892854059  0.9700203128249708  1.0000
  C   C40       1.0  0.9626844339933667  0.4824846424860142  0.010945146838231794  1.0000
  C   C41       1.0  0.9604883998420705  0.39151488345324026  0.08729909947862075  1.0000
  C   C42       1.0  0.08179993176383249  0.4017508950033673  0.12274724658752938  1.0000
  C   C43       1.0  0.10035342771349325  0.4770569006062004  0.03860571437586204  1.0000
  C   C44       1.0  0.04319687558478357  0.5168918224337702  0.9769902342176378  1.0000
  C   C45       1.0  0.9827505383704747  0.6505077925431524  0.8487343501992798  1.0000
  C   C46       1.0  0.016848290802421687  0.3553267986267699  0.14554757849476374  1.0000
  C   C47       1.0  0.4215626518101701  0.0575872649273635  0.4242019744249886  1.0000
  C   C48       1.0  0.5959726438277714  0.9310073701937899  0.5520392297739177  1.0000
  C   C49       1.0  0.36832563472375984  0.9936753656517399  0.4910491406208521  1.0000
  C   C50       1.0  0.646809225757252  0.9973429068683048  0.48763891770286705  1.0000
  C   C51       1.0  0.5144701956802178  0.9524861791878863  0.5279896060229632  1.0000
  C   C52       1.0  0.5053574973477737  0.03384359825241036  0.4459835518007863  1.0000
  C   C53       1.0  0.16996387552347872  0.521359377973795  0.024071884102788557  1.0000
  C   C54       1.0  0.16330524869651689  0.6014701487210419  0.827081223657565  1.0000
  C   C55       1.0  0.7855648762476617  0.5283924424622982  0.013166010048905684  1.0000
  C   C56       1.0  0.908131918144882  0.3323474117158085  0.0962081803239273  1.0000
  S   S1        1.0  0.07998827303260465  0.41826893448941155  0.4026039336330811  1.0000
  S   S2        1.0  0.8950419508380063  0.611924701753104  0.5734856127019298  1.0000
  S   S3        1.0  0.41979315791496663  0.07966772594656382  0.10593106674552633  1.0000
  S   S4        1.0  0.5992452753317037  0.9077414872676928  0.9132422390997162  1.0000
  S   S5        1.0  0.8960490153501084  0.0872178670598416  0.9240047264715299  1.0000
  S   S6        1.0  0.07893045044507122  0.9031826758164102  0.09380567480181418  1.0000
  S   S7        1.0  0.4249046199794788  0.5997099240130126  0.3966802175857609  1.0000
  S   S8        1.0  0.5924742879589215  0.43041727360409265  0.5817112816506337  1.0000
  S   S9        1.0  0.4215864654344513  0.903851957649117  0.57914985463092  1.0000
  S   S10       1.0  0.5960656224980666  0.08467869147432346  0.39704672447506784  1.0000
  O   O1        1.0  0.9233699057721337  0.7784902997178664  0.5519221725888601  1.0000
  O   O2        1.0  0.24569276176988802  0.058856531102556245  0.2723691862019563  1.0000
  O   O3        1.0  0.06495013620393307  0.23923154647238226  0.4373558173138504  1.0000
  O   O4        1.0  0.7588264692341797  0.9422403940933467  0.7338161946681014  1.0000
  O   O5        1.0  0.05323776475290755  0.7755574589268049  0.7322076482489307  1.0000
  O   O6        1.0  0.7640014232138269  0.07296342661790338  0.42463280313694435  1.0000
  O   O7        1.0  0.9380631757981417  0.2386960558462761  0.2706296763765437  1.0000
  O   O8        1.0  0.23857889701703516  0.930568940806154  0.5667761275538441  1.0000
  O   O9        1.0  0.2410220456576936  0.7664902539160608  0.42610835817149  1.0000
  O   O10       1.0  0.9230688632718511  0.07050842218712466  0.7442321589171  1.0000
  O   O11       1.0  0.7619085631380785  0.24978625705168164  0.5657599848434102  1.0000
  O   O12       1.0  0.06620096459231209  0.932877740673007  0.2602255640766629  1.0000
  O   O13       1.0  0.06104103829413524  0.931573235569097  0.7386856154228807  1.0000
  O   O14       1.0  0.7684104416880257  0.2444096396249975  0.42676871207960687  1.0000
  O   O15       1.0  0.9299563824737901  0.07338501946863826  0.26411781162024545  1.0000
  O   O16       1.0  0.2328413347671937  0.7701449775723435  0.5667217465616119  1.0000
  O   O17       1.0  0.9185678232051306  0.7765584763805363  0.725529672635865  1.0000
  O   O18       1.0  0.2373061872197297  0.06635468751950668  0.4337364678347128  1.0000
  O   O19       1.0  0.07832941595125217  0.23222923778902776  0.2715567197445665  1.0000
  O   O20       1.0  0.7625534225441296  0.9397888951280964  0.5602464923736008  1.0000
  O   O21       1.0  0.7585338443629579  0.08004891000837241  0.7366516672055068  1.0000
  O   O22       1.0  0.06630708073415549  0.7733058742023219  0.41684209866446037  1.0000
  O   O23       1.0  0.24307901858977496  0.923753167596793  0.2671290627229014  1.0000
  O   O24       1.0  0.9247012399162311  0.24195264489692656  0.5752242078960349  1.0000
  O   O25       1.0  0.8152636267601849  0.06999711910695086  0.5577298488323236  1.0000
  O   O26       1.0  0.05703923619455513  0.06314066738741535  0.5644581231175536  1.0000
  O   O27       1.0  0.06392396534509709  0.05966898330957805  0.32076776399989626  1.0000
  O   O28       1.0  0.05592907483546829  0.8265227492081165  0.5531579837487756  1.0000
  O   O29       1.0  0.1323483081932795  0.9569900817975565  0.4563217391725445  1.0000
  O   O30       1.0  0.9542667332470033  0.9624012642513835  0.45100170932590805  1.0000
  O   O31       1.0  0.9552898167770036  0.1365044828477409  0.4587135553122297  1.0000
  O   O32       1.0  0.9497215103130467  0.9639876098623363  0.6306812799904903  1.0000
  O   O33       1.0  0.8393580238412781  0.410217364287  0.6398125871889347  1.0000
  O   O34       1.0  0.1368892564877059  0.6190023236518911  0.33758548217831935  1.0000
  O   O35       1.0  0.4059981100439103  0.8437699201871496  0.11385712361531133  1.0000
  O   O36       1.0  0.6116038229537819  0.14478836956622138  0.9046461252356364  1.0000
  O   O37       1.0  0.12944349726271304  0.8463153780450983  0.8955779664475473  1.0000
  O   O38       1.0  0.8457828878563375  0.14419156185842044  0.12212225352457294  1.0000
  O   O39       1.0  0.3876277606018095  0.6288266825351557  0.6377280938449987  1.0000
  O   O40       1.0  0.6296535222146317  0.4011479429222008  0.34076010397150475  1.0000
  O   O41       1.0  0.39525921104304007  0.13332873736112566  0.34880187071356517  1.0000
  O   O42       1.0  0.6210918522830792  0.8564124222169484  0.6285926646803617  1.0000
