data_image0
_chemical_formula_structural       Sr4H24C28O16
_chemical_formula_sum              "Sr4 H24 C28 O16"
_cell_length_a       5.065291795085158
_cell_length_b       6.970155665316037
_cell_length_c       22.745860990710806
_cell_angle_alpha    89.99909844820162
_cell_angle_beta     90.00035705222606
_cell_angle_gamma    109.61121706631103

_space_group_name_H-M_alt    "P 1"
_space_group_IT_number       1

loop_
  _space_group_symop_operation_xyz
  'x, y, z'

loop_
  _atom_site_type_symbol
  _atom_site_label
  _atom_site_symmetry_multiplicity
  _atom_site_fract_x
  _atom_site_fract_y
  _atom_site_fract_z
  _atom_site_occupancy
  Sr  Sr1       1.0  0.793982035296871  0.20318802133183309  0.9752807954990675  1.0000
  Sr  Sr2       1.0  0.706019709873594  0.2968128427409766  0.47528404836355537  1.0000
  Sr  Sr3       1.0  0.20602081240065925  0.7968090452348521  0.02471744968520541  1.0000
  Sr  Sr4       1.0  0.2939766505685171  0.7031872722924889  0.5247181535727137  1.0000
  H   H1        1.0  0.13975159254606948  0.9125548894770362  0.8163767601116662  1.0000
  H   H2        1.0  0.36024401169194675  0.5874495998131621  0.3163741990853808  1.0000
  H   H3        1.0  0.8602408200300785  0.08744522682498262  0.18362456254101292  1.0000
  H   H4        1.0  0.6397582705448881  0.4125505133617152  0.6836275632145715  1.0000
  H   H5        1.0  0.15017968659027764  0.6609354982765511  0.7396640747955132  1.0000
  H   H6        1.0  0.34980046342551674  0.8390743796921997  0.2396629273100715  1.0000
  H   H7        1.0  0.8498135689764297  0.3390707108288496  0.2603359289218332  1.0000
  H   H8        1.0  0.6501966012490571  0.16092725836694652  0.7603397142634523  1.0000
  H   H9        1.0  0.4163279090642576  0.42369634516531113  0.7571568031247298  1.0000
  H   H10       1.0  0.0836664867901433  0.0763098128474482  0.25715742957096677  1.0000
  H   H11       1.0  0.5836653464929853  0.5763098640396578  0.242839243828783  1.0000
  H   H12       1.0  0.916327195488627  0.9236887797724835  0.7428447723671072  1.0000
  H   H13       1.0  0.6841952168833031  0.4507142933984839  0.8506425034271035  1.0000
  H   H14       1.0  0.8158055052944775  0.049300459763479396  0.3506444606811102  1.0000
  H   H15       1.0  0.3158104477314509  0.5492888654036818  0.14935222462106887  1.0000
  H   H16       1.0  0.1841881769842928  0.9506981328564521  0.6493577412569637  1.0000
  H   H17       1.0  0.17187012725484146  0.2886319367508605  0.8609885962847985  1.0000
  H   H18       1.0  0.3281326610719618  0.21136899323844463  0.3609902309714173  1.0000
  H   H19       1.0  0.8281382155358727  0.7113727443320811  0.13901140744667376  1.0000
  H   H20       1.0  0.6718662387701286  0.7886280744861552  0.639011531333516  1.0000
  H   H21       1.0  0.187851533893074  0.09279584021452791  0.8952682817661711  1.0000
  H   H22       1.0  0.3121546620573028  0.40720184037873264  0.3952671941443597  1.0000
  H   H23       1.0  0.8121527222714847  0.9072042723813922  0.10473172197345094  1.0000
  H   H24       1.0  0.6878476201774288  0.5927982728182783  0.6047336888747452  1.0000
  C   C1        1.0  0.5522574071222761  0.6873902715778681  0.8876112063986528  1.0000
  C   C2        1.0  0.9477442782252934  0.8126193629502153  0.387610321806058  1.0000
  C   C3        1.0  0.4477529095951026  0.3126144089371721  0.11238659913205855  1.0000
  C   C4        1.0  0.0522479955917063  0.18737618358515823  0.6123923197787919  1.0000
  C   C5        1.0  0.39739818214879824  0.8233796113300189  0.8782112598909894  1.0000
  C   C6        1.0  0.10259771791959339  0.6766217659578047  0.3782118698786122  1.0000
  C   C7        1.0  0.6026127000418952  0.17662202244407155  0.12178830420914011  1.0000
  C   C8        1.0  0.8974018861539079  0.323376824803546  0.621789892423152  1.0000
  C   C9        1.0  0.2581806225850373  0.8097750221033311  0.8233124169586646  1.0000
  C   C10       1.0  0.24180020513502137  0.6902397856223672  0.3233100769031553  1.0000
  C   C11       1.0  0.7418225026392021  0.19023118390812505  0.17668670748467016  1.0000
  C   C12       1.0  0.7581888250474337  0.30975728521831075  0.6766916853949285  1.0000
  C   C13       1.0  0.2637038767871189  0.6692186603954086  0.780872949516855  1.0000
  C   C14       1.0  0.23627900978230093  0.8307860962968763  0.2808738827788204  1.0000
  C   C15       1.0  0.7362999526653766  0.3307890686859807  0.21912485600203274  1.0000
  C   C16       1.0  0.7637119943310253  0.16921097393164794  0.7191274398802108  1.0000
  C   C17       1.0  0.4136839681680442  0.5349567089825983  0.790457977110599  1.0000
  C   C18       1.0  0.08631376352305145  0.9650582236117771  0.29045322095118564  1.0000
  C   C19       1.0  0.5863185915807777  0.4650525437919414  0.20953850948247071  1.0000
  C   C20       1.0  0.9136792145232561  0.0349388459824667  0.7095485413496405  1.0000
  C   C21       1.0  0.5582750817777934  0.5480783132398059  0.8429146223641059  1.0000
  C   C22       1.0  0.941722164361238  0.9519244323588654  0.3429192145772505  1.0000
  C   C23       1.0  0.4417352349364378  0.4519263673084239  0.1570818642453276  1.0000
  C   C24       1.0  0.0582740573164671  0.048071112963270914  0.6570821080890641  1.0000
  C   C25       1.0  0.7085029614200804  0.6859579727972616  0.9421610227799849  1.0000
  C   C26       1.0  0.7915001158456716  0.8140428229455878  0.4421634319569918  1.0000
  C   C27       1.0  0.2915065123004367  0.3140406149807689  0.05783546384351011  1.0000
  C   C28       1.0  0.2084975142969512  0.18595576842791667  0.5578387699838175  1.0000
  O   O1        1.0  0.8346606683355801  0.5557021735210911  0.9487344873253323  1.0000
  O   O2        1.0  0.6653524488004477  0.9443028580167904  0.4487369746873072  1.0000
  O   O3        1.0  0.16534556175354  0.44429793852905414  0.0512624389326817  1.0000
  O   O4        1.0  0.334648424974624  0.05569420907353621  0.5512652272594141  1.0000
  O   O5        1.0  0.723810045125667  0.8166949496578298  0.9835357191492594  1.0000
  O   O6        1.0  0.7761873082782741  0.6833037657784474  0.4835352186006575  1.0000
  O   O7        1.0  0.27619675043466424  0.1833021156734844  0.016462086397318405  1.0000
  O   O8        1.0  0.22380834793137444  0.3166948262293304  0.516466543698364  1.0000
  O   O9        1.0  0.374302047240363  0.9563268173945119  0.9179328763422777  1.0000
  O   O10       1.0  0.12569545132171095  0.5436756069276356  0.41793283864150527  1.0000
  O   O11       1.0  0.6256981222980399  0.043668726714386694  0.08206712740549452  1.0000
  O   O12       1.0  0.8743102133119719  0.45632755167540046  0.5820698029343279  1.0000
  O   O13       1.0  0.05992877381979869  0.1732676160087223  0.8848792964317058  1.0000
  O   O14       1.0  0.44006609431167476  0.32672754441139057  0.38488053153793805  1.0000
  O   O15       1.0  0.940073508409675  0.8267324972436042  0.11511938838527412  1.0000
  O   O16       1.0  0.5599315358298965  0.6732710469731701  0.615121230762455  1.0000
