data_image0
_chemical_formula_structural       Ho2H44C38N12O26
_chemical_formula_sum              "Ho2 H44 C38 N12 O26"
_cell_length_a       8.24237173156943
_cell_length_b       10.05764795915612
_cell_length_c       15.441
_cell_angle_alpha    92.8425504469063
_cell_angle_beta     92.31046922632447
_cell_angle_gamma    102.97518359276629

_space_group_name_H-M_alt    "P 1"
_space_group_IT_number       1

loop_
  _space_group_symop_operation_xyz
  'x, y, z'

loop_
  _atom_site_type_symbol
  _atom_site_label
  _atom_site_symmetry_multiplicity
  _atom_site_fract_x
  _atom_site_fract_y
  _atom_site_fract_z
  _atom_site_occupancy
  Ho  Ho1       1.0  0.049296137790669506  0.1482051983720609  0.287723030636279  1.0000
  Ho  Ho2       1.0  0.9507017146615695  0.8517940194593904  0.7122788407628988  1.0000
  H   H1        1.0  0.683382551481138  0.0578827213477808  0.2570040056316927  1.0000
  H   H2        1.0  0.3166158669867086  0.9421185408342935  0.7429966487315341  1.0000
  H   H3        1.0  0.7675716787411065  0.134141088265153  0.439817978757887  1.0000
  H   H4        1.0  0.23242467647318682  0.8658571073909869  0.5601831797764661  1.0000
  H   H5        1.0  0.5898873111869136  0.1681601047974723  0.3812722740234022  1.0000
  H   H6        1.0  0.4101090440273865  0.8318380908586746  0.6187282368845075  1.0000
  H   H7        1.0  0.6052718456263335  0.9957173254528014  0.3954291350159451  1.0000
  H   H8        1.0  0.3947245095879666  0.0042808702033383  0.6045713758919578  1.0000
  H   H9        1.0  0.3563309767164641  0.1781447132373515  0.4571664883187267  1.0000
  H   H10       1.0  0.6436600377605899  0.8218473493669265  0.5428388905602262  1.0000
  H   H11       1.0  0.5601863580390898  0.2891202424245947  0.5776340744746092  1.0000
  H   H12       1.0  0.4398057884691795  0.7108759088809293  0.42236887033245546  1.0000
  H   H13       1.0  0.48987488287455255  0.47595855668376436  0.6758056031657418  1.0000
  H   H14       1.0  0.5101154833879704  0.5240355502711296  0.3241972372944772  1.0000
  H   H15       1.0  0.21249899224351765  0.5333761882649455  0.6515966980805814  1.0000
  H   H16       1.0  0.7874913740190054  0.4666179186899484  0.3484041995002869  1.0000
  H   H17       1.0  0.9509208039244683  0.4749466031256731  0.5942101345301651  1.0000
  H   H18       1.0  0.049072839821747  0.5250505703551553  0.4057896373830303  1.0000
  H   H19       1.0  0.8922978817756262  0.3538740262143136  0.5032932619321784  1.0000
  H   H20       1.0  0.10769519595498171  0.6461211029158918  0.4967051365111601  1.0000
  H   H21       1.0  0.7744927804220723  0.776274685292023  0.259391149402056  1.0000
  H   H22       1.0  0.22550563804577456  0.22372657689005138  0.7406062668289267  1.0000
  H   H23       1.0  0.6047666244432294  0.5700998806707246  0.1735960417363742  1.0000
  H   H24       1.0  0.39523665094517213  0.4299013815113497  0.8264001837612797  1.0000
  H   H25       1.0  0.6398365497556782  0.5450688516498587  0.012555203625730394  1.0000
  H   H26       1.0  0.360169519299717  0.4549293440062812  0.9874416305626212  1.0000
  H   H27       1.0  0.8469247092014314  0.7268208215604588  0.9446493460510796  1.0000
  H   H28       1.0  0.1530831400997172  0.2731794184463041  0.0553482401105683  1.0000
  H   H29       1.0  0.08561410718112943  0.8888448079647446  0.9646027491397291  1.0000
  H   H30       1.0  0.9143910306519347  0.1111544098667068  0.035395393280104805  1.0000
  H   H31       1.0  0.13922455266313702  0.9881205185399011  0.0662632726650116  1.0000
  H   H32       1.0  0.8607820824078729  0.011879721466861799  0.9337355826196401  1.0000
  H   H33       1.0  0.3792141167593144  0.8330790116864791  0.2820093059372084  1.0000
  H   H34       1.0  0.6207835712950996  0.1669283835474644  0.717988940311308  1.0000
  H   H35       1.0  0.1616272263601388  0.6280684647446435  0.2275636736592759  1.0000
  H   H36       1.0  0.8383726071467381  0.3719379083139813  0.7724345857405482  1.0000
  H   H37       1.0  0.1191024613585796  0.5677008352153194  0.0666686417238935  1.0000
  H   H38       1.0  0.8809020282599604  0.432300426966755  0.9333308480359008  1.0000
  H   H39       1.0  0.2998589864625885  0.7159694084566794  0.9660297823268778  1.0000
  H   H40       1.0  0.700144937140344  0.2840298093747791  0.03396833396306681  1.0000
  H   H41       1.0  0.5247513719935455  0.875451244861992  0.943900644621401  1.0000
  H   H42       1.0  0.47525348283171104  0.124546950794155  0.0560968110635045  1.0000
  H   H43       1.0  0.6582692263293168  0.961040028020065  0.034083636233127386  1.0000
  H   H44       1.0  0.3417346972736084  0.038959189811386394  0.9659138324303669  1.0000
  C   C1        1.0  0.6764619886179875  0.0996355162846996  0.3852739105854113  1.0000
  C   C2        1.0  0.32353436659630574  0.9003626793714403  0.6147266003224914  1.0000
  C   C3        1.0  0.17635272265881247  0.2954321749713031  0.486688908000815  1.0000
  C   C4        1.0  0.8236382918182414  0.7045598876329748  0.5133145279987943  1.0000
  C   C5        1.0  0.3304643631641755  0.2570024719711199  0.5017806380631598  1.0000
  C   C6        1.0  0.669526934320686  0.7429906128084625  0.4982234846713709  1.0000
  C   C7        1.0  0.4418062893840614  0.3194205851747327  0.5682808579511799  1.0000
  C   C8        1.0  0.558186505338739  0.6805735217801612  0.4317213871423747  1.0000
  C   C9        1.0  0.40323732378028865  0.42186299486401424  0.6241561045767767  1.0000
  C   C10       1.0  0.5967536084978493  0.5781331564415098  0.375847461726849  1.0000
  C   C11       1.0  0.2531424849253057  0.45682854573450976  0.610741526119817  1.0000
  C   C12       1.0  0.7468466671070857  0.5431655612203912  0.3892593453311619  1.0000
  C   C13       1.0  0.9872890651879231  0.44144378512551447  0.530708051084595  1.0000
  C   C14       1.0  0.012704295550484789  0.5585523661800025  0.4692916817201223  1.0000
  C   C15       1.0  0.8994365398903671  0.8636205878100683  0.1496400275343817  1.0000
  C   C16       1.0  0.10056794972817332  0.1363806743720062  0.8503601098518629  1.0000
  C   C17       1.0  0.7844494082606985  0.7609819204610346  0.189718253511387  1.0000
  C   C18       1.0  0.21555265289756426  0.2390193417210398  0.810279888735721  1.0000
  C   C19       1.0  0.691138853218213  0.6488840427820861  0.1418711388210028  1.0000
  C   C20       1.0  0.3088668506304657  0.35111721939998825  0.858125138936444  1.0000
  C   C21       1.0  0.7098895651725174  0.6336505641191508  0.051737244383190294  1.0000
  C   C22       1.0  0.2901152896527392  0.36634763153698907  0.9482608589281655  1.0000
  C   C23       1.0  0.8238048314100085  0.7308083274494876  0.013458778895483199  1.0000
  C   C24       1.0  0.17620087243867036  0.2691929347325868  0.9865387941148569  1.0000
  C   C25       1.0  0.03879842944134989  0.9435863845811879  0.01765484944682779  1.0000
  C   C26       1.0  0.9612054941615753  0.0564128332502634  0.9823439144695669  1.0000
  C   C27       1.0  0.45963612566766443  0.8891177287728381  0.15528330132145382  1.0000
  C   C28       1.0  0.5403689299664836  0.11088557775985919  0.8447143237759462  1.0000
  C   C29       1.0  0.3594897823783683  0.8032161599695371  0.2130669489540864  1.0000
  C   C30       1.0  0.6405097681207081  0.1967891909137833  0.7869312713372594  1.0000
  C   C31       1.0  0.23916511135044524  0.6907370108995039  0.1823510705307001  1.0000
  C   C32       1.0  0.7608359363865702  0.309269362159128  0.817646567372563  1.0000
  C   C33       1.0  0.21444243776622335  0.6554515191565997  0.0921778638618846  1.0000
  C   C34       1.0  0.7855599063998399  0.3445507652007862  0.9078203174937016  1.0000
  C   C35       1.0  0.3117131335025576  0.7361461269246163  0.036273457586276  1.0000
  C   C36       1.0  0.6882925703461142  0.263855135257458  0.9637254106769575  1.0000
  C   C37       1.0  0.5304850851238285  0.9343632967481595  0.00598205336233089  1.0000
  C   C38       1.0  0.46952061872485024  0.0656379654339148  0.9940148720215591  1.0000
  N   N1        1.0  0.9329972407707035  0.3528682057080843  0.1917494597228568  1.0000
  N   N2        1.0  0.06700388916522831  0.6471340786493016  0.8082519336350843  1.0000
  N   N3        1.0  0.3678057122459535  0.2782862063010967  0.22191623684742012  1.0000
  N   N4        1.0  0.6321969971268333  0.7217130115303546  0.7780870343242228  1.0000
  N   N5        1.0  0.1483909169295856  0.9310074952014631  0.37367402089466134  1.0000
  N   N6        1.0  0.8516111442286773  0.0689937669806113  0.6263254166053471  1.0000
  N   N7        1.0  0.1429253358457956  0.3957494821885774  0.5442465928616045  1.0000
  N   N8        1.0  0.8570665276546734  0.604245646941628  0.4557550175840889  1.0000
  N   N9        1.0  0.9158481880676631  0.84273243532553  0.060714756733197796  1.0000
  N   N10       1.0  0.0841563015508697  0.1572688268565443  0.9392853806530468  1.0000
  N   N11       1.0  0.4288029454157681  0.8491159201440225  0.06660010099568578  1.0000
  N   N12       1.0  0.5712003299726334  0.1508853420380518  0.9333987150077689  1.0000
  O   O1        1.0  0.9928357682615855  0.3781118471936793  0.2706682070179909  1.0000
  O   O2        1.0  0.007171149817224894  0.6218894149883951  0.7293326302544898  1.0000
  O   O3        1.0  0.9256120786431696  0.23113223701975727  0.1595395819928314  1.0000
  O   O4        1.0  0.0743859746179609  0.7688720916882517  0.8404598683130402  1.0000
  O   O5        1.0  0.8873214195570968  0.4398471472894059  0.1492545046474376  1.0000
  O   O6        1.0  0.1126766337040337  0.560157181418603  0.8507488314171283  1.0000
  O   O7        1.0  0.322969343878512  0.3131965597047852  0.2969181071349141  1.0000
  O   O8        1.0  0.6770352279389372  0.6868006137760432  0.7030870809589018  1.0000
  O   O9        1.0  0.26113740742402314  0.1836736594956747  0.1777588206984362  1.0000
  O   O10       1.0  0.7388624260828607  0.8163327135629572  0.8222407339542812  1.0000
  O   O11       1.0  0.5036030378946991  0.3326465115264554  0.1936898950968171  1.0000
  O   O12       1.0  0.49640125091494275  0.6673496397790615  0.8063159015149708  1.0000
  O   O13       1.0  0.9975204144772648  0.9430947182564964  0.3747673851077451  1.0000
  O   O14       1.0  0.0024795834274443005  0.05690347739964349  0.625230613684046  1.0000
  O   O15       1.0  0.2519971452665359  0.0278246341463984  0.339555296126143  1.0000
  O   O16       1.0  0.7480022044236421  0.9721756058603647  0.6604434023791514  1.0000
  O   O17       1.0  0.19464907092334022  0.8321549652051488  0.4027502377952246  1.0000
  O   O18       1.0  0.8053565507264153  0.1678503856781717  0.5972519989042766  1.0000
  O   O19       1.0  0.7651657718149636  0.1008876810409305  0.3071241516661374  1.0000
  O   O20       1.0  0.23483236364508286  0.8991125589658323  0.6928771112150613  1.0000
  O   O21       1.0  0.06951392433591513  0.2460069321484539  0.4248235454593186  1.0000
  O   O22       1.0  0.9304792355936017  0.7539841082805054  0.5751786084386978  1.0000
  O   O23       1.0  0.9879917408244481  0.9711646744775848  0.18825837140985163  1.0000
  O   O24       1.0  0.012010521142706001  0.0288416985810471  0.8117405878762086  1.0000
  O   O25       1.0  0.5712609328755179  0.9954617816249964  0.1756610624318213  1.0000
  O   O26       1.0  0.4287446887742378  0.0045435692583169  0.824338583761886  1.0000
