data_image0
_chemical_formula_structural       Fe4P4H36C8N8O16F4
_chemical_formula_sum              "Fe4 P4 H36 C8 N8 O16 F4"
_cell_length_a       7.402028637520138
_cell_length_b       9.095463011658484
_cell_length_c       9.818106115449721
_cell_angle_alpha    100.66430245958942
_cell_angle_beta     89.55541242260158
_cell_angle_gamma    90.72159524459123

_space_group_name_H-M_alt    "P 1"
_space_group_IT_number       1

loop_
  _space_group_symop_operation_xyz
  'x, y, z'

loop_
  _atom_site_type_symbol
  _atom_site_label
  _atom_site_symmetry_multiplicity
  _atom_site_fract_x
  _atom_site_fract_y
  _atom_site_fract_z
  _atom_site_occupancy
  Fe  Fe1       1.0  0.11910296215942401  0.9961769393957095  0.7386087089870799  1.0000
  Fe  Fe2       1.0  0.6173558957775642  0.013231931946492597  0.7650827421496444  1.0000
  Fe  Fe3       1.0  0.8808927454490744  0.0038193201221404  0.26139148440487503  1.0000
  Fe  Fe4       1.0  0.3826438674629813  0.9867654593773518  0.23491865730552056  1.0000
  P   P1        1.0  0.8617838208380918  0.20678859108216582  0.5819311731476446  1.0000
  P   P2        1.0  0.3685213841628752  0.8012522374874749  0.9178737499205099  1.0000
  P   P3        1.0  0.13821594138551058  0.7932132402419398  0.4180771198085651  1.0000
  P   P4        1.0  0.63148380464272  0.19874520249166486  0.08212356802278718  1.0000
  H   H1        1.0  0.7964796531488574  0.44315417075069513  0.4639393154857601  1.0000
  H   H2        1.0  0.3140517685544637  0.58547135551143  0.062160010161399284  1.0000
  H   H3        1.0  0.20352011540668258  0.5568432264473699  0.5360610664406664  1.0000
  H   H4        1.0  0.6859507571983913  0.414529445945348  0.9378348521405684  1.0000
  H   H5        1.0  0.1669193364536028  0.3186217249249593  0.16483312293981098  1.0000
  H   H6        1.0  0.6606902402188695  0.7043844580237033  0.3501015242661794  1.0000
  H   H7        1.0  0.8330764126579384  0.6813790215869202  0.8351658237232583  1.0000
  H   H8        1.0  0.3393149640232451  0.2956152195782238  0.6498961878414136  1.0000
  H   H9        1.0  0.029036892239815898  0.4480568677850769  0.10167833107274049  1.0000
  H   H10       1.0  0.5130391169984634  0.579550478589425  0.4157231741631193  1.0000
  H   H11       1.0  0.9709629414820355  0.5519461528410613  0.8983179486207148  1.0000
  H   H12       1.0  0.48696203932986754  0.42044918601791886  0.5842735289634077  1.0000
  H   H13       1.0  0.1538900492270159  0.3687579759433106  0.8653276243680351  1.0000
  H   H14       1.0  0.6400317828171324  0.6541501814962415  0.6510892230118442  1.0000
  H   H15       1.0  0.8461056690114785  0.6312382953229869  0.13467053396643536  1.0000
  H   H16       1.0  0.3599720312489367  0.3458461157592366  0.3489109532847507  1.0000
  H   H17       1.0  0.33249170866366734  0.27355874665214935  0.9287834245871524  1.0000
  H   H18       1.0  0.8249822065064835  0.7471077135001066  0.586067726696946  1.0000
  H   H19       1.0  0.6675040457628753  0.7264420057339506  0.07121450454717149  1.0000
  H   H20       1.0  0.17501895754010377  0.2528930699186276  0.4139291735117324  1.0000
  H   H21       1.0  0.9454598950949845  0.1885275992000786  0.9311656959924691  1.0000
  H   H22       1.0  0.44088598322201017  0.837287540505457  0.5894304600299591  1.0000
  H   H23       1.0  0.0545439402310848  0.8114687215522806  0.06883041018916454  1.0000
  H   H24       1.0  0.5591151494430591  0.1627109876678219  0.41056909860064655  1.0000
  H   H25       1.0  0.107476816377897  0.1123819355386217  0.006504546214998198  1.0000
  H   H26       1.0  0.6084411879049724  0.913611525757005  0.5143711706697829  1.0000
  H   H27       1.0  0.8925175946906521  0.887619929369265  0.9934935828506966  1.0000
  H   H28       1.0  0.39155994956662704  0.08638922829062774  0.4856308171826029  1.0000
  H   H29       1.0  0.2638300511931817  0.57196000096679  0.2284241545618286  1.0000
  H   H30       1.0  0.7404945661264009  0.438961161856781  0.2930827163006313  1.0000
  H   H31       1.0  0.7361711205716688  0.4280419012633414  0.7715729427289943  1.0000
  H   H32       1.0  0.2595052362139256  0.5610396035239092  0.7069162218147582  1.0000
  H   H33       1.0  0.43030688396403605  0.46008754466900087  0.13540141419006343  1.0000
  H   H34       1.0  0.9132738674409068  0.5522761594613141  0.37353344403293676  1.0000
  H   H35       1.0  0.5696915441452434  0.5399098579878936  0.8645969355281053  1.0000
  H   H36       1.0  0.08672724206937228  0.4477190122777798  0.6264655233512286  1.0000
  C   C1        1.0  0.16175836303013824  0.3946154130655016  0.09032949377569109  1.0000
  C   C2        1.0  0.6491372702891525  0.6295748811698445  0.42545754929358276  1.0000
  C   C3        1.0  0.8382387318426723  0.605385333861754  0.9096704675668833  1.0000
  C   C4        1.0  0.350866606031488  0.3704281465766711  0.5745407569096841  1.0000
  C   C5        1.0  0.1901981649260023  0.3045909742336406  0.9452336698124384  1.0000
  C   C6        1.0  0.6813402242341982  0.7182080069127466  0.571628199761463  1.0000
  C   C7        1.0  0.8098002969680635  0.6954097966058866  0.0547632360946864  1.0000
  C   C8        1.0  0.31866092918239985  0.28179276475754717  0.4283707355047  1.0000
  N   N1        1.0  0.0813589682408988  0.16734195147986233  0.9266356757909833  1.0000
  N   N2        1.0  0.5784878692064126  0.8582948380789259  0.5939984812041172  1.0000
  N   N3        1.0  0.9186340935070942  0.8326754530135572  0.07338556584884505  1.0000
  N   N4        1.0  0.4215146044133888  0.14170146463538916  0.4059996628842271  1.0000
  N   N5        1.0  0.3028465434526027  0.5115953336707831  0.13047223812697686  1.0000
  N   N6        1.0  0.7826875754827186  0.5075103234882902  0.386653961885628  1.0000
  N   N7        1.0  0.6971519155297301  0.4884065442317007  0.8695268999197837  1.0000
  N   N8        1.0  0.2173122191393517  0.4924893230810028  0.6133447791476101  1.0000
  O   O1        1.0  0.03921269600562031  0.13929116727857857  0.6234458908344891  1.0000
  O   O2        1.0  0.5466596290817306  0.8777900810998033  0.8790325595615798  1.0000
  O   O3        1.0  0.960780442186234  0.8607174394533954  0.376547318400874  1.0000
  O   O4        1.0  0.45333610219002207  0.12220731485210479  0.12096477832629658  1.0000
  O   O5        1.0  0.8669240736991668  0.3799015956848706  0.6276148270683349  1.0000
  O   O6        1.0  0.375943149624355  0.6304879019066618  0.861063593158036  1.0000
  O   O7        1.0  0.13307978376474952  0.6201025215019412  0.37238876386078346  1.0000
  O   O8        1.0  0.6240485332251353  0.36951170105078995  0.13893618249930026  1.0000
  O   O9        1.0  0.6911455400949224  0.14404727407466564  0.6456613506782816  1.0000
  O   O10       1.0  0.19908902275499682  0.8654958408011239  0.8614748445207  1.0000
  O   O11       1.0  0.3088542428802157  0.8559568007464549  0.35434631891348534  1.0000
  O   O12       1.0  0.8009201458863444  0.1344970958074896  0.1385298167762627  1.0000
  O   O13       1.0  0.8367685307260189  0.17559808413486877  0.4224276308520487  1.0000
  O   O14       1.0  0.35242481704427325  0.8196455109356007  0.07851445810568686  1.0000
  O   O15       1.0  0.16324064526418883  0.8243859783474433  0.577562225914086  1.0000
  O   O16       1.0  0.6475776951668452  0.18035638583569377  0.9214846713934008  1.0000
  F   F1        1.0  0.8560684452056363  0.9432013253678162  0.7851622707773274  1.0000
  F   F2        1.0  0.3789612432298953  0.07671172856560558  0.7291599114831939  1.0000
  F   F3        1.0  0.14390833430191918  0.056793721409952994  0.2148387829503804  1.0000
  F   F4        1.0  0.6210600792743293  0.9232834787753598  0.27084918845000056  1.0000
