data_image0
_chemical_formula_structural       Ca2H24C24S4O20
_chemical_formula_sum              "Ca2 H24 C24 S4 O20"
_cell_length_a       7.29023414686129
_cell_length_b       11.556436338172533
_cell_length_c       10.544056049587374
_cell_angle_alpha    123.22091269819713
_cell_angle_beta     97.79920108528592
_cell_angle_gamma    89.96908631955719

_space_group_name_H-M_alt    "P 1"
_space_group_IT_number       1

loop_
  _space_group_symop_operation_xyz
  'x, y, z'

loop_
  _atom_site_type_symbol
  _atom_site_label
  _atom_site_symmetry_multiplicity
  _atom_site_fract_x
  _atom_site_fract_y
  _atom_site_fract_z
  _atom_site_occupancy
  Ca  Ca1       1.0  0.7500929200110206  0.9580419066365095  0.00014245504761594747  1.0000
  Ca  Ca2       1.0  0.24991596333671137  0.04195461161230442  0.9998603699159859  1.0000
  H   H1        1.0  0.777143793391069  0.9862767510521597  0.29395338774291746  1.0000
  H   H2        1.0  0.7231942056291911  0.692709492625596  0.7061878884387626  1.0000
  H   H3        1.0  0.2228663955291736  0.013718812100641707  0.7060499823035614  1.0000
  H   H4        1.0  0.2768134939541582  0.3072890821784853  0.29381595142564987  1.0000
  H   H5        1.0  0.5606499298473435  0.962979294128331  0.2312255351886989  1.0000
  H   H6        1.0  0.9396909332351626  0.7320741111639961  0.7688540422423246  1.0000
  H   H7        1.0  0.43936088693236997  0.0370225521245828  0.7687822570812983  1.0000
  H   H8        1.0  0.06031796893142879  0.26792318288862305  0.2311454050262967  1.0000
  H   H9        1.0  0.5465960766120901  0.1136748115714781  0.4822480096097764  1.0000
  H   H10       1.0  0.9529996029467682  0.630850140071054  0.5177927146483371  1.0000
  H   H11       1.0  0.45340448784710213  0.8863223207436306  0.5177496701524477  1.0000
  H   H12       1.0  0.046989128968455404  0.3691553275838046  0.48219610922498657  1.0000
  H   H13       1.0  0.671051136212064  0.3454611262096564  0.5916978887632071  1.0000
  H   H14       1.0  0.8285103524668782  0.7533416750919955  0.40846133892168984  1.0000
  H   H15       1.0  0.3289429504752873  0.6545373584841201  0.4083208668096603  1.0000
  H   H16       1.0  0.17147689205314978  0.24666274013361544  0.5915267825085595  1.0000
  H   H17       1.0  0.8453080895546492  0.5479691462884447  0.8231521587937252  1.0000
  H   H18       1.0  0.654789919342704  0.724732260173191  0.17695950802666985  1.0000
  H   H19       1.0  0.154677242368372  0.4520401042590123  0.17686408345507235  1.0000
  H   H20       1.0  0.34519062948694307  0.27525913943063784  0.823028551885514  1.0000
  H   H21       1.0  0.015827043412088005  0.2938371105464341  0.9948458562588558  1.0000
  H   H22       1.0  0.4841335256543999  0.2989194847945669  0.0049720189928095645  1.0000
  H   H23       1.0  0.9842015552552467  0.7061505118888435  0.005141501083123632  1.0000
  H   H24       1.0  0.515848299492049  0.7010845461405991  0.9950258729021327  1.0000
  C   C1        1.0  0.8416235929214507  0.1927951302343232  0.7764244892845724  1.0000
  C   C2        1.0  0.6578916247137272  0.41618041907371156  0.22362122955401992  1.0000
  C   C3        1.0  0.15840161745656184  0.8071998935882262  0.22356944781502364  1.0000
  C   C4        1.0  0.342096009386509  0.5838259443153505  0.7763812898245065  1.0000
  C   C5        1.0  0.7429293815750737  0.20471977524130835  0.660099320770506  1.0000
  C   C6        1.0  0.7563875581178365  0.5443871815305457  0.34005212121233813  1.0000
  C   C7        1.0  0.25708180928686625  0.7952717238309575  0.33990287701497146  1.0000
  C   C8        1.0  0.24360268356942782  0.455618693011921  0.6599427578705175  1.0000
  C   C9        1.0  0.7479231447052398  0.3347994198738249  0.6804985027664969  1.0000
  C   C10       1.0  0.7516011076482697  0.6540263034739554  0.3196669961201693  1.0000
  C   C11       1.0  0.2520710826090919  0.6652009420830183  0.3195184350950839  1.0000
  C   C12       1.0  0.248377658537386  0.34597607275107833  0.6803211755149761  1.0000
  C   C13       1.0  0.8474038563820726  0.44899272596196477  0.8127455581431847  1.0000
  C   C14       1.0  0.6525401054758788  0.6360877587631607  0.1872970489792252  1.0000
  C   C15       1.0  0.15258908239960786  0.551010077567419  0.18726309170981642  1.0000
  C   C16       1.0  0.34744761433664456  0.3639073456099737  0.8126860504144703  1.0000
  C   C17       1.0  0.9470049620607667  0.4390732884401202  0.9299212507536935  1.0000
  C   C18       1.0  0.5530184112958094  0.509073780558751  0.07004241897922733  1.0000
  C   C19       1.0  0.05300430730918751  0.5609265993175684  0.0700872416967401  1.0000
  C   C20       1.0  0.44696794470863205  0.4909206621716892  0.9299459031858107  1.0000
  C   C21       1.0  0.9420624809988069  0.3082055076227519  0.9084165599564926  1.0000
  C   C22       1.0  0.5579437590131845  0.3996256972170756  0.09145303649376049  1.0000
  C   C23       1.0  0.057953593929653394  0.6917947805264504  0.09158229202435561  1.0000
  C   C24       1.0  0.44204176161138503  0.600372619969903  0.9085487234488951  1.0000
  S   S1        1.0  0.8467659507342943  0.028250111423190612  0.7506942927928009  1.0000
  S   S2        1.0  0.652867320711465  0.27724085465825976  0.24912873188728923  1.0000
  S   S3        1.0  0.15324154464952497  0.971747101397263  0.24930403694497044  1.0000
  S   S4        1.0  0.34713244244757385  0.7227631250664359  0.750866899801146  1.0000
  O   O1        1.0  0.6841179575808167  0.938681397086384  0.19973152697159707  1.0000
  O   O2        1.0  0.816274761151632  0.7392663629771405  0.800382892801295  1.0000
  O   O3        1.0  0.31588892188351986  0.061323249323479004  0.8002736425140142  1.0000
  O   O4        1.0  0.18373546718531486  0.2607300411105555  0.19961808708593762  1.0000
  O   O5        1.0  0.9402719985023466  0.05532023606367183  0.9027010506978641  1.0000
  O   O6        1.0  0.5595799011892667  0.1524366175838878  0.09699223060479063  1.0000
  O   O7        1.0  0.05972746458387952  0.9446792133310783  0.09730159410811731  1.0000
  O   O8        1.0  0.440426288622035  0.8475615503325855  0.9030055540500969  1.0000
  O   O9        1.0  0.6544389915869003  0.968700376089771  0.7217638994670496  1.0000
  O   O10       1.0  0.8452709554973195  0.24665659037198404  0.27813259541500207  1.0000
  O   O11       1.0  0.34556830315536763  0.0312940534016235  0.2782376506055115  1.0000
  O   O12       1.0  0.15473216669533224  0.7533535743927972  0.7218657434156981  1.0000
  O   O13       1.0  0.9537993921610948  0.9439050772439613  0.6283708656567696  1.0000
  O   O14       1.0  0.545747067827456  0.3150976693669065  0.3713481861607165  1.0000
  O   O15       1.0  0.04620590913463471  0.05608311817732671  0.3716271197329064  1.0000
  O   O16       1.0  0.45426768270963447  0.6849027980745035  0.6286534984322288  1.0000
  O   O17       1.0  0.6478527094426525  0.0894618805264855  0.532814887438697  1.0000
  O   O18       1.0  0.8514922245700943  0.5563540584143852  0.46733546930580877  1.0000
  O   O19       1.0  0.3521512346480122  0.9105415019597982  0.46718648700151993  1.0000
  O   O20       1.0  0.1485021944907956  0.44365264023510076  0.5326564220673903  1.0000
