data_image0
_chemical_formula_structural       Cd2H24C32O12
_chemical_formula_sum              "Cd2 H24 C32 O12"
_cell_length_a       7.534038672176317
_cell_length_b       7.818767599882822
_cell_length_c       12.695737394092577
_cell_angle_alpha    107.93203195876421
_cell_angle_beta     99.27946089443302
_cell_angle_gamma    90.01614090412076

_space_group_name_H-M_alt    "P 1"
_space_group_IT_number       1

loop_
  _space_group_symop_operation_xyz
  'x, y, z'

loop_
  _atom_site_type_symbol
  _atom_site_label
  _atom_site_symmetry_multiplicity
  _atom_site_fract_x
  _atom_site_fract_y
  _atom_site_fract_z
  _atom_site_occupancy
  Cd  Cd1       1.0  0.2500685255058385  0.0156971733598255  8.153803982939429e-05  1.0000
  Cd  Cd2       1.0  0.7499282300801723  0.984303500986648  0.999919230126885  1.0000
  H   H1        1.0  0.4230654324437353  0.5226731680178388  0.6750849272104419  1.0000
  H   H2        1.0  0.07711556130423959  0.847805974056072  0.3249032618020139  1.0000
  H   H3        1.0  0.5769390186793117  0.477320757764815  0.32491450947229344  1.0000
  H   H4        1.0  0.9228791728060414  0.152182599319289  0.675094175048784  1.0000
  H   H5        1.0  0.7735276974498932  0.565323298447595  0.4453771519143715  1.0000
  H   H6        1.0  0.7263193935485645  0.11936943165082427  0.5545579592837768  1.0000
  H   H7        1.0  0.22647714284134676  0.4346773676968424  0.5546228408352292  1.0000
  H   H8        1.0  0.2736827066821307  0.8806299265628821  0.44543914543458396  1.0000
  H   H9        1.0  0.017938645228667782  0.6848567815920031  0.6056705857543038  1.0000
  H   H10       1.0  0.48203893647014706  0.07863412275670358  0.39420036201136105  1.0000
  H   H11       1.0  0.982067294365187  0.31513982219942693  0.394330304766342  1.0000
  H   H12       1.0  0.5179607537154779  0.921370600167371  0.6057999056646112  1.0000
  H   H13       1.0  0.5221993330846573  0.4096491413234772  0.8317944055086958  1.0000
  H   H14       1.0  0.9777548277826823  0.577841441854531  0.16829661923400618  1.0000
  H   H15       1.0  0.4777986825414827  0.5903501726193382  0.1682070118624992  1.0000
  H   H16       1.0  0.022240439332520595  0.42215655448317335  0.8317026950947977  1.0000
  H   H17       1.0  0.38846411135495623  0.6043331748027326  0.8423458562443502  1.0000
  H   H18       1.0  0.1114913720122104  0.7619263057597151  0.15763470358038492  1.0000
  H   H19       1.0  0.6115380904605273  0.39566881763962397  0.15765649482943192  1.0000
  H   H20       1.0  0.8885038189594353  0.23807034444051567  0.8423643425372804  1.0000
  H   H21       1.0  0.5316954589875849  0.5855495446113608  0.9641485502945032  1.0000
  H   H22       1.0  0.9683058770976914  0.6211534083921604  0.03586366212298486  1.0000
  H   H23       1.0  0.4683080197688057  0.41445110677610586  0.03585288000603978  1.0000
  H   H24       1.0  0.0316905908148541  0.3788419007531728  0.9641344632214414  1.0000
  C   C1        1.0  0.016388993017251587  0.7608907659204005  0.8213247649003749  1.0000
  C   C2        1.0  0.4837363799973815  0.9391256387901873  0.17856471622836523  1.0000
  C   C3        1.0  0.9836129634667686  0.23910716876075358  0.17867835151768932  1.0000
  C   C4        1.0  0.5162602233015079  0.06087234328133209  0.8214355155160646  1.0000
  C   C5        1.0  0.8633931250837038  0.6736967058577933  0.730669631615527  1.0000
  C   C6        1.0  0.6366902602741148  0.9427075219783204  0.2692617484062723  1.0000
  C   C7        1.0  0.13661160526241636  0.3263025754516277  0.26933323287835265  1.0000
  C   C8        1.0  0.3633062668812173  0.05728911395572569  0.7307382151270121  1.0000
  C   C9        1.0  0.6927695419739451  0.6247865403232068  0.7485972878718458  1.0000
  C   C10       1.0  0.807341189299443  0.8760510302487744  0.2513555185409474  1.0000
  C   C11       1.0  0.3072337083517596  0.37521007265182493  0.25140333779526713  1.0000
  C   C12       1.0  0.19265536320705223  0.12394563470841286  0.7486420900257684  1.0000
  C   C13       1.0  0.5536005877860647  0.5544500983746515  0.6579444531873123  1.0000
  C   C14       1.0  0.9465211263791318  0.8965363943910133  0.3420293944135438  1.0000
  C   C15       1.0  0.4464080495263261  0.44554650590755773  0.34205591719801026  1.0000
  C   C16       1.0  0.053473836161828096  0.10345621739678278  0.6579688470706844  1.0000
  C   C17       1.0  0.5764749559314383  0.5333022004299435  0.547037449411498  1.0000
  C   C18       1.0  0.9235449074600979  0.986149063136409  0.4529494522102696  1.0000
  C   C19       1.0  0.423532243702546  0.4666930429578214  0.4529640903136284  1.0000
  C   C20       1.0  0.0764487950407329  0.013844909055045197  0.5470481400694852  1.0000
  C   C21       1.0  0.7474636819742315  0.5795967770430366  0.5293752333409999  1.0000
  C   C22       1.0  0.7524861454184161  0.049800337605169887  0.47057945568735704  1.0000
  C   C23       1.0  0.2525436783972522  0.42040116829406315  0.4706260578175546  1.0000
  C   C24       1.0  0.2475106355187577  0.9502003657644592  0.529418957512796  1.0000
  C   C25       1.0  0.8864688826472218  0.6469550253002437  0.619368189991306  1.0000
  C   C26       1.0  0.6135276746082852  0.02713900718170239  0.38055304357270364  1.0000
  C   C27       1.0  0.11353857076861117  0.3530442855231043  0.380631799400689  1.0000
  C   C28       1.0  0.3864690301853316  0.9728603500504461  0.6194451014163037  1.0000
  C   C29       1.0  0.5163892480987612  0.5547825909998921  0.8732929685365889  1.0000
  C   C30       1.0  0.983545639309213  0.6813787653786177  0.12670527430488226  1.0000
  C   C31       1.0  0.4836128860235505  0.44521806497937166  0.12670832933719114  1.0000
  C   C32       1.0  0.016449560112825192  0.3186178944959933  0.873292986823927  1.0000
  O   O1        1.0  0.9874167028175548  0.8362812868801225  0.9237704343387776  1.0000
  O   O2        1.0  0.5126267741431435  0.9118534442362854  0.0760740658597285  1.0000
  O   O3        1.0  0.012581067477121595  0.16371396930149018  0.07623174837669211  1.0000
  O   O4        1.0  0.4873658629466888  0.08814588807373269  0.9239268218044074  1.0000
  O   O5        1.0  0.17270015612623268  0.7672296488103  0.7993045400360189  1.0000
  O   O6        1.0  0.32748625104374435  0.9677462417388153  0.200653957972122  1.0000
  O   O7        1.0  0.8273018680509593  0.2327696223339544  0.20069962958204002  1.0000
  O   O8        1.0  0.6725119506710725  0.03225580317648279  0.7993448558659396  1.0000
  O   O9        1.0  0.6689098778932274  0.649437163303048  0.8571278336033503  1.0000
  O   O10       1.0  0.8310893668560623  0.7921660933594763  0.1428152507549783  1.0000
  O   O11       1.0  0.3310936093135481  0.3505634977587987  0.14287281170834382  1.0000
  O   O12       1.0  0.1689070333633111  0.20782787932276386  0.8571818213894461  1.0000
