data_image0
_chemical_formula_structural       Ag2H10C18N8O2
_chemical_formula_sum              "Ag2 H10 C18 N8 O2"
_cell_length_a       6.275277319709221
_cell_length_b       8.379993413479912
_cell_length_c       10.212993328211311
_cell_angle_alpha    86.38265290119095
_cell_angle_beta     72.11442422798494
_cell_angle_gamma    78.16040295469392

_space_group_name_H-M_alt    "P 1"
_space_group_IT_number       1

loop_
  _space_group_symop_operation_xyz
  'x, y, z'

loop_
  _atom_site_type_symbol
  _atom_site_label
  _atom_site_symmetry_multiplicity
  _atom_site_fract_x
  _atom_site_fract_y
  _atom_site_fract_z
  _atom_site_occupancy
  Ag  Ag1       1.0  0.783560249308806  0.16793770490932056  0.08382666895320767  1.0000
  Ag  Ag2       1.0  0.8672290151139845  0.6675953674159487  0.9165616384384023  1.0000
  H   H1        1.0  0.19533335343336233  0.9056726407858805  0.437795933767525  1.0000
  H   H2        1.0  0.6333779775433538  0.40577548782784595  0.5624000568056359  1.0000
  H   H3        1.0  0.4905149684638559  0.8217550204261529  0.37054608628712765  1.0000
  H   H4        1.0  0.8614899631125962  0.3212836439072931  0.629446478178636  1.0000
  H   H5        1.0  0.5367562993207641  0.7958122736119863  0.608413298857755  1.0000
  H   H6        1.0  0.14500458374369873  0.29587168728542684  0.3916542708335484  1.0000
  H   H7        1.0  0.24274314512899753  0.8665005355911719  0.6907671536309863  1.0000
  H   H8        1.0  0.9334482164579327  0.36671773379697475  0.30917522929819086  1.0000
  H   H9        1.0  0.3775185578674111  0.6689246896962544  0.7333921707615474  1.0000
  H   H10       1.0  0.1107685320137151  0.16907187378031813  0.2666115950274701  1.0000
  C   C1        1.0  0.2934085436806484  0.8082891743722271  0.1664666053894024  1.0000
  C   C2        1.0  0.46027731453357024  0.30777132396277557  0.8335827970520883  1.0000
  C   C3        1.0  0.26865680162277517  0.7042973634307901  0.2979549520182728  1.0000
  C   C4        1.0  0.5668367608394643  0.20401179324993993  0.7019649288826386  1.0000
  C   C5        1.0  0.1881555577990213  0.7746434540663715  0.0735873319412619  1.0000
  C   C6        1.0  0.2621718845270706  0.2741763311265189  0.926525623471754  1.0000
  C   C7        1.0  0.4289705775357432  0.9242863295495526  0.14047180262775072  1.0000
  C   C8        1.0  0.5696921851562633  0.42382460727043997  0.8596714807401894  1.0000
  C   C9        1.0  0.42513520219292616  0.5437852225599614  0.2636262656611946  1.0000
  C   C10       1.0  0.689012897917273  0.043389484692703206  0.7360704888115991  1.0000
  C   C11       1.0  0.033109934225237204  0.6753921184634208  0.3486714133371009  1.0000
  C   C12       1.0  0.3819787168892717  0.17520142062787866  0.6512187642761944  1.0000
  C   C13       1.0  0.32023835640031006  0.7907792344765384  0.4108916879061795  1.0000
  C   C14       1.0  0.73127273680155  0.29068464872644745  0.5891559646786604  1.0000
  C   C15       1.0  0.3124868426042011  0.6866652489496302  0.538445895397409  1.0000
  C   C16       1.0  0.8506958072201554  0.18680159455574596  0.4614459198461914  1.0000
  C   C17       1.0  0.37206217558482274  0.7568779218788536  0.6502686599839222  1.0000
  C   C18       1.0  0.022112808584573432  0.257058954545208  0.3497093022058593  1.0000
  N   N1        1.0  0.09115342303542205  0.7369460513267968  0.0023898839422429067  1.0000
  N   N2        1.0  0.09385003960488097  0.2367531879699953  0.9977837928875103  1.0000
  N   N3        1.0  0.542127432840722  0.023848700471198497  0.12355030487738357  1.0000
  N   N4        1.0  0.6658124061061838  0.5234871224213009  0.8765754223224319  1.0000
  N   N5        1.0  0.5532835644721813  0.42223750958379486  0.2258405595110915  1.0000
  N   N6        1.0  0.7791067303254308  0.9216196204175376  0.7737102391322993  1.0000
  N   N7        1.0  0.8459489216328676  0.6550979081824835  0.38223295106143235  1.0000
  N   N8        1.0  0.22807710652398314  0.1551864651985683  0.6178123208795796  1.0000
  O   O1        1.0  0.25971466830784334  0.5517938106821206  0.5463893018365766  1.0000
  O   O2        1.0  0.8056516658691562  0.05203561996312802  0.45337536325980915  1.0000
