data_image0
_chemical_formula_structural       Cu6H24C48O24
_chemical_formula_sum              "Cu6 H24 C48 O24"
_cell_length_a       9.131375819058446
_cell_length_b       9.132343536718379
_cell_length_c       16.02009205377113
_cell_angle_alpha    89.9909693562301
_cell_angle_beta     89.99267878021027
_cell_angle_gamma    119.9857512310015

_space_group_name_H-M_alt    "P 1"
_space_group_IT_number       1

loop_
  _space_group_symop_operation_xyz
  'x, y, z'

loop_
  _atom_site_type_symbol
  _atom_site_label
  _atom_site_symmetry_multiplicity
  _atom_site_fract_x
  _atom_site_fract_y
  _atom_site_fract_z
  _atom_site_occupancy
  Cu  Cu1       1.0  0.49999710848008044  0.49999859773528477  0.9999991782316541  1.0000
  Cu  Cu2       1.0  0.5000004094321611  1.5213004117569328e-06  0.9999997700492144  1.0000
  Cu  Cu3       1.0  2.050235160396136e-06  0.4999961046180844  6.564634133999936e-07  1.0000
  Cu  Cu4       1.0  0.5000014338773511  1.2076055779564115e-06  0.4999970200417465  1.0000
  Cu  Cu5       1.0  0.9999982294164623  0.49999934516396366  0.5000000615791791  1.0000
  Cu  Cu6       1.0  0.500001879000564  0.5000032942951619  0.5000007973758827  1.0000
  H   H1        1.0  0.13072376714070805  0.7584484487444313  0.11549861402755818  1.0000
  H   H2        1.0  0.24136749106138916  0.37219849168840097  0.11553563829171759  1.0000
  H   H3        1.0  0.6278953390217693  0.8692864306367053  0.11552609008371208  1.0000
  H   H4        1.0  0.7585768775778661  0.6278444791517256  0.6155043287063009  1.0000
  H   H5        1.0  0.37227693314155624  0.13074543299528318  0.6155251050012538  1.0000
  H   H6        1.0  0.8692188314873163  0.24136640304040913  0.6155382421920308  1.0000
  H   H7        1.0  0.8692796992248049  0.2415540547451724  0.8844986114051564  1.0000
  H   H8        1.0  0.7586386271124397  0.6278079279100836  0.8844634595170787  1.0000
  H   H9        1.0  0.37210939144001987  0.13071480777441724  0.8844736322243064  1.0000
  H   H10       1.0  0.2414257855531402  0.37216101464582596  0.3844972661344883  1.0000
  H   H11       1.0  0.6277259004218863  0.8692577022248924  0.3844739930745931  1.0000
  H   H12       1.0  0.13078198201438335  0.7586321832081849  0.3844614803777019  1.0000
  H   H13       1.0  0.2857462449307278  0.8288131188858612  0.24995220867047854  1.0000
  H   H14       1.0  0.17107453497643374  0.4568397586656088  0.2500504826621323  1.0000
  H   H15       1.0  0.5431030801027248  0.7143295428545711  0.2499979088245752  1.0000
  H   H16       1.0  0.8289261088467513  0.5431611869690298  0.7499486155917552  1.0000
  H   H17       1.0  0.4568975637204672  0.28567140278007475  0.7500011894293052  1.0000
  H   H18       1.0  0.7142533037207599  0.17118673163254516  0.7500481381047377  1.0000
  H   H19       1.0  0.6592131177686865  0.5423457172628543  0.250038850608135  1.0000
  H   H20       1.0  0.4576631908148059  0.11683937253847176  0.24997540202143398  1.0000
  H   H21       1.0  0.883047383198651  0.34075534391535434  0.2499798191808793  1.0000
  H   H22       1.0  0.5423383780492159  0.8831650271132502  0.7500236960437405  1.0000
  H   H23       1.0  0.11695654493335177  0.6592488857741258  0.7500205272382701  1.0000
  H   H24       1.0  0.3407862610535019  0.45765649247986295  0.7499614960673853  1.0000
  C   C1        1.0  0.7833031398220456  0.5975246749850879  0.09586107771829688  1.0000
  C   C2        1.0  0.4029498481100047  0.18611886573997066  0.09588590634682248  1.0000
  C   C3        1.0  0.8139447186659439  0.21690904591132196  0.0958701768704131  1.0000
  C   C4        1.0  0.5970770693221608  0.8140035438614245  0.5958877374860376  1.0000
  C   C5        1.0  0.185840077574653  0.7833569395142913  0.5958429203728812  1.0000
  C   C6        1.0  0.21685030700594143  0.402992334096055  0.5958775876918594  1.0000
  C   C7        1.0  0.21670302471611072  0.4024729392849763  0.9041405173485657  1.0000
  C   C8        1.0  0.59704987067235  0.8138786258775919  0.9041131920957779  1.0000
  C   C9        1.0  0.18605436686198107  0.7830890769516043  0.9041326668637879  1.0000
  C   C10       1.0  0.40292921883175126  0.18600051667448256  0.40411073620629157  1.0000
  C   C11       1.0  0.8141621230359348  0.21664682727472218  0.404158674562261  1.0000
  C   C12       1.0  0.7831511395993969  0.5970056207454344  0.4041190138024291  1.0000
  C   C13       1.0  0.8839097728196634  0.6439204035728135  0.17423815189256686  1.0000
  C   C14       1.0  0.35617474366355134  0.24011156002175932  0.17423804606865187  1.0000
  C   C15       1.0  0.7598793724773215  0.11613095244265971  0.1742151711918538  1.0000
  C   C16       1.0  0.6438600626218401  0.7600033418109288  0.6742250860661371  1.0000
  C   C17       1.0  0.24005084755462752  0.8839286869034593  0.6742442219361138  1.0000
  C   C18       1.0  0.11607464364185198  0.35626677047054756  0.674227475698899  1.0000
  C   C19       1.0  0.1160872949083043  0.35607317274453715  0.8257559530931644  1.0000
  C   C20       1.0  0.6438124673683278  0.7598721600877308  0.8257679198252248  1.0000
  C   C21       1.0  0.2401211013657801  0.8838723522545633  0.8257845511785007  1.0000
  C   C22       1.0  0.35613695632923026  0.2399990372471023  0.3257765091200468  1.0000
  C   C23       1.0  0.7599452925691421  0.11606143264733476  0.3257604949130055  1.0000
  C   C24       1.0  0.8839083886259116  0.6437342681662268  0.3257703747600829  1.0000
  C   C25       1.0  0.060924727546605995  0.7242053115906584  0.17427201931923256  1.0000
  C   C26       1.0  0.2757119979285533  0.33671523040249685  0.1743028086004657  1.0000
  C   C27       1.0  0.6632989462214596  0.9391156126765592  0.1742803806559436  1.0000
  C   C28       1.0  0.7242672367362175  0.6633478954136007  0.6742676930592992  1.0000
  C   C29       1.0  0.3367356988727366  0.06093589994162578  0.6742963616679487  1.0000
  C   C30       1.0  0.9390361293140899  0.2757951795027011  0.6742978616048558  1.0000
  C   C31       1.0  0.9390672804789516  0.27579332148247415  0.8257258309207316  1.0000
  C   C32       1.0  0.7242851911533774  0.6632847897546833  0.8256975382530953  1.0000
  C   C33       1.0  0.336701280691706  0.060874799812459794  0.8257243360311506  1.0000
  C   C34       1.0  0.27573569046058566  0.33663763012015113  0.3257326542357433  1.0000
  C   C35       1.0  0.6632658695389256  0.9390684992248949  0.325704609045701  1.0000
  C   C36       1.0  0.060969404080637446  0.7242030682770063  0.3256987397274145  1.0000
  C   C37       1.0  0.14823044740311506  0.7644013979494486  0.24998445332021646  1.0000
  C   C38       1.0  0.2354700007980667  0.3837089794360222  0.2500252018214013  1.0000
  C   C39       1.0  0.6162006363327562  0.85183788846664  0.24999094737808034  1.0000
  C   C40       1.0  0.764517968611848  0.6162805573112774  0.7499676552447665  1.0000
  C   C41       1.0  0.3838004712171354  0.14816478547041348  0.7500031570521912  1.0000
  C   C42       1.0  0.8517709970912151  0.2355965546277685  0.7500208872002787  1.0000
  C   C43       1.0  0.7965129328255357  0.605534912199104  0.2500197772313939  1.0000
  C   C44       1.0  0.3944532588329394  0.19093051734657238  0.24998873646790534  1.0000
  C   C45       1.0  0.8089758202247312  0.20348952941521484  0.24998555679189846  1.0000
  C   C46       1.0  0.605539722407208  0.809062766356028  0.7500041202475244  1.0000
  C   C47       1.0  0.19102903400360563  0.7965181554234845  0.7500104199254379  1.0000
  C   C48       1.0  0.2034934766823396  0.39447559217663286  0.7499849383287724  1.0000
  O   O1        1.0  0.6359632781613697  0.5811400535939909  0.1011730176228056  1.0000
  O   O2        1.0  0.4190337265274167  0.055064405225770836  0.10106220861054277  1.0000
  O   O3        1.0  0.9446999171394096  0.3641556455424461  0.10110097254344909  1.0000
  O   O4        1.0  0.5805342975909582  0.9448000193694097  0.6011308794073358  1.0000
  O   O5        1.0  0.05490324289488767  0.6360764805698337  0.6011426592000503  1.0000
  O   O6        1.0  0.36403053159274623  0.4191109253880682  0.6010780896376104  1.0000
  O   O7        1.0  0.3640459817602276  0.4188960623246982  0.8988341935486729  1.0000
  O   O8        1.0  0.5809608125556308  0.9449317007633408  0.8989287752730417  1.0000
  O   O9        1.0  0.05529734708295563  0.6358596239447109  0.8989024947037194  1.0000
  O   O10       1.0  0.4194422401441073  0.055209699355529475  0.3988719646278369  1.0000
  O   O11       1.0  0.945112406738154  0.3639116503019079  0.39885956016303936  1.0000
  O   O12       1.0  0.635972563020772  0.5808722383336186  0.3989322452156401  1.0000
  O   O13       1.0  0.8375749550108649  0.5747744437812653  0.026287487058731098  1.0000
  O   O14       1.0  0.4265199637725344  0.26354321321724655  0.0263507608184455  1.0000
  O   O15       1.0  0.7367541182165596  0.16280262573121698  0.0262965402468822  1.0000
  O   O16       1.0  0.5739016866227689  0.7367424065206761  0.5263593643404645  1.0000
  O   O17       1.0  0.2628874351310697  0.8376083512644498  0.5262831465294366  1.0000
  O   O18       1.0  0.16300524025514548  0.4264802691261236  0.5263277079784459  1.0000
  O   O19       1.0  0.16241085373648184  0.4252369583623618  0.9737047448886995  1.0000
  O   O20       1.0  0.5735091924351748  0.7364773910540234  0.9736533292436745  1.0000
  O   O21       1.0  0.2632474985196467  0.837192970209429  0.973698812914783  1.0000
  O   O22       1.0  0.4260531685462681  0.2632342503405595  0.4736515967782395  1.0000
  O   O23       1.0  0.7371220781207838  0.16235088223042704  0.47372219543481  1.0000
  O   O24       1.0  0.8370242110562599  0.5735444239657422  0.4736663944311061  1.0000
