data_image0
_chemical_formula_structural       U2H16C10O12
_chemical_formula_sum              "U2 H16 C10 O12"
_cell_length_a       6.202055241114413
_cell_length_b       7.331929365890165
_cell_length_c       9.25080728059266
_cell_angle_alpha    99.3289862188347
_cell_angle_beta     102.31165082263101
_cell_angle_gamma    103.02848030087358

_space_group_name_H-M_alt    "P 1"
_space_group_IT_number       1

loop_
  _space_group_symop_operation_xyz
  'x, y, z'

loop_
  _atom_site_type_symbol
  _atom_site_label
  _atom_site_symmetry_multiplicity
  _atom_site_fract_x
  _atom_site_fract_y
  _atom_site_fract_z
  _atom_site_occupancy
  U   U1        1.0  0.307188557967173  0.7684504809034679  0.8657367071183442  1.0000
  U   U2        1.0  0.6928247905573528  0.23154786937684693  0.13427689177927246  1.0000
  H   H1        1.0  0.2100439268967165  0.11218000047808373  0.05271879545003339  1.0000
  H   H2        1.0  0.789969262021593  0.8878226090365758  0.9472866574180895  1.0000
  H   H3        1.0  0.7809425127153703  0.5000596401334221  0.5359913981862191  1.0000
  H   H4        1.0  0.21904951326930444  0.49993863297815727  0.46400820092662076  1.0000
  H   H5        1.0  0.553448789094361  0.23550105195089097  0.7062004156414472  1.0000
  H   H6        1.0  0.4465442800405981  0.7645058599378061  0.2938058113478305  1.0000
  H   H7        1.0  0.5390390927513381  0.19393268728526183  0.5087397050447818  1.0000
  H   H8        1.0  0.46094765655098524  0.8060699081394208  0.49126396524057714  1.0000
  H   H9        1.0  0.7794174978132631  0.012830016792484899  0.7022784974184403  1.0000
  H   H10       1.0  0.2205728911452313  0.9871682490784154  0.29771977562784707  1.0000
  H   H11       1.0  0.8723295324410503  0.0781249852150907  0.5428203445715809  1.0000
  H   H12       1.0  0.12765097942767778  0.9218732598252546  0.4571742908492026  1.0000
  H   H13       1.0  0.03157161187291993  0.30579137172666293  0.8734884190702841  1.0000
  H   H14       1.0  0.9684332421563513  0.694205444813399  0.12650642690299918  1.0000
  H   H15       1.0  0.20840516301817763  0.25531422647698326  0.7505948181252504  1.0000
  H   H16       1.0  0.7915827877691017  0.7446711002214529  0.24939716884689028  1.0000
  C   C1        1.0  0.7367173230636723  0.6003818637900978  0.7545235514711449  1.0000
  C   C2        1.0  0.26330841069446365  0.3996235992678693  0.2454787194689274  1.0000
  C   C3        1.0  0.7968369235635394  0.45358729489812794  0.6444011357997323  1.0000
  C   C4        1.0  0.20316641573133862  0.5464152824792023  0.3555985200559987  1.0000
  C   C5        1.0  0.6546778367443623  0.24523512109450246  0.6228366032975927  1.0000
  C   C6        1.0  0.34531880338090565  0.7547674895073443  0.37716962491982997  1.0000
  C   C7        1.0  0.8352836027843864  0.1325556666944934  0.6497052159692841  1.0000
  C   C8        1.0  0.16470767956626284  0.8674454811823368  0.35029570839133567  1.0000
  C   C9        1.0  0.04288736958480402  0.2811402174974091  0.7554604248106426  1.0000
  C   C10       1.0  0.9571092031813608  0.7188566024129417  0.24453534868401763  1.0000
  O   O1        1.0  0.34933596949954904  0.6377084124651516  0.014762414207829986  1.0000
  O   O2        1.0  0.6506759342632193  0.3622898514270646  0.9852347429150327  1.0000
  O   O3        1.0  0.24312586070888642  0.8832271849559278  0.708273456975547  1.0000
  O   O4        1.0  0.7568742555812381  0.11676534497434693  0.2917244771341457  1.0000
  O   O5        1.0  0.9015371203410256  0.7163926190692609  0.8606459441746138  1.0000
  O   O6        1.0  0.09845770553358345  0.28360423882749336  0.13935714080103878  1.0000
  O   O7        1.0  0.5299776404647147  0.6051569326725927  0.7323112942460452  1.0000
  O   O8        1.0  0.4700122782164372  0.39484991385425866  0.2676825633691421  1.0000
  O   O9        1.0  0.03616762652097805  0.45818178104676843  0.7008898401233664  1.0000
  O   O10       1.0  0.9638356042152979  0.5418150225992237  0.29910260008993106  1.0000
  O   O11       1.0  0.3183789595834412  0.032821089347685004  0.040302952302553804  1.0000
  O   O12       1.0  0.6816325648423457  0.9671815242330695  0.9597033338859047  1.0000
