data_image0
_chemical_formula_structural       Zn2H28C40N8O8
_chemical_formula_sum              "Zn2 H28 C40 N8 O8"
_cell_length_a       6.626803557782455
_cell_length_b       9.867211886109528
_cell_length_c       15.633200070921626
_cell_angle_alpha    70.77782182767567
_cell_angle_beta     77.76203385361191
_cell_angle_gamma    70.40148050994142

_space_group_name_H-M_alt    "P 1"
_space_group_IT_number       1

loop_
  _space_group_symop_operation_xyz
  'x, y, z'

loop_
  _atom_site_type_symbol
  _atom_site_label
  _atom_site_symmetry_multiplicity
  _atom_site_fract_x
  _atom_site_fract_y
  _atom_site_fract_z
  _atom_site_occupancy
  Zn  Zn1       1.0  0.38833769056668643  0.24988464977946023  0.7499785952516334  1.0000
  Zn  Zn2       1.0  0.6116650959924073  0.7501221763255687  0.2500225906063278  1.0000
  H   H1        1.0  0.8535541424261625  0.5543777140475756  0.9582203920605111  1.0000
  H   H2        1.0  0.3658109304149374  0.9458017335369249  0.5419323421137249  1.0000
  H   H3        1.0  0.14644867104237846  0.4456302866646809  0.04177854574617608  1.0000
  H   H4        1.0  0.6341410804238305  0.054189838711451395  0.4580543838017449  1.0000
  H   H5        1.0  0.7306424694817154  0.4535311292202167  0.8589662181038379  1.0000
  H   H6        1.0  0.042590004313275656  0.046496712950926215  0.6411126102857949  1.0000
  H   H7        1.0  0.2693628622961484  0.5464623308246389  0.14103401199785984  1.0000
  H   H8        1.0  0.9573613949801894  0.9535027337915523  0.35887170313407063  1.0000
  H   H9        1.0  0.08079234721068207  0.2759783184077236  0.6294035639591301  1.0000
  H   H10       1.0  0.9862539499115573  0.22376539794363737  0.8702591595542016  1.0000
  H   H11       1.0  0.9191896823021894  0.7240215655793776  0.3706069437662336  1.0000
  H   H12       1.0  0.013764087661947009  0.7762345453345391  0.12974928886654877  1.0000
  H   H13       1.0  0.6395454647655041  0.722958895800524  0.5816219223606609  1.0000
  H   H14       1.0  0.9444859066903457  0.7763943518299216  0.9188657019461104  1.0000
  H   H15       1.0  0.36046024598815773  0.2770459051203602  0.4183713579931235  1.0000
  H   H16       1.0  0.055550254423309235  0.223590975850975  0.08114700301919699  1.0000
  H   H17       1.0  0.18125001961222892  0.5760694284414285  0.7366234067894625  1.0000
  H   H18       1.0  0.49445751422154444  0.9232727343780526  0.7637021944832868  1.0000
  H   H19       1.0  0.8187456232454836  0.4239419849643866  0.26337300318658646  1.0000
  H   H20       1.0  0.5055644391894205  0.07672609828534861  0.23630607266591847  1.0000
  H   H21       1.0  0.8098498875367282  0.34773733078018415  0.5276413468989604  1.0000
  H   H22       1.0  0.6855907328594241  0.1522308522898825  0.9721133302803366  1.0000
  H   H23       1.0  0.19013519968966347  0.6522672076181736  0.4723618731674152  1.0000
  H   H24       1.0  0.31442887987103785  0.8477635082688978  0.027895241434983068  1.0000
  H   H25       1.0  0.8643503196720986  0.7800821814532951  0.6702889436761623  1.0000
  H   H26       1.0  0.31507170269321677  0.7191639667964013  0.8302401491659667  1.0000
  H   H27       1.0  0.13566203087543025  0.21993060508981443  0.3296977078588483  1.0000
  H   H28       1.0  0.6849577507855857  0.2808337280913733  0.16976899893531075  1.0000
  C   C1        1.0  0.6977129904219902  0.5320914249770184  0.9759762124162137  1.0000
  C   C2        1.0  0.20553901127328797  0.968025665629803  0.5241390852883187  1.0000
  C   C3        1.0  0.3022915403226775  0.4679042391239181  0.02402508006383633  1.0000
  C   C4        1.0  0.794407255542282  0.0319805656001577  0.4758417945620934  1.0000
  C   C5        1.0  0.8373681058631417  0.49320628802144756  0.6019071913797092  1.0000
  C   C6        1.0  0.9328001412487766  0.006332633327282596  0.898176214977859  1.0000
  C   C7        1.0  0.1626252534047977  0.5067970923098031  0.39809769192825684  1.0000
  C   C8        1.0  0.06723507886256641  0.9936582939297907  0.10183572437041022  1.0000
  C   C9        1.0  0.6302301211596057  0.47374960814526196  0.9209146324576879  1.0000
  C   C10       1.0  0.02450729298000445  0.026283937405388296  0.579142309753749  1.0000
  C   C11       1.0  0.3697827085360429  0.5262460724957879  0.07908607521267895  1.0000
  C   C12       1.0  0.9754478800317513  0.9737211526142462  0.42083959101577756  1.0000
  C   C13       1.0  0.02134876078727647  0.3876575242402609  0.6393368267717677  1.0000
  C   C14       1.0  0.048629170513045265  0.11191930894388956  0.8606055948082912  1.0000
  C   C15       1.0  0.9786383150532604  0.6123413199939024  0.36067079042513217  1.0000
  C   C16       1.0  0.9513955456358189  0.8880704508920163  0.13940825514436014  1.0000
  C   C17       1.0  0.3555322187243634  0.3789204127133062  0.8855532465390753  1.0000
  C   C18       1.0  0.6196401034308533  0.12094608790377495  0.6142915531306913  1.0000
  C   C19       1.0  0.6444872550652576  0.6210765368062995  0.11444163907932385  1.0000
  C   C20       1.0  0.38032094497300073  0.8790543811015041  0.3856964081656926  1.0000
  C   C21       1.0  0.4318090632590313  0.44093837456346563  0.9445083242534267  1.0000
  C   C22       1.0  0.8170597457496246  0.05894797878477933  0.5554259687154968  1.0000
  C   C23       1.0  0.568199521142148  0.5590561417744341  0.05549421156705843  1.0000
  C   C24       1.0  0.18289043690340645  0.941057141830413  0.44455472986336286  1.0000
  C   C25       1.0  0.7768024027661796  0.6374508497132112  0.6135123446250931  1.0000
  C   C26       1.0  0.0281144129032217  0.8619424527478047  0.8868157258642598  1.0000
  C   C27       1.0  0.22319633228644875  0.36255376578301934  0.3864880012758292  1.0000
  C   C28       1.0  0.9719145732995005  0.13805300437030613  0.11319364450359606  1.0000
  C   C29       1.0  0.07952654493141874  0.5564615687905246  0.6983638388203985  1.0000
  C   C30       1.0  0.3348290047084037  0.9428793289099673  0.8019172766052451  1.0000
  C   C31       1.0  0.9204718606641936  0.4435407717877879  0.3016381539590966  1.0000
  C   C32       1.0  0.665187680555647  0.05712296701734941  0.19808653574591514  1.0000
  C   C33       1.0  0.7261484015573813  0.44994500604971693  0.5489117584478791  1.0000
  C   C34       1.0  0.7252413505423475  0.04984256285701601  0.9510461230043676  1.0000
  C   C35       1.0  0.27384512243907005  0.5500595117404857  0.4510923014208005  1.0000
  C   C36       1.0  0.27478024650215344  0.9501528202812468  0.04896603907467773  1.0000
  C   C37       1.0  0.9007124055796963  0.6685933001981965  0.6621630206882614  1.0000
  C   C38       1.0  0.2318536894351124  0.8307375359693835  0.8382217604546726  1.0000
  C   C39       1.0  0.09928632947293183  0.3314113152980412  0.3378373252126607  1.0000
  C   C40       1.0  0.7681693944660638  0.16926136755586194  0.16178379743760724  1.0000
  N   N1        1.0  0.13835058503176614  0.4181961534125735  0.6871802782595752  1.0000
  N   N2        1.0  0.24409161924020847  0.08130336024893128  0.8128705301151485  1.0000
  N   N3        1.0  0.861635881413527  0.5818072069438713  0.3128253298251166  1.0000
  N   N4        1.0  0.7559267499403645  0.9186954995753354  0.18713667481043217  1.0000
  N   N5        1.0  0.5359177410742293  0.529667592885403  0.5265596768332657  1.0000
  N   N6        1.0  0.5921726712849846  0.9701842110387492  0.9735061265205829  1.0000
  N   N7        1.0  0.4640750378579667  0.4703381198035077  0.4734413526946213  1.0000
  N   N8        1.0  0.40785491093944876  0.029807891142226605  0.026503507263626564  1.0000
  O   O1        1.0  0.1676359742399642  0.3680737512290264  0.9007656185537486  1.0000
  O   O2        1.0  0.436180155036901  0.1319427633724857  0.5989582789528142  1.0000
  O   O3        1.0  0.8323865325037971  0.6319233197227803  0.09922463084032523  1.0000
  O   O4        1.0  0.5637776730749664  0.8680485553907431  0.4010381968252474  1.0000
  O   O5        1.0  0.4965433806307473  0.34035711049097733  0.8193012503266246  1.0000
  O   O6        1.0  0.6558482463171487  0.1593213606120045  0.6806300265181378  1.0000
  O   O7        1.0  0.503479341482084  0.6596476120653421  0.18069513424376277  1.0000
  O   O8        1.0  0.3441223941063639  0.8406836916260262  0.3193534138889618  1.0000
