data_image0
_chemical_formula_structural       Zn4H24C30O13
_chemical_formula_sum              "Zn4 H24 C30 O13"
_cell_length_a       10.836270997219124
_cell_length_b       10.872341218893707
_cell_length_c       15.570098345404473
_cell_angle_alpha    71.66190275072833
_cell_angle_beta     86.66341478784798
_cell_angle_gamma    83.90264722164034

_space_group_name_H-M_alt    "P 1"
_space_group_IT_number       1

loop_
  _space_group_symop_operation_xyz
  'x, y, z'

loop_
  _atom_site_type_symbol
  _atom_site_label
  _atom_site_symmetry_multiplicity
  _atom_site_fract_x
  _atom_site_fract_y
  _atom_site_fract_z
  _atom_site_occupancy
  Zn  Zn1       1.0  0.5983647173981694  0.5569182460278839  0.5802097682708763  1.0000
  Zn  Zn2       1.0  0.6159281891426643  0.41311815773609323  0.4278681755469265  1.0000
  Zn  Zn3       1.0  0.4105821451647814  0.64454317092801  0.41642424296275493  1.0000
  Zn  Zn4       1.0  0.3920746955886472  0.3757940209649391  0.5807707420542343  1.0000
  H   H1        1.0  0.5241112538624789  0.8261359341692651  0.1394902523108073  1.0000
  H   H2        1.0  0.7455860947911431  0.10231741373484479  0.6224266772019503  1.0000
  H   H3        1.0  0.6242315400540406  0.06235756880451498  0.7055070432892592  1.0000
  H   H4        1.0  0.7653339957164746  0.9605885373854689  0.7175258656887847  1.0000
  H   H5        1.0  0.6063087064901892  0.8548893067580394  0.664036800291605  1.0000
  H   H6        1.0  0.7220560866702783  0.8982736957743636  0.5810291584309014  1.0000
  H   H7        1.0  0.689340862147617  0.8766126470328928  0.879996953168451  1.0000
  H   H8        1.0  0.6751606950567534  0.0402390647023552  0.8821940392954488  1.0000
  H   H9        1.0  0.7257052052655338  0.9101629044281908  0.9794453483955649  1.0000
  H   H10       1.0  0.46393402314651416  0.9603483244273221  0.9000844239051133  1.0000
  H   H11       1.0  0.503368964353598  0.989485907034641  0.9995417219673612  1.0000
  H   H12       1.0  0.016831767195427002  0.5681208603372879  0.3775511951542184  1.0000
  H   H13       1.0  0.46462208019676143  0.11146339628028562  0.1731503242501091  1.0000
  H   H14       1.0  0.5420274388534311  0.2365892320603322  0.1907369114067734  1.0000
  H   H15       1.0  0.418974899147699  0.17013127985990908  0.2657384036794923  1.0000
  H   H16       1.0  0.3331744493562852  0.3830883392258073  0.1603557212043114  1.0000
  H   H17       1.0  0.26796510389041817  0.253786159322793  0.1405357228313378  1.0000
  H   H18       1.0  0.006916185397166404  0.41269808021525006  0.5811312452193534  1.0000
  H   H19       1.0  0.4958493935790641  0.8203814100428416  0.8337597292678894  1.0000
  H   H20       1.0  0.5047195664597693  0.4266844259703575  0.16373381729884073  1.0000
  H   H21       1.0  0.3731727632627155  0.21580460081568725  0.861723503037382  1.0000
  H   H22       1.0  0.3287360982628583  0.16824334019955958  0.026462770495832903  1.0000
  H   H23       1.0  0.4799609545544285  0.6525753631490616  0.7636450269060902  1.0000
  H   H24       1.0  0.4110807460016659  0.028429065228465288  0.4542120778935583  1.0000
  C   C1        1.0  0.528751810577802  0.15695054499793315  0.5317836517139439  1.0000
  C   C2        1.0  0.49697971832947024  0.5268278395571568  0.1204239811865975  1.0000
  C   C3        1.0  0.5134767232554721  0.7531302050476396  0.10654835096760715  1.0000
  C   C4        1.0  0.4887100471749974  0.82787864254756  0.5002551452323871  1.0000
  C   C5        1.0  0.4343074681931752  0.40306111140112216  0.8453847509085292  1.0000
  C   C6        1.0  0.47982854690958726  0.9638503707598288  0.499869678078717  1.0000
  C   C7        1.0  0.5489755300592094  0.012521307312923093  0.548688970696837  1.0000
  C   C8        1.0  0.0484692792202921  0.5147071158427535  0.44551549255117356  1.0000
  C   C9        1.0  0.9707986937252002  0.45893359269051354  0.5133965083017883  1.0000
  C   C10       1.0  0.83402100543578  0.46820162263274767  0.5063211056467836  1.0000
  C   C11       1.0  0.1816730192625897  0.5148803386171749  0.4634367699848384  1.0000
  C   C12       1.0  0.3686193739269896  0.25843421368057307  0.988621688146999  1.0000
  C   C13       1.0  0.5262348586579363  0.5852792993773406  0.25932336296104813  1.0000
  C   C14       1.0  0.4585037708846755  0.42408151291701285  0.7466929991007306  1.0000
  C   C15       1.0  0.5072849947939488  0.7878047559758983  0.013326773138842897  1.0000
  C   C16       1.0  0.5131828326933955  0.622027597644731  0.15983881627596466  1.0000
  C   C17       1.0  0.3911930162369188  0.2851863604670442  0.8959150811043203  1.0000
  C   C18       1.0  0.6463605141722369  0.940196738571302  0.6165887349335007  1.0000
  C   C19       1.0  0.6980046185266245  0.02140182182732529  0.6681541895248131  1.0000
  C   C20       1.0  0.5271980586862881  0.9256550896104653  0.9573166328077536  1.0000
  C   C21       1.0  0.6621987971313317  0.9392852662401407  0.9225095177356551  1.0000
  C   C22       1.0  0.3550964897817508  0.299817329541895  0.13487360230774212  1.0000
  C   C23       1.0  0.3925267870335887  0.3435275674378459  0.03530803901364983  1.0000
  C   C24       1.0  0.4508167530699509  0.19932452202300505  0.1944990187155966  1.0000
  C   C25       1.0  0.4419479802451888  0.46367305768504957  0.9859017304121308  1.0000
  C   C26       1.0  0.4544816694409093  0.49645933511140317  0.888986404426639  1.0000
  C   C27       1.0  0.4740591313346413  0.5591828020173891  0.02740477412066165  1.0000
  C   C28       1.0  0.48826104022649736  0.6907580436799065  0.9725426584872211  1.0000
  C   C29       1.0  0.48625687766723047  0.7209285071933138  0.8765366749975526  1.0000
  C   C30       1.0  0.4759742044505727  0.6271829661740752  0.8369738095987813  1.0000
  O   O1        1.0  0.5035498014485499  0.4950818124178441  0.5017125941035872  1.0000
  O   O2        1.0  0.5662590944696146  0.46738682381680247  0.30137146219675515  1.0000
  O   O3        1.0  0.3911582630391379  0.3676161918044371  0.708405680040535  1.0000
  O   O4        1.0  0.4953312292897748  0.6739044270074429  0.2966145727519987  1.0000
  O   O5        1.0  0.5465963499755658  0.4927247153417795  0.7080076409215152  1.0000
  O   O6        1.0  0.7740456118709248  0.49397570173712063  0.5726602273586678  1.0000
  O   O7        1.0  0.22324985257341004  0.43371264151431166  0.5367812664129303  1.0000
  O   O8        1.0  0.6068938786252928  0.22296512416365027  0.47709774423395157  1.0000
  O   O9        1.0  0.4104228391442461  0.8020736924056064  0.450970977863797  1.0000
  O   O10       1.0  0.4379855603877942  0.19801887611594532  0.5740215122355394  1.0000
  O   O11       1.0  0.572370309146592  0.7469462819167134  0.5478165832047283  1.0000
  O   O12       1.0  0.7887170643686547  0.45050857523753507  0.43783501644442413  1.0000
  O   O13       1.0  0.2422120802542266  0.5984311311806252  0.4040754362396869  1.0000
