data_image0
_chemical_formula_structural       Zn2H22C38S2N2O16
_chemical_formula_sum              "Zn2 H22 C38 S2 N2 O16"
_cell_length_a       12.763715006218158
_cell_length_b       16.411974674858293
_cell_length_c       17.72135919811103
_cell_angle_alpha    95.01434578639234
_cell_angle_beta     90.08862734438677
_cell_angle_gamma    91.95236319638796

_space_group_name_H-M_alt    "P 1"
_space_group_IT_number       1

loop_
  _space_group_symop_operation_xyz
  'x, y, z'

loop_
  _atom_site_type_symbol
  _atom_site_label
  _atom_site_symmetry_multiplicity
  _atom_site_fract_x
  _atom_site_fract_y
  _atom_site_fract_z
  _atom_site_occupancy
  Zn  Zn1       1.0  0.4983695113087379  0.4133926000038671  0.49873876090250496  1.0000
  Zn  Zn2       1.0  0.49986491729573157  0.5864785712607559  0.5040352230481561  1.0000
  H   H1        1.0  0.39013702521147303  0.7146220622155115  0.4265806824528441  1.0000
  H   H2        1.0  0.3962547040975934  0.8653015382351584  0.42726269891284124  1.0000
  H   H3        1.0  0.6448460971624215  0.866614654782069  0.5963545088466092  1.0000
  H   H4        1.0  0.6286126678929945  0.7186594215440395  0.585163447574722  1.0000
  H   H5        1.0  0.3583941827512404  0.13349176442131488  0.40205359442277466  1.0000
  H   H6        1.0  0.6042842447261662  0.13425701281781247  0.573241860811642  1.0000
  H   H7        1.0  0.6082077984471824  0.2850914095531749  0.575966049739698  1.0000
  H   H8        1.0  0.3728592912422997  0.2811576236388334  0.41451108592523417  1.0000
  H   H9        1.0  0.5083270488172503  0.6165790946657241  0.2657343753312134  1.0000
  H   H10       1.0  0.506789155339753  0.6103488480798945  0.12655884281624452  1.0000
  H   H11       1.0  0.49131687442266525  0.344789679935765  0.12046293508139173  1.0000
  H   H12       1.0  0.48918801556562386  0.35477155940587585  0.25686038323539867  1.0000
  H   H13       1.0  0.5053714742061571  0.6549218698815835  0.8822821436117182  1.0000
  H   H14       1.0  0.49750184055191937  0.38947130091074206  0.8769633910556822  1.0000
  H   H15       1.0  0.4985285736337417  0.382687476100685  0.7378294997624552  1.0000
  H   H16       1.0  0.5033660241971276  0.6444476307873543  0.7458043654007583  1.0000
  H   H17       1.0  0.643358615877716  0.9662929425996014  0.5896017620267316  1.0000
  H   H18       1.0  0.35955316548292865  0.03360564163745039  0.40888187042013163  1.0000
  H   H19       1.0  0.4915974283641588  0.352874193514964  0.03162873728256701  1.0000
  H   H20       1.0  0.5083136636397683  0.6472414813301555  0.9715774588275892  1.0000
  H   H21       1.0  0.04097905206634071  0.3322114955338549  0.5682001449465944  1.0000
  H   H22       1.0  0.9694736962803459  0.6746884314395915  0.5823371541054813  1.0000
  C   C1        1.0  0.49807808920390767  0.4906451035350515  0.3551430919804731  1.0000
  C   C2        1.0  0.29417610659319854  0.49567422072295414  0.4969544532386294  1.0000
  C   C3        1.0  0.5004726486166645  0.5081192136352115  0.6478427051427644  1.0000
  C   C4        1.0  0.703732914240092  0.5052334559666748  0.4999110346016167  1.0000
  C   C5        1.0  0.445209819853197  0.751942730889468  0.4631941595046742  1.0000
  C   C6        1.0  0.4488975962520954  0.8365500899104248  0.46399555830999634  1.0000
  C   C7        1.0  0.5201493233116068  0.883879371549668  0.5124998412185422  1.0000
  C   C8        1.0  0.5855013001461558  0.8387296674930412  0.556782108489202  1.0000
  C   C9        1.0  0.5776444197074825  0.7540309315987274  0.5521198514914902  1.0000
  C   C10       1.0  0.5297310180137346  0.9735272360173612  0.5191897524829657  1.0000
  C   C11       1.0  0.4722373639053856  0.026243377298222004  0.4800454761940998  1.0000
  C   C12       1.0  0.4169419653447051  0.1611781891912329  0.4423860986929641  1.0000
  C   C13       1.0  0.48172745461008043  0.11592956494680354  0.48695509787959423  1.0000
  C   C14       1.0  0.5519889983676692  0.16312088410744255  0.5363692175346061  1.0000
  C   C15       1.0  0.5546127310070474  0.24777386581029506  0.5381705079855763  1.0000
  C   C16       1.0  0.4238393295585894  0.24599387248381535  0.44777099392948133  1.0000
  C   C17       1.0  0.4981563963974408  0.4862567691276213  0.2707025813784867  1.0000
  C   C18       1.0  0.503679255771381  0.557454470699824  0.2324825202384703  1.0000
  C   C19       1.0  0.5032487170021014  0.5538169754298821  0.15388198620991742  1.0000
  C   C20       1.0  0.49867209414830427  0.4778548626907906  0.10902450293314563  1.0000
  C   C21       1.0  0.49417236137397674  0.4066980798809753  0.14916009487289736  1.0000
  C   C22       1.0  0.4932073337750822  0.41055163853356913  0.22771546128112874  1.0000
  C   C23       1.0  0.4986869550245601  0.46914792167790165  0.025793792989247815  1.0000
  C   C24       1.0  0.5019632471466977  0.5308714227350038  0.9773592658422177  1.0000
  C   C25       1.0  0.5037312663482396  0.5929670105477884  0.8537420384289265  1.0000
  C   C26       1.0  0.5017706334288902  0.5219810527688794  0.8941594317847291  1.0000
  C   C27       1.0  0.49964914285869366  0.4458962356863482  0.8494680543070745  1.0000
  C   C28       1.0  0.5001220120302179  0.44197112961978047  0.7708705406232002  1.0000
  C   C29       1.0  0.501459360652113  0.5129732008685154  0.7323258959911102  1.0000
  C   C30       1.0  0.5029319666634322  0.588791272962226  0.7751604375758492  1.0000
  C   C31       1.0  0.1055161820752843  0.42893428073744394  0.4877984657393173  1.0000
  C   C32       1.0  0.8923353458284069  0.5720862297312125  0.49650099064837877  1.0000
  C   C33       1.0  0.1779121971281512  0.4942155240292366  0.4914829836380577  1.0000
  C   C34       1.0  0.8199255234028868  0.5067402887674534  0.4938460383844971  1.0000
  C   C35       1.0  0.996512744054442  0.5433069419567005  0.4947126751207166  1.0000
  C   C36       1.0  0.0012615987951321024  0.457560232227948  0.49021282749958334  1.0000
  C   C37       1.0  0.12912989034025904  0.3399985128878598  0.4803002050646512  1.0000
  C   C38       1.0  0.8686616463662913  0.6609029624793765  0.499679873481526  1.0000
  S   S1        1.0  0.12056065830854121  0.5887820730496501  0.4952875553996422  1.0000
  S   S2        1.0  0.8771951837360632  0.4120408210729282  0.48713164329116415  1.0000
  N   N1        1.0  0.5077522287286768  0.7108440865498056  0.5066247543248255  1.0000
  N   N2        1.0  0.49222636021295324  0.2890112684469345  0.49473970834181813  1.0000
  O   O1        1.0  0.47843156054546654  0.4242923514391919  0.3857704271315471  1.0000
  O   O2        1.0  0.5178673212908791  0.5605103322957988  0.3905642085373416  1.0000
  O   O3        1.0  0.33903267112730623  0.564661527985834  0.4873501061064404  1.0000
  O   O4        1.0  0.33685612977284046  0.43046199368028243  0.5118590791796933  1.0000
  O   O5        1.0  0.482100581440541  0.5736419803601792  0.6170562462892664  1.0000
  O   O6        1.0  0.517845733540632  0.43869556402081145  0.612681813131978  1.0000
  O   O7        1.0  0.6591825363416887  0.4350027546943452  0.4844074689436227  1.0000
  O   O8        1.0  0.6605483528076307  0.571709602095062  0.5206606404663106  1.0000
  O   O9        1.0  0.6027042150649037  0.0089382347344369  0.5700491232801568  1.0000
  O   O10       1.0  0.39910196870397396  0.9908855295342963  0.42937589865955783  1.0000
  O   O11       1.0  0.4949268834884606  0.3901461698897748  0.9918925654824449  1.0000
  O   O12       1.0  0.5054218875273904  0.6099115191513607  0.011250801325182625  1.0000
  O   O13       1.0  0.07784792465150758  0.2953068923620564  0.531754877320644  1.0000
  O   O14       1.0  0.18322560040674318  0.3058529921779255  0.43191529565949344  1.0000
  O   O15       1.0  0.9268091191562249  0.709167541337948  0.5530387634128218  1.0000
  O   O16       1.0  0.8083427874361033  0.6921794847538154  0.4590160107769778  1.0000
