data_image0
_chemical_formula_structural       Zn2H20C30O12
_chemical_formula_sum              "Zn2 H20 C30 O12"
_cell_length_a       6.273982565537843
_cell_length_b       7.22625384306803
_cell_length_c       14.590204782937757
_cell_angle_alpha    103.99475986903009
_cell_angle_beta     90.05526088596372
_cell_angle_gamma    89.95592957606901

_space_group_name_H-M_alt    "P 1"
_space_group_IT_number       1

loop_
  _space_group_symop_operation_xyz
  'x, y, z'

loop_
  _atom_site_type_symbol
  _atom_site_label
  _atom_site_symmetry_multiplicity
  _atom_site_fract_x
  _atom_site_fract_y
  _atom_site_fract_z
  _atom_site_occupancy
  Zn  Zn1       1.0  0.3087885675731528  0.7499952596887596  0.4999369643501053  1.0000
  Zn  Zn2       1.0  0.6912018738750659  0.2500261232791061  0.5000783987467797  1.0000
  H   H1        1.0  0.5607527244681307  0.4006612462296032  0.04077957534912707  1.0000
  H   H2        1.0  0.5608260770136653  0.09936367707213381  0.9592447760570262  1.0000
  H   H3        1.0  0.43918348724769624  0.5993944671102723  0.9592200498995067  1.0000
  H   H4        1.0  0.4392137268340619  0.9006664122274014  0.040736692729140545  1.0000
  H   H5        1.0  0.40522900861829925  0.5182084605570763  0.1996232988967036  1.0000
  H   H6        1.0  0.4052576188645247  0.9817853605562872  0.800333185289247  1.0000
  H   H7        1.0  0.5947582587557322  0.4817715672395905  0.8003863812741583  1.0000
  H   H8        1.0  0.5947710614146828  0.0182118508543141  0.1996614436981402  1.0000
  H   H9        1.0  0.9664547861674322  0.34027646881924045  0.3252323837433335  1.0000
  H   H10       1.0  0.9659650473705738  0.15969400359121264  0.6750092412529367  1.0000
  H   H11       1.0  0.03358025598804199  0.6596794824903539  0.6747353283089692  1.0000
  H   H12       1.0  0.0339791479208955  0.840279043358251  0.3249687450971876  1.0000
  H   H13       1.0  0.12835008807320492  0.22754934445631383  0.16498970163779345  1.0000
  H   H14       1.0  0.12799864519074328  0.27244792212711383  0.8353022679287674  1.0000
  H   H15       1.0  0.8716371206656247  0.7724194963292276  0.8349699638794373  1.0000
  H   H16       1.0  0.8719726032101321  0.7275793981865136  0.16466377548460537  1.0000
  H   H17       1.0  0.8968351171798546  0.8598919100616766  0.5264041858415637  1.0000
  H   H18       1.0  0.8970299627043871  0.6400430614525519  0.47335204831070826  1.0000
  H   H19       1.0  0.1031617840565531  0.14016050909598476  0.47368895097602587  1.0000
  H   H20       1.0  0.1029621455400118  0.3600165208900421  0.5267350992587152  1.0000
  C   C1        1.0  0.6773032677636337  0.4387116265780406  0.272215013513481  1.0000
  C   C2        1.0  0.6771373929752683  0.06119259818764529  0.7278956406509776  1.0000
  C   C3        1.0  0.3226903615541375  0.561286965159013  0.7277914277320361  1.0000
  C   C4        1.0  0.32285783161226084  0.938804563909791  0.27211131352605367  1.0000
  C   C5        1.0  0.6510754600520486  0.3857493151624424  0.10221853228537008  1.0000
  C   C6        1.0  0.6509932135830924  0.11432166590240908  0.8978467898279302  1.0000
  C   C7        1.0  0.34892770207729734  0.6142607778854837  0.8977687385666397  1.0000
  C   C8        1.0  0.34900354870055145  0.8857098805689885  0.10213004965157774  1.0000
  C   C9        1.0  0.8562649976786715  0.3053840879319195  0.09222559983678018  1.0000
  C   C10       1.0  0.8561285538031881  0.19469716645977533  0.9079479331671929  1.0000
  C   C11       1.0  0.14373016023090202  0.6946247058994716  0.9077340968880702  1.0000
  C   C12       1.0  0.1438841348487117  0.8053372697068395  0.09202034818746795  1.0000
  C   C13       1.0  0.5628487371779728  0.4530824190150682  0.19166754544057332  1.0000
  C   C14       1.0  0.5627339279592007  0.04691165691347981  0.8083654397316449  1.0000
  C   C15       1.0  0.4371608317341042  0.5469090447658755  0.8083366665675836  1.0000
  C   C16       1.0  0.4372405511845159  0.9531012663424858  0.19162833655204276  1.0000
  C   C17       1.0  0.8802717438534344  0.35401958116894156  0.2623849539559656  1.0000
  C   C18       1.0  0.8799527448736627  0.1459744739116431  0.737807764403534  1.0000
  C   C19       1.0  0.119713870095822  0.6459293217375116  0.7375661336347502  1.0000
  C   C20       1.0  0.12004563695332851  0.8540042788207599  0.26216817940801457  1.0000
  C   C21       1.0  0.9714204738133674  0.2500595062792144  0.00014535584671899983  1.0000
  C   C22       1.0  0.028589066323569102  0.7500160984923381  0.9998697083566409  1.0000
  C   C23       1.0  0.9691765925371384  0.289569529985826  0.17339888260792685  1.0000
  C   C24       1.0  0.9689030311442793  0.21051403335459898  0.8268156010369762  1.0000
  C   C25       1.0  0.0307978421690365  0.7103894242438569  0.8265390242545717  1.0000
  C   C26       1.0  0.031112841087590902  0.7894947780291801  0.17313930372715444  1.0000
  C   C27       1.0  0.5883640594109565  0.5171623766248314  0.3685184982926513  1.0000
  C   C28       1.0  0.5882108259126326  0.9826557195170905  0.6315035477333237  1.0000
  C   C29       1.0  0.4117156559056668  0.48280765160324524  0.6314893046107385  1.0000
  C   C30       1.0  0.4117541149679909  0.017318658409685397  0.36849447951503567  1.0000
  O   O1        1.0  0.9935398472719114  0.7501480438564058  0.4996387809634653  1.0000
  O   O2        1.0  0.0064428769767773  0.24983541160010245  0.5005577394909932  1.0000
  O   O3        1.0  0.40830474966926994  0.6017787370804797  0.3748102703422304  1.0000
  O   O4        1.0  0.4082179739373331  0.8980597811907951  0.6251292033537651  1.0000
  O   O5        1.0  0.5917909443168057  0.39817832696747496  0.6252233846462827  1.0000
  O   O6        1.0  0.5917214839700549  0.10193020231056238  0.3748898960174215  1.0000
  O   O7        1.0  0.1691962863010872  0.25009111784963517  0.00015782674301329384  1.0000
  O   O8        1.0  0.830821196136192  0.7499689132321803  0.9998299975445231  1.0000
  O   O9        1.0  0.6962765897207461  0.5024633102460283  0.44095532341600546  1.0000
  O   O10       1.0  0.6960242254307972  0.9973262841836995  0.559126174435711  1.0000
  O   O11       1.0  0.3038174525051645  0.4974854132064335  0.5590300313569398  1.0000
  O   O12       1.0  0.3039295518008203  0.0026239044212844  0.4408572763415747  1.0000
