data_image0
_chemical_formula_structural       Zn6H29C40N3O30
_chemical_formula_sum              "Zn6 H29 C40 N3 O30"
_cell_length_a       18.7675109523828
_cell_length_b       18.808421594334092
_cell_length_c       18.82306961191597
_cell_angle_alpha    109.20023392289325
_cell_angle_beta     108.95925687333414
_cell_angle_gamma    109.50444650217561

_space_group_name_H-M_alt    "P 1"
_space_group_IT_number       1

loop_
  _space_group_symop_operation_xyz
  'x, y, z'

loop_
  _atom_site_type_symbol
  _atom_site_label
  _atom_site_symmetry_multiplicity
  _atom_site_fract_x
  _atom_site_fract_y
  _atom_site_fract_z
  _atom_site_occupancy
  Zn  Zn1       1.0  0.939283336457507  0.4940093997328461  0.9432149078259752  1.0000
  Zn  Zn2       1.0  0.0715215525122943  0.5169984360029717  0.07848765124376199  1.0000
  Zn  Zn3       1.0  0.5029438864274027  0.06313133333241439  0.06106625284420628  1.0000
  Zn  Zn4       1.0  0.5013492188925213  0.9437150328488072  0.9321780808553155  1.0000
  Zn  Zn5       1.0  0.9339159437538739  0.9477838704826952  0.5111221923723617  1.0000
  Zn  Zn6       1.0  0.06108242085814909  0.06836868300731427  0.509569871048498  1.0000
  H   H1        1.0  0.7146157841028328  0.3399824450378404  0.9457853473536485  1.0000
  H   H2        1.0  0.7820904567520798  0.37449646983408497  0.05469351450260969  1.0000
  H   H3        1.0  0.6683308066090345  0.2654960485565425  0.04697574419019898  1.0000
  H   H4        1.0  0.6062308712995514  0.22404038222465766  0.9350056401366369  1.0000
  H   H5        1.0  0.6180684685515628  0.1122461740125615  0.8290693573764683  1.0000
  H   H6        1.0  0.8923097534796085  0.24794523647680217  0.024892229126393793  1.0000
  H   H7        1.0  0.88425160828681  0.3266196670854526  0.09832945565974427  1.0000
  H   H8        1.0  0.778929817023318  0.2190372522072437  0.10091731367130308  1.0000
  H   H9        1.0  0.7860957431234966  0.13908017778153686  0.026073209836560793  1.0000
  H   H10       1.0  0.030814086357885538  0.802926153665318  0.34596828669163654  1.0000
  H   H11       1.0  0.8659949494388712  0.6398411359572407  0.11383035506636216  1.0000
  H   H12       1.0  0.03442145261962538  0.690324872658671  0.2683181623786125  1.0000
  H   H13       1.0  0.3330666322586282  0.8688140650624306  0.07821090166561358  1.0000
  H   H14       1.0  0.27482643667336487  0.7263538436215243  0.8986192121110218  1.0000
  H   H15       1.0  0.24656160525094603  0.7419795553055338  0.08942473715467257  1.0000
  H   H16       1.0  0.11769179306939742  0.6808827789907212  0.902715071432041  1.0000
  H   H17       1.0  0.054286134738561025  0.2642318896779443  0.6930856708765701  1.0000
  H   H18       1.0  0.9632299413767242  0.14167969095495192  0.7492984606898856  1.0000
  H   H19       1.0  0.016941290975147093  0.3606372099298625  0.7871898153719595  1.0000
  H   H20       1.0  0.09200264072135395  0.29981738716002576  0.9118260898522191  1.0000
  H   H21       1.0  0.314058290496213  0.09294796338004126  0.682522393437736  1.0000
  H   H22       1.0  0.3926141425033832  0.03761295319931429  0.7716862653157006  1.0000
  H   H23       1.0  0.3083419207996343  0.09589574047407731  0.8783209905628764  1.0000
  H   H24       1.0  0.8689761388207914  0.08279375245647468  0.30851968753479037  1.0000
  H   H25       1.0  0.6641976342617112  0.06791728285327994  0.2980987486457848  1.0000
  H   H26       1.0  0.7165414838154475  0.9834037359957577  0.16843720288522945  1.0000
  H   H27       1.0  0.6925388335091397  0.07771768812202128  0.8646134601672129  1.0000
  H   H28       1.0  0.17609170572787738  0.993597666592713  0.7199283036744359  1.0000
  H   H29       1.0  0.752356081787326  0.016156204513769947  0.38157484326650587  1.0000
  C   C1        1.0  0.9970565826292556  0.6047516133946118  0.13658961949688117  1.0000
  C   C2        1.0  0.8719688341007197  0.36714931300551956  0.9731197917916742  1.0000
  C   C3        1.0  0.059374371108972826  0.40419198348933355  0.9460047919304485  1.0000
  C   C4        1.0  0.08485478785977553  0.6211481366725451  0.9783596798047893  1.0000
  C   C5        1.0  0.7416560223447133  0.31802345676234706  0.9895050889721159  1.0000
  C   C6        1.0  0.66999786051106  0.24447547803937641  0.9861970469990307  1.0000
  C   C7        1.0  0.7514511692446887  0.20549184841276977  0.8795235470570258  1.0000
  C   C8        1.0  0.8459196316276446  0.2666035019772295  0.036250609967368085  1.0000
  C   C9        1.0  0.8040913013212148  0.28942934109587537  0.9678226637351766  1.0000
  C   C10       1.0  0.6854123232704055  0.16647393928081292  0.9677910603280746  1.0000
  C   C11       1.0  0.682171415226513  0.13359507214679675  0.8799789243011984  1.0000
  C   C12       1.0  0.7762386066458474  0.19542485749939692  0.0379124581850121  1.0000
  C   C13       1.0  0.9048293775010235  0.7340705970665837  0.24309225382852148  1.0000
  C   C14       1.0  0.9662889459325541  0.7961989037816083  0.3243079588909693  1.0000
  C   C15       1.0  0.9161047613674496  0.6743699990842984  0.18125793125315676  1.0000
  C   C16       1.0  0.9843479259535997  0.6608962589639589  0.20180538518781785  1.0000
  C   C17       1.0  0.29132469023976165  0.8040940647165797  0.021496592605117795  1.0000
  C   C18       1.0  0.3079528629040238  0.790110505580472  0.9551311241502273  1.0000
  C   C19       1.0  0.22711036473937438  0.7404123680582798  0.027171875609191393  1.0000
  C   C20       1.0  0.14461800135834563  0.6826334545854634  0.9644670703608251  1.0000
  C   C21       1.0  0.03177350474622627  0.2482731231493814  0.7355337116516618  1.0000
  C   C22       1.0  0.9941222873319334  0.1643916429136  0.7151222284222951  1.0000
  C   C23       1.0  0.036903189991860964  0.31737648075714014  0.804096361339077  1.0000
  C   C24       1.0  0.06461935610840892  0.33452027509083854  0.8864417548551341  1.0000
  C   C25       1.0  0.40184947333028725  0.052024714794605104  0.9189406784621138  1.0000
  C   C26       1.0  0.618642200454012  0.09577170902174001  0.9706060376043407  1.0000
  C   C27       1.0  0.6159225878238671  0.017742070821867496  0.13024247054794094  1.0000
  C   C28       1.0  0.378378906912168  0.8611096774032774  0.9604514612627779  1.0000
  C   C29       1.0  0.13877481302092312  0.02745450134501235  0.6197017773151072  1.0000
  C   C30       1.0  0.9626183545953422  0.8644600783467098  0.38896063596558145  1.0000
  C   C31       1.0  0.9093330001366271  0.04421092312648515  0.405873018909041  1.0000
  C   C32       1.0  0.9861810941392546  0.09831549248778494  0.6391562728958105  1.0000
  C   C33       1.0  0.28875062219282904  0.06383878546248674  0.7167329871187248  1.0000
  C   C34       1.0  0.2034184386728838  0.028934179909995847  0.6910933889237538  1.0000
  C   C35       1.0  0.34660191897150117  0.05640510710771446  0.7836519431441854  1.0000
  C   C36       1.0  0.34663016108549977  0.06958581085013553  0.8585351285465703  1.0000
  C   C37       1.0  0.768004603905652  0.036466194194524244  0.33785809054735677  1.0000
  C   C38       1.0  0.8467176514318525  0.05521569713229001  0.3449693239564126  1.0000
  C   C39       1.0  0.7029839177382157  0.04322835696412846  0.2769061731952433  1.0000
  C   C40       1.0  0.6846000730345592  0.015298889643759112  0.19406891229772325  1.0000
  N   N1        1.0  0.8134733593403495  0.17583174064211704  0.8563716028607258  1.0000
  N   N2        1.0  0.8167148573317462  0.7239548791509733  0.20996425932744234  1.0000
  N   N3        1.0  0.7073441301632429  0.21895278053316503  0.8027966013996843  1.0000
  O   O1        1.0  0.947188228314708  0.5739065900172308  0.056929144607771286  1.0000
  O   O2        1.0  0.06104377752010487  0.5920604404721176  0.16835067779824434  1.0000
  O   O3        1.0  0.8440089688081044  0.38821745042446304  0.9153617712847218  1.0000
  O   O4        1.0  0.9473997626827071  0.409523085885546  0.036490642595161694  1.0000
  O   O5        1.0  0.008174412112069278  0.42909712543951173  0.914004148328743  1.0000
  O   O6        1.0  0.1067268531521322  0.43649994892853533  0.028200304626999195  1.0000
  O   O7        1.0  0.0036232961316640605  0.5808450598941945  0.9216159254324406  1.0000
  O   O8        1.0  0.1155023124481573  0.6112511922616265  0.04315098340495639  1.0000
  O   O9        1.0  0.42495251154765856  0.09463740083987911  0.9996601446209039  1.0000
  O   O10       1.0  0.42298555095178597  0.9963831675571769  0.8884041390759589  1.0000
  O   O11       1.0  0.5984065571581069  0.11962442744913909  0.028689470879015688  1.0000
  O   O12       1.0  0.5884724036651859  0.01646727089008949  0.9150957922341401  1.0000
  O   O13       1.0  0.5869581689310622  0.06823882696997431  0.15794000045094944  1.0000
  O   O14       1.0  0.5899108960685098  0.9690745273845919  0.05122000306376859  1.0000
  O   O15       1.0  0.408939771829246  0.9382216041387751  0.018213560234208594  1.0000
  O   O16       1.0  0.4052314691758878  0.8395719022056908  0.9057961135320053  1.0000
  O   O17       1.0  0.059971341684345675  0.974780647322703  0.5917616453655653  1.0000
  O   O18       1.0  0.16432498791968436  0.07815673142319923  0.5898807120789229  1.0000
  O   O19       1.0  0.9121957265506923  0.8425555574767357  0.41943367692373795  1.0000
  O   O20       1.0  0.016342269843121867  0.9405441756537413  0.4118992372933049  1.0000
  O   O21       1.0  0.8815508684457143  0.9929737101975319  0.43279174911288  1.0000
  O   O22       1.0  0.9897406040056251  0.0887224636437338  0.4274058413295946  1.0000
  O   O23       1.0  0.9313300469932387  0.018634658977291007  0.610671639809304  1.0000
  O   O24       1.0  0.03211523686855597  0.1227896293274569  0.6059253184291576  1.0000
  O   O25       1.0  0.887941335188813  0.23302633846708426  0.8858433364017767  1.0000
  O   O26       1.0  0.7834023688955224  0.09796866831013054  0.8097794083220502  1.0000
  O   O27       1.0  0.7561109174114192  0.6490301149894505  0.1573735459954406  1.0000
  O   O28       1.0  0.8095965253456399  0.7893356180284313  0.23644910346916242  1.0000
  O   O29       1.0  0.645224258741301  0.22986258462643142  0.7988121564340315  1.0000
  O   O30       1.0  0.7355793921360386  0.2162949056955127  0.7521578183423683  1.0000
