data_image0
_chemical_formula_structural       Al4H12C32S8O24
_chemical_formula_sum              "Al4 H12 C32 S8 O24"
_cell_length_a       6.646417725970214
_cell_length_b       14.332989563918174
_cell_length_c       19.928245549066496
_cell_angle_alpha    89.70978085669076
_cell_angle_beta     87.59702381853124
_cell_angle_gamma    92.0840871174033

_space_group_name_H-M_alt    "P 1"
_space_group_IT_number       1

loop_
  _space_group_symop_operation_xyz
  'x, y, z'

loop_
  _atom_site_type_symbol
  _atom_site_label
  _atom_site_symmetry_multiplicity
  _atom_site_fract_x
  _atom_site_fract_y
  _atom_site_fract_z
  _atom_site_occupancy
  Al  Al1       1.0  0.02864464224114731  0.9965738635385293  0.500076218186912  1.0000
  Al  Al2       1.0  0.529507870486114  0.0031843638415125  0.5013072074370655  1.0000
  Al  Al3       1.0  0.9713665526881102  0.49975014641456283  0.0024776474517977996  1.0000
  Al  Al4       1.0  0.4714292490678744  0.4986362380645203  0.0021380029897458005  1.0000
  H   H1        1.0  0.8026137569617121  0.11589275477495421  0.4735599860804384  1.0000
  H   H2        1.0  0.2882188290794829  0.8876444894154714  0.46710498932110767  1.0000
  H   H3        1.0  0.7187645616710938  0.38486363678720176  0.9733894653359628  1.0000
  H   H4        1.0  0.2350782949843548  0.6159669881680402  0.9772251529989262  1.0000
  H   H5        1.0  0.5387074353357518  0.29441036762094086  0.8404277759460115  1.0000
  H   H6        1.0  0.0355489648935148  0.7017207353607091  0.1541405616150939  1.0000
  H   H7        1.0  0.44341564687898233  0.714393909384725  0.8468589452899807  1.0000
  H   H8        1.0  0.525715912754599  0.30571165206261247  0.151071058829487  1.0000
  H   H9        1.0  0.8057668204067739  0.23151617104062444  0.6770070617580757  1.0000
  H   H10       1.0  0.3050761466703236  0.7702603421215815  0.32885997712755  1.0000
  H   H11       1.0  0.1981319144027935  0.7622474159671312  0.6733530394967033  1.0000
  H   H12       1.0  0.8176916253517491  0.22793822897308044  0.3367420943377653  1.0000
  C   C1        1.0  0.2981569201323637  0.11411386133173103  0.41121296850087663  1.0000
  C   C2        1.0  0.26267857323409066  0.1001338247959609  0.5957071289062839  1.0000
  C   C3        1.0  0.7519257353287969  0.8904135811173075  0.5905917218031504  1.0000
  C   C4        1.0  0.7853349034793736  0.8953022263143141  0.40594474040620554  1.0000
  C   C5        1.0  0.19846503242177954  0.39258625240839956  0.0950208927157234  1.0000
  C   C6        1.0  0.2288857701113898  0.39333945326912095  0.9073585509322087  1.0000
  C   C7        1.0  0.745879704086434  0.6101750866139356  0.9098208495533555  1.0000
  C   C8        1.0  0.7105273510546583  0.6023968721755609  0.09622877208736469  1.0000
  C   C9        1.0  0.09136255609448801  0.20648390497877503  0.6821037255192479  1.0000
  C   C10       1.0  0.3915348778273541  0.2909979468794078  0.8185119300264461  1.0000
  C   C11       1.0  0.2565358812154841  0.15965451277097742  0.6555966713738925  1.0000
  C   C12       1.0  0.22848290558850687  0.336503572324375  0.8462811143631725  1.0000
  C   C13       1.0  0.3395923498807393  0.2420543965178013  0.7602460530763011  1.0000
  C   C14       1.0  0.13868656660279297  0.252913442622571  0.7428970495917753  1.0000
  C   C15       1.0  0.5957856356579825  0.7913999349163418  0.3229210580103654  1.0000
  C   C16       1.0  0.888761412480129  0.7054956849264827  0.18004162604261606  1.0000
  C   C17       1.0  0.768153508524705  0.8371952487773199  0.3461683841616434  1.0000
  C   C18       1.0  0.7187845743874773  0.6598148501504041  0.1568374004328632  1.0000
  C   C19       1.0  0.8433115473409387  0.7541468748582788  0.23970748042060558  1.0000
  C   C20       1.0  0.6397115816138949  0.7438857962765866  0.2616838846829665  1.0000
  C   C21       1.0  0.9115581396350976  0.7853525158233338  0.677382769267858  1.0000
  C   C22       1.0  0.5923039083922532  0.7137303104371712  0.8220849933268042  1.0000
  C   C23       1.0  0.7522429688720678  0.833067787493718  0.6515245862272606  1.0000
  C   C24       1.0  0.7492234534921993  0.6660810111389283  0.8479630204915337  1.0000
  C   C25       1.0  0.6524136378983059  0.7585687292223608  0.7609699673504906  1.0000
  C   C26       1.0  0.8535824048352724  0.7430563299361381  0.740483622618143  1.0000
  C   C27       1.0  0.1054004596873952  0.21088999897988708  0.3285079180307164  1.0000
  C   C28       1.0  0.3824040986513922  0.29886735582570617  0.179361832406137  1.0000
  C   C29       1.0  0.2794769514006602  0.17069086168370967  0.3506674333968931  1.0000
  C   C30       1.0  0.20963660453207209  0.33815503752232706  0.1572462300590729  1.0000
  C   C31       1.0  0.3445014523184112  0.2521340508209349  0.2411999368157325  1.0000
  C   C32       1.0  0.1436684330518716  0.25730886822965  0.26567671545652877  1.0000
  S   S1        1.0  0.4680895483210037  0.17313404603680738  0.7037150754146991  1.0000
  S   S2        1.0  0.01160208326592739  0.3212042484211891  0.8006267067743096  1.0000
  S   S3        1.0  0.9803111606392819  0.8236348987793678  0.2929444430427495  1.0000
  S   S4        1.0  0.5031825113433754  0.6748493211158645  0.2078452661628276  1.0000
  S   S5        1.0  0.535136880254612  0.8270793978180109  0.7040756509947527  1.0000
  S   S6        1.0  0.9700615447691946  0.6745084288540042  0.7975282078665346  1.0000
  S   S7        1.0  0.48575213928046423  0.1880305286476016  0.2942158549376046  1.0000
  S   S8        1.0  0.0007541314749772959  0.31940814265598044  0.21190922313419236  1.0000
  O   O1        1.0  0.13572952802952193  0.09909076429617872  0.4463240909106005  1.0000
  O   O2        1.0  0.43389980811684126  0.09219018858643578  0.5650226800587035  1.0000
  O   O3        1.0  0.5861323650185355  0.9279282787633959  0.5781367117044951  1.0000
  O   O4        1.0  0.9617884745891343  0.9272220171712034  0.41911218274935175  1.0000
  O   O5        1.0  0.9152128206790453  0.8985403778017088  0.5549811539400905  1.0000
  O   O6        1.0  0.6225901073555915  0.9087159339127667  0.4398933915839507  1.0000
  O   O7        1.0  0.4717713176367583  0.08453118537393324  0.42430732827553197  1.0000
  O   O8        1.0  0.09691126204056391  0.06147762948023679  0.5798217976878846  1.0000
  O   O9        1.0  0.7855521998336743  0.058333047706185  0.4994615615099747  1.0000
  O   O10       1.0  0.2783612113508127  0.9420798005828955  0.49574385518629066  1.0000
  O   O11       1.0  0.0291455095113164  0.4234553281358587  0.0790811660667359  1.0000
  O   O12       1.0  0.40149161521421206  0.42203983236066017  0.9261813041301039  1.0000
  O   O13       1.0  0.5756500950675871  0.5963324518875837  0.9412568047083525  1.0000
  O   O14       1.0  0.8774569436691169  0.5910310820071771  0.06401068940314758  1.0000
  O   O15       1.0  0.914706037394467  0.5798114147902639  0.9271100207839494  1.0000
  O   O16       1.0  0.5386840754467812  0.5692310504993046  0.0801748683422758  1.0000
  O   O17       1.0  0.3642434991269993  0.4040362908410842  0.0610992989509214  1.0000
  O   O18       1.0  0.058446882890407885  0.4087688277423354  0.9366786580473416  1.0000
  O   O19       1.0  0.7181134984087834  0.44142460363851654  0.9998775680192011  1.0000
  O   O20       1.0  0.22642436893852397  0.5570080960211427  0.0014146197742021993  1.0000
  O   O21       1.0  0.9182346303344318  0.20834096562411014  0.6494240305717938  1.0000
  O   O22       1.0  0.415229051553517  0.792482792965174  0.35656729976096807  1.0000
  O   O23       1.0  0.0913010964020557  0.7803071438569446  0.6440376866556861  1.0000
  O   O24       1.0  0.9271164205533821  0.20608263156400136  0.3636564259092623  1.0000
