data_image0
_chemical_formula_structural       Cu2H6C10I8N2
_chemical_formula_sum              "Cu2 H6 C10 I8 N2"
_cell_length_a       4.145131955281264
_cell_length_b       11.121462800742796
_cell_length_c       12.052335424890877
_cell_angle_alpha    80.19279209568201
_cell_angle_beta     89.01016711488555
_cell_angle_gamma    82.83719741185855

_space_group_name_H-M_alt    "P 1"
_space_group_IT_number       1

loop_
  _space_group_symop_operation_xyz
  'x, y, z'

loop_
  _atom_site_type_symbol
  _atom_site_label
  _atom_site_symmetry_multiplicity
  _atom_site_fract_x
  _atom_site_fract_y
  _atom_site_fract_z
  _atom_site_occupancy
  Cu  Cu1       1.0  0.26906889073321594  0.41698449825219797  0.5167455681403157  1.0000
  Cu  Cu2       1.0  0.7309421975977558  0.5830164523801072  0.4832568513588528  1.0000
  H   H1        1.0  0.43757388159882293  0.9841433443040016  0.8809789345211955  1.0000
  H   H2        1.0  0.5624142370130799  0.0158539598621203  0.11902422978236164  1.0000
  H   H3        1.0  0.6022919181380217  0.16022360394902788  0.5392262584702934  1.0000
  H   H4        1.0  0.3977100865475195  0.8397755220285458  0.46077568554139975  1.0000
  H   H5        1.0  0.04398382306869317  0.360418176109242  0.7517182419230224  1.0000
  H   H6        1.0  0.955998795430787  0.6395809856961918  0.24827886657030263  1.0000
  C   C1        1.0  0.403533610113634  0.0632389037676973  0.8132976724663481  1.0000
  C   C2        1.0  0.5964577885468644  0.9367703675894816  0.1866928131097653  1.0000
  C   C3        1.0  0.5378982765124009  0.0577469641639468  0.7069473360360449  1.0000
  C   C4        1.0  0.4620980733602879  0.9422475561633586  0.2930636671290402  1.0000
  C   C5        1.0  0.49577972003298504  0.1609698121158161  0.6224673701023563  1.0000
  C   C6        1.0  0.5042237086691019  0.8390320850269646  0.37752666309933164  1.0000
  C   C7        1.0  0.22554949884838046  0.17386043150453648  0.8298978700994727  1.0000
  C   C8        1.0  0.7744425319913971  0.8261322665650825  0.17010847209111551  1.0000
  C   C9        1.0  0.1845922314452865  0.2733982537198755  0.7413516019084201  1.0000
  C   C10       1.0  0.8154030164169302  0.7266064202746421  0.25863791204196224  1.0000
  I   I1        1.0  0.21647901085522397  0.6097965242658248  0.6148652117678637  1.0000
  I   I2        1.0  0.7835332711604863  0.3902007447227119  0.3851394324696147  1.0000
  I   I3        1.0  0.0310930727897016  0.1970088861243511  0.9878558149579675  1.0000
  I   I4        1.0  0.9688992261975787  0.802990259513926  0.012142881391980675  1.0000
  I   I5        1.0  0.7987289629196825  0.893021074307036  0.6717519554306934  1.0000
  I   I6        1.0  0.2012863562075822  0.1069817108103521  0.3282493157250884  1.0000
  I   I7        1.0  0.4287538774450468  0.5292251314568402  0.8854539972759954  1.0000
  I   I8        1.0  0.5712834191197231  0.4707693472349632  0.11455089079018423  1.0000
  N   N1        1.0  0.3205670083253907  0.2668311244948356  0.6397674833126956  1.0000
  N   N2        1.0  0.679421987881611  0.7331707846712945  0.36022997742193047  1.0000
