data_image0
_chemical_formula_structural       Al2C42N6O12F24
_chemical_formula_sum              "Al2 C42 N6 O12 F24"
_cell_length_a       3.9741558980176808
_cell_length_b       28.141523792458873
_cell_length_c       28.141777389873265
_cell_angle_alpha    120.00003970868684
_cell_angle_beta     89.99983485748044
_cell_angle_gamma    89.99982856936428

_space_group_name_H-M_alt    "P 1"
_space_group_IT_number       1

loop_
  _space_group_symop_operation_xyz
  'x, y, z'

loop_
  _atom_site_type_symbol
  _atom_site_label
  _atom_site_symmetry_multiplicity
  _atom_site_fract_x
  _atom_site_fract_y
  _atom_site_fract_z
  _atom_site_occupancy
  Al  Al1       1.0  0.997957654776414  0.49999593600787046  0.49999989388596333  1.0000
  Al  Al2       1.0  0.997963289872267  0.1666661074156081  0.8333357966376838  1.0000
  C   C1        1.0  0.4987660569983349  0.4625083556324157  0.41627075746468023  1.0000
  C   C2        1.0  0.4987901853444612  0.4537511420465136  0.537486511040079  1.0000
  C   C3        1.0  0.4987760736869831  0.5837273041294395  0.5462418377830218  1.0000
  C   C4        1.0  0.4987879409114697  0.2129094282425328  0.7958493613036737  1.0000
  C   C5        1.0  0.4987592761947255  0.08293414179352952  0.7870924482942172  1.0000
  C   C6        1.0  0.4987768416274463  0.20415430651284094  0.9170651551433906  1.0000
  C   C7        1.0  0.5007630978489459  0.24600468403087197  0.7676214670156795  1.0000
  C   C8        1.0  0.4945387002499332  0.22014454469674405  0.7102713744326793  1.0000
  C   C9        1.0  0.49784246783111297  0.25002921394197836  0.6830238800906585  1.0000
  C   C10       1.0  0.5002747603342641  0.30824792499752357  0.7129829605315408  1.0000
  C   C11       1.0  0.5031474993095558  0.3338643557872771  0.7709981959324281  1.0000
  C   C12       1.0  0.5071987665650968  0.30332851822237933  0.7975387227953874  1.0000
  C   C13       1.0  0.503162040731219  0.33280180121676745  0.5623420320252137  1.0000
  C   C14       1.0  0.5002800986092738  0.3584156919906219  0.6203555481362456  1.0000
  C   C15       1.0  0.49783085142136235  0.4166332585545405  0.6503093809996656  1.0000
  C   C16       1.0  0.4945344752915731  0.4465184360662491  0.6230628053274928  1.0000
  C   C17       1.0  0.5007680690735441  0.4206579214878871  0.5657152095434981  1.0000
  C   C18       1.0  0.50721060673353  0.36333641920103316  0.5357998751619846  1.0000
  C   C19       1.0  0.5007732747785171  0.021612735153190975  0.7539933520952219  1.0000
  C   C20       1.0  0.4945345014460969  0.9901234589560775  0.7798527312097222  1.0000
  C   C21       1.0  0.4978216496238232  0.9329950806744592  0.7499688552280832  1.0000
  C   C22       1.0  0.5002758594183235  0.9047288602606897  0.6917513807528124  1.0000
  C   C23       1.0  0.5031568524611245  0.9371283313930333  0.6661352629329259  1.0000
  C   C24       1.0  0.507202073458153  0.994203702850385  0.6966698241802762  1.0000
  C   C25       1.0  0.503144058661718  0.7295352832496672  0.6671989753681942  1.0000
  C   C26       1.0  0.5002678543259834  0.7619343062087792  0.6415811785087868  1.0000
  C   C27       1.0  0.49783549184067505  0.7336709050910032  0.5833615995880096  1.0000
  C   C28       1.0  0.4945375938756412  0.6765415587093243  0.5534779865502558  1.0000
  C   C29       1.0  0.5007729897215398  0.6450505555523307  0.5793390858548761  1.0000
  C   C30       1.0  0.5072011871353581  0.6724614397707641  0.6366643007152322  1.0000
  C   C31       1.0  0.5007663141993036  0.23238149542778072  0.9783882598136201  1.0000
  C   C32       1.0  0.4945318832801391  0.2897280464102678  0.009873580803997646  1.0000
  C   C33       1.0  0.4978223110826788  0.3169746490996204  0.06700702399589181  1.0000
  C   C34       1.0  0.5002706996918674  0.2870206093475218  0.09526838230430464  1.0000
  C   C35       1.0  0.5031527636987648  0.2290088727941679  0.06287219900080032  1.0000
  C   C36       1.0  0.5072022509754888  0.2024661907266889  0.005793141936010258  1.0000
  C   C37       1.0  0.503163597405745  0.4376600316847216  0.2704655407834339  1.0000
  C   C38       1.0  0.5002834315039663  0.37964876281358784  0.23806818397446972  1.0000
  C   C39       1.0  0.4978301503518879  0.3496914170248928  0.2663278775971635  1.0000
  C   C40       1.0  0.494543080768807  0.37693837778532213  0.32346167894812794  1.0000
  C   C41       1.0  0.5007724014624344  0.43428499339904647  0.3549473762386768  1.0000
  C   C42       1.0  0.5072089108724002  0.4642010838527639  0.3275433781635969  1.0000
  N   N1        1.0  0.5001059550110228  0.3445849860256445  0.6927499521217796  1.0000
  N   N2        1.0  0.5001016603765507  0.3220785761319148  0.640589322352433  1.0000
  N   N3        1.0  0.5000981749100505  0.8481586661796782  0.6554142065352694  1.0000
  N   N4        1.0  0.5000982953004893  0.8185031742593626  0.6779182576565079  1.0000
  N   N5        1.0  0.50009884047288  0.3072522112804137  0.15183867509176002  1.0000
  N   N6        1.0  0.5001055309159241  0.3594171610255756  0.18149789133669006  1.0000
  O   O1        1.0  0.7342803710492944  0.5585490163183238  0.5549422559065036  1.0000
  O   O2        1.0  0.7342871560202084  0.49639096946384603  0.44145282488897664  1.0000
  O   O3        1.0  0.7342846315433178  0.44505594203083376  0.5036078076520809  1.0000
  O   O4        1.0  0.26124192173750055  0.5617511241095343  0.5118648137744017  1.0000
  O   O5        1.0  0.2612323221384472  0.4881347037607782  0.549888833132087  1.0000
  O   O6        1.0  0.2612413371531019  0.4501081453964986  0.43824812708718514  1.0000
  O   O7        1.0  0.7342865848692169  0.1702735894064206  0.891882926397635  1.0000
  O   O8        1.0  0.7342815606082026  0.2216076607520136  0.8297253462891234  1.0000
  O   O9        1.0  0.7342908535515562  0.10811798974106793  0.7783938909747691  1.0000
  O   O10       1.0  0.2612371582568046  0.21655564412683512  0.8950856368750594  1.0000
  O   O11       1.0  0.26123657365896247  0.10491276062539606  0.8214702763467443  1.0000
  O   O12       1.0  0.26124365700806623  0.1785286204682848  0.7834461068025576  1.0000
  F   F1        1.0  0.5064430781323352  0.32982272966150106  0.8527864866301088  1.0000
  F   F2        1.0  0.5008568078574314  0.3887240784763577  0.8015857587540722  1.0000
  F   F3        1.0  0.4956668796443111  0.16491925421908593  0.6802320196783143  1.0000
  F   F4        1.0  0.49961222504344965  0.2217750432985923  0.6280599514095968  1.0000
  F   F5        1.0  0.5008655945774976  0.2779417250813622  0.5317541158222312  1.0000
  F   F6        1.0  0.5064414430575541  0.3368424135540025  0.4805519068230524  1.0000
  F   F7        1.0  0.49960146867506694  0.44488569123623006  0.7052736232607656  1.0000
  F   F8        1.0  0.4956583464805391  0.5017433300274092  0.6530997119570614  1.0000
  F   F9        1.0  0.5064431708053193  0.022957712692836304  0.670175602640697  1.0000
  F   F10       1.0  0.5008653245591006  0.9128548446353904  0.6112757394010659  1.0000
  F   F11       1.0  0.495657036148522  0.015314151881533226  0.8350785658632559  1.0000
  F   F12       1.0  0.4996006776777763  0.9062814671389889  0.7782213282047794  1.0000
  F   F13       1.0  0.5008484489436996  0.7538089220934835  0.7220590613641351  1.0000
  F   F14       1.0  0.5064413504183706  0.6437070899134554  0.6631595779935822  1.0000
  F   F15       1.0  0.49961445207672034  0.7603823300994179  0.5551077586805705  1.0000
  F   F16       1.0  0.49567322242848644  0.6513539422203748  0.4982533414868869  1.0000
  F   F17       1.0  0.5064414368412572  0.1472186703656319  0.9770407772113713  1.0000
  F   F18       1.0  0.5008605673212686  0.19842030247110637  0.08714223574359181  1.0000
  F   F19       1.0  0.4956623110479513  0.31976554433033744  0.9846867849882983  1.0000
  F   F20       1.0  0.4996004432042511  0.3719392182164469  0.09371813679627654  1.0000
  F   F21       1.0  0.5008736886696425  0.4682499300801055  0.24619560121990258  1.0000
  F   F22       1.0  0.5064481168455758  0.5194492351451602  0.3562962753608191  1.0000
  F   F23       1.0  0.4996074902175565  0.2947276121026263  0.23961670830610166  1.0000
  F   F24       1.0  0.4956780125562759  0.3469006483489707  0.3486477344260948  1.0000
