data_image0
_chemical_formula_structural       Zn4H32C32Cl8O4
_chemical_formula_sum              "Zn4 H32 C32 Cl8 O4"
_cell_length_a       6.354703265871904
_cell_length_b       7.1631069071135105
_cell_length_c       20.84358433803132
_cell_angle_alpha    90.00023971788103
_cell_angle_beta     89.99979141591295
_cell_angle_gamma    90.00079042469177

_space_group_name_H-M_alt    "P 1"
_space_group_IT_number       1

loop_
  _space_group_symop_operation_xyz
  'x, y, z'

loop_
  _atom_site_type_symbol
  _atom_site_label
  _atom_site_symmetry_multiplicity
  _atom_site_fract_x
  _atom_site_fract_y
  _atom_site_fract_z
  _atom_site_occupancy
  Zn  Zn1       1.0  0.3323554289278476  0.37262174108012397  0.7427894410267302  1.0000
  Zn  Zn2       1.0  0.8323671009952848  0.6273874518002528  0.25721170356814593  1.0000
  Zn  Zn3       1.0  0.3323820050949137  0.872608205232055  0.7572091121808671  1.0000
  Zn  Zn4       1.0  0.8323767185900692  0.1273800473953202  0.24278963372403695  1.0000
  H   H1        1.0  0.7961423098750442  0.38527562338949656  0.5257744430864691  1.0000
  H   H2        1.0  0.29611735553306323  0.6147534465188612  0.474242524848883  1.0000
  H   H3        1.0  0.7961521246741582  0.8852265427973335  0.9742207125387099  1.0000
  H   H4        1.0  0.2961264250543891  0.11472434700139901  0.02576411168327301  1.0000
  H   H5        1.0  0.8149727116579157  0.28317197441698727  0.4117433254906473  1.0000
  H   H6        1.0  0.3149850161325388  0.7168660253816697  0.5882702885960144  1.0000
  H   H7        1.0  0.8149423895552985  0.7831274289003716  0.08825614320959833  1.0000
  H   H8        1.0  0.314961835017904  0.21686449920986212  0.9117334829496714  1.0000
  H   H9        1.0  0.13924272483154707  0.13429386292269638  0.37016875194742493  1.0000
  H   H10       1.0  0.6392556340515014  0.8657585170656857  0.6298309064580891  1.0000
  H   H11       1.0  0.13922389121825768  0.6342126616565549  0.12982513926143474  1.0000
  H   H12       1.0  0.6392524372657248  0.3657112815166598  0.8701649246313965  1.0000
  H   H13       1.0  0.44666305530949296  0.08532969298009618  0.4413929165560547  1.0000
  H   H14       1.0  0.9466507933509617  0.9147275312808245  0.5586024981880869  1.0000
  H   H15       1.0  0.4466193557704442  0.585250706872138  0.058595877774919806  1.0000
  H   H16       1.0  0.9466740362295738  0.41465993183621197  0.94138658421781  1.0000
  H   H17       1.0  0.42903333427665297  0.1854468433395482  0.5562497199141206  1.0000
  H   H18       1.0  0.9290404739747657  0.814567982430674  0.4437538468151488  1.0000
  H   H19       1.0  0.42902979326039775  0.6854120802750642  0.9437415018117438  1.0000
  H   H20       1.0  0.9290581783690045  0.31449943706797256  0.05623807734084351  1.0000
  H   H21       1.0  0.7794416853467964  0.29420454073689933  0.6365217733581048  1.0000
  H   H22       1.0  0.2794364058258267  0.7058100776239937  0.36348415606222784  1.0000
  H   H23       1.0  0.7794371223920393  0.7941834208055523  0.863472549052361  1.0000
  H   H24       1.0  0.2794661472674136  0.20581304829033084  0.1365161089780358  1.0000
  H   H25       1.0  0.846570892308584  0.5319452687639625  0.6258288194374374  1.0000
  H   H26       1.0  0.34656209100890567  0.46806713284435386  0.37416033447065905  1.0000
  H   H27       1.0  0.8465959150599075  0.0319111007320885  0.8741619415929308  1.0000
  H   H28       1.0  0.34655595179091137  0.9680677971945923  0.12584400425561174  1.0000
  H   H29       1.0  0.9178513520712456  0.4174963450796341  0.6982949764879935  1.0000
  H   H30       1.0  0.4178453294405884  0.582562824893607  0.3017023503425805  1.0000
  H   H31       1.0  0.9178326882835535  0.917454896634446  0.8017094181063982  1.0000
  H   H32       1.0  0.4178576987312468  0.08254843212856848  0.19829702457233375  1.0000
  C   C1        1.0  0.10479502268592  0.3459432686501742  0.6166135778507853  1.0000
  C   C2        1.0  0.6047984666596805  0.6540759900982919  0.38338703196009055  1.0000
  C   C3        1.0  0.10479780066983578  0.8459414039996032  0.8833857194078478  1.0000
  C   C4        1.0  0.6048067043226696  0.15403318134713123  0.11661153232417833  1.0000
  C   C5        1.0  0.11284052853802248  0.2919569417407147  0.5484682328466521  1.0000
  C   C6        1.0  0.6128245216490313  0.7080444047272394  0.45153477783183876  1.0000
  C   C7        1.0  0.11285566473973319  0.791990167950395  0.9515369897203033  1.0000
  C   C8        1.0  0.6128471527065714  0.20802095142859398  0.0484669804321243  1.0000
  C   C9        1.0  0.9390274751418132  0.31974496090596455  0.5076085911862408  1.0000
  C   C10       1.0  0.43901264686041225  0.6802785349389212  0.4924026541251366  1.0000
  C   C11       1.0  0.939027366835603  0.819730273355553  0.992400336713125  1.0000
  C   C12       1.0  0.4390221972039398  0.18026809323408344  0.007600833707186902  1.0000
  C   C13       1.0  0.9491642951661133  0.2641171816093219  0.44364152035161913  1.0000
  C   C14       1.0  0.4491222482053914  0.7359582644994941  0.556357732995423  1.0000
  C   C15       1.0  0.9491112131466436  0.7640393096666925  0.056361567371574516  1.0000
  C   C16       1.0  0.4491658888153225  0.23589653216727408  0.9436391261016016  1.0000
  C   C17       1.0  0.1316459752465633  0.1791084508784238  0.4201128677998583  1.0000
  C   C18       1.0  0.6316337344407188  0.8209060127431156  0.5798925461620144  1.0000
  C   C19       1.0  0.13163003731875733  0.6790893787994746  0.07989343843645713  1.0000
  C   C20       1.0  0.6316512461406633  0.3208859956014365  0.9201110162316656  1.0000
  C   C21       1.0  0.305282275719442  0.1513225170649761  0.4603465382502991  1.0000
  C   C22       1.0  0.8052882369505812  0.8487110092635958  0.5396589175351423  1.0000
  C   C23       1.0  0.3052831394502178  0.6513039722997077  0.0396606222583031  1.0000
  C   C24       1.0  0.8052732108263501  0.3486555630379656  0.9603361982174335  1.0000
  C   C25       1.0  0.296523961767754  0.20816346160400911  0.524063165218017  1.0000
  C   C26       1.0  0.7965240964509377  0.7918153613404257  0.4759374911395185  1.0000
  C   C27       1.0  0.296549467243608  0.7082081316299307  0.9759392664689988  1.0000
  C   C28       1.0  0.7965458001015974  0.2918139686851404  0.024051314592647106  1.0000
  C   C29       1.0  0.9011542267507622  0.39905810606094855  0.6464935336655486  1.0000
  C   C30       1.0  0.4011671748781395  0.6009726531804132  0.3535109857637693  1.0000
  C   C31       1.0  0.9011452068575565  0.8990231687528193  0.8535081989649316  1.0000
  C   C32       1.0  0.4011683267690387  0.10096431282149608  0.14649248261097372  1.0000
  Cl  Cl1       1.0  0.0776958359080666  0.381231857156493  0.813831362672211  1.0000
  Cl  Cl2       1.0  0.5777094428576035  0.6187195954776642  0.18616972076480925  1.0000
  Cl  Cl3       1.0  0.07768809922391282  0.8812652332289445  0.6861723030943453  1.0000
  Cl  Cl4       1.0  0.5776951484477522  0.11871553633095291  0.31383453733176486  1.0000
  Cl  Cl5       1.0  0.5599922803538534  0.6225476679116468  0.7476239932607385  1.0000
  Cl  Cl6       1.0  0.0599856949430873  0.3774493337212305  0.25237852491740403  1.0000
  Cl  Cl7       1.0  0.5599764657309549  0.12256659736572569  0.7523828853022538  1.0000
  Cl  Cl8       1.0  0.05999521493395579  0.877444364778249  0.24762251137518387  1.0000
  O   O1        1.0  0.27417151558771735  0.34685375283972764  0.6478692535704056  1.0000
  O   O2        1.0  0.774183660988676  0.6531621067531075  0.35213331622424704  1.0000
  O   O3        1.0  0.2741861365592371  0.8468549401171472  0.8521334320278559  1.0000
  O   O4        1.0  0.7741910708997112  0.1531790682885088  0.14786817813298825  1.0000
