data_image0
_chemical_formula_structural       Cd2H28C40N8O8
_chemical_formula_sum              "Cd2 H28 C40 N8 O8"
_cell_length_a       7.7802522657332105
_cell_length_b       10.537196427657427
_cell_length_c       11.912445888887804
_cell_angle_alpha    73.51218890852428
_cell_angle_beta     75.78204044509751
_cell_angle_gamma    76.73328941033031

_space_group_name_H-M_alt    "P 1"
_space_group_IT_number       1

loop_
  _space_group_symop_operation_xyz
  'x, y, z'

loop_
  _atom_site_type_symbol
  _atom_site_label
  _atom_site_symmetry_multiplicity
  _atom_site_fract_x
  _atom_site_fract_y
  _atom_site_fract_z
  _atom_site_occupancy
  Cd  Cd1       1.0  0.423659663683452  0.3874795276517915  0.3470900256868534  1.0000
  Cd  Cd2       1.0  0.576340233881801  0.6125195401998268  0.652912370182179  1.0000
  H   H1        1.0  0.4419598614178639  0.1397560588342088  0.603772150353663  1.0000
  H   H2        1.0  0.5580384175012866  0.8602438720500915  0.396225243698595  1.0000
  H   H3        1.0  0.08712060594567113  0.5122625595532782  0.5693304089811804  1.0000
  H   H4        1.0  0.9128829868928676  0.4877375866298265  0.4306710866611498  1.0000
  H   H5        1.0  0.013991408347806088  0.3659939266728145  0.8013190683631422  1.0000
  H   H6        1.0  0.9860140434324692  0.634009320290609  0.19868296725110224  1.0000
  H   H7        1.0  0.34945000367515167  0.9569256548451152  0.7484039884878726  1.0000
  H   H8        1.0  0.6505451313108921  0.04307126696942021  0.25159809125572963  1.0000
  H   H9        1.0  0.3844933356690134  0.7816714101399282  0.929576447184374  1.0000
  H   H10       1.0  0.6154949363331  0.21832639226489192  0.07042653084963042  1.0000
  H   H11       1.0  0.19131463253298617  0.07970388724136511  0.13938327682487278  1.0000
  H   H12       1.0  0.8087008325464494  0.9202964619958962  0.8606153620109611  1.0000
  H   H13       1.0  0.15958767854618827  0.2556444907062811  0.9566877548103037  1.0000
  H   H14       1.0  0.8404203901882071  0.7443536824633056  0.0433118510041482  1.0000
  H   H15       1.0  0.46174157949913297  0.6455384437968661  0.08400403740088791  1.0000
  H   H16       1.0  0.53826307484686  0.3544627506871336  0.9159978411187951  1.0000
  H   H17       1.0  0.15850331443576948  0.9203911440222399  0.2916378462662977  1.0000
  H   H18       1.0  0.8414852042441224  0.07960559598994618  0.7083628571261827  1.0000
  H   H19       1.0  0.2612840471190197  0.6759703135889622  0.44072363218324995  1.0000
  H   H20       1.0  0.7387081842295588  0.32402756296880847  0.559278671406844  1.0000
  H   H21       1.0  0.7034622150638725  0.93059287678755  0.530485820498221  1.0000
  H   H22       1.0  0.2965476314337537  0.06940812549655109  0.46950265664136753  1.0000
  H   H23       1.0  0.04634590052494051  0.23034770540728292  0.38218687241894855  1.0000
  H   H24       1.0  0.953661329602241  0.7696533250603108  0.6178053882489893  1.0000
  H   H25       1.0  0.9002542204291543  0.36956187750018893  0.2070724433832113  1.0000
  H   H26       1.0  0.0997438408045426  0.6304392128002547  0.7929313926844302  1.0000
  H   H27       1.0  0.313944527057906  0.5457087354629804  0.9338201469229689  1.0000
  H   H28       1.0  0.6860522254068971  0.4542974145395534  0.06618422718028674  1.0000
  C   C1        1.0  0.33733887990915423  0.22223254471038698  0.6238105585693888  1.0000
  C   C2        1.0  0.662661786098056  0.7777684785971529  0.37618782702035264  1.0000
  C   C3        1.0  0.1508885426425977  0.4127023071331166  0.6097611095455733  1.0000
  C   C4        1.0  0.8491097652688708  0.5872977207746927  0.3902404518805371  1.0000
  C   C5        1.0  0.11394369789729807  0.34224492405289203  0.7260786329544331  1.0000
  C   C6        1.0  0.8860572495784781  0.6577551532902177  0.2739224788424083  1.0000
  C   C7        1.0  0.2501842448683362  0.11833349028315607  0.8404168017308677  1.0000
  C   C8        1.0  0.7498185447374511  0.8816645840158298  0.1595837033421292  1.0000
  C   C9        1.0  0.314535353050978  0.9848411307943509  0.8338068104337566  1.0000
  C   C10       1.0  0.6854634772083514  0.015156869351677897  0.16619436908315072  1.0000
  C   C11       1.0  0.3328887098372846  0.8847218152453279  0.9374794869293909  1.0000
  C   C12       1.0  0.6671019376559713  0.11527704077333571  0.06252281569255305  1.0000
  C   C13       1.0  0.2870496583694547  0.9174477354895316  0.04835221880072278  1.0000
  C   C14       1.0  0.7129444319208602  0.0825532418485579  0.9516506247612855  1.0000
  C   C15       1.0  0.22341216256326388  0.05128973346887731  0.054585014655963  1.0000
  C   C16       1.0  0.7765911604036405  0.9487113974880685  0.945415421728818  1.0000
  C   C17       1.0  0.2049166539023872  0.15151333298673822  0.9509241035278535  1.0000
  C   C18       1.0  0.7950898367751622  0.8484858390484361  0.04907633479322015  1.0000
  C   C19       1.0  0.3945354280607491  0.6854630473980095  0.16128520612975447  1.0000
  C   C20       1.0  0.6054642112297942  0.3145370440368538  0.838717797431258  1.0000
  C   C21       1.0  0.23725074561149034  0.8281581268436893  0.2708488619741517  1.0000
  C   C22       1.0  0.7627348810278604  0.1718396067211287  0.7291537322143498  1.0000
  C   C23       1.0  0.2873624009702311  0.705558885100764  0.34394759116812423  1.0000
  C   C24       1.0  0.7126282413082378  0.294434905902854  0.6560552317076117  1.0000
  C   C25       1.0  0.7069809346461325  0.18665880580532954  0.4025612855271136  1.0000
  C   C26       1.0  0.2930244539347058  0.8133391820960513  0.5974329355932257  1.0000
  C   C27       1.0  0.8600796200218852  0.08954652713327958  0.45030974671784924  1.0000
  C   C28       1.0  0.1399297163084796  0.910451496111655  0.5496821330090357  1.0000
  C   C29       1.0  0.8341153796891876  0.9597653938863355  0.5166000301357913  1.0000
  C   C30       1.0  0.16589342849484726  0.04023463771567751  0.4833913980255248  1.0000
  C   C31       1.0  0.026480528666318993  0.12952548904051753  0.4339551219649422  1.0000
  C   C32       1.0  0.9735282679207914  0.870474503752092  0.5660346392468301  1.0000
  C   C33       1.0  0.24888125001965017  0.4052515968648862  0.16334900820301362  1.0000
  C   C34       1.0  0.7511184060826254  0.5947535983944049  0.8366551420537505  1.0000
  C   C35       1.0  0.12164440669643987  0.45010388885165753  0.07799255309080172  1.0000
  C   C36       1.0  0.8783549789505332  0.5499073367918115  0.9220091841798422  1.0000
  C   C37       1.0  0.9442664895195634  0.4250356526772165  0.11585653678145048  1.0000
  C   C38       1.0  0.05573368893057308  0.5749675148203083  0.8841472315661181  1.0000
  C   C39       1.0  0.17656521194523128  0.5255110086741439  0.9618432144328679  1.0000
  C   C40       1.0  0.8234336519375489  0.47449719912076926  0.038160258475542684  1.0000
  N   N1        1.0  0.29046563759887795  0.3371137063963587  0.5468728242664652  1.0000
  N   N2        1.0  0.7095323946424943  0.662887286880583  0.45312684442732387  1.0000
  N   N3        1.0  0.2333228384963633  0.22132910075838913  0.7345225163690187  1.0000
  N   N4        1.0  0.7666781031809434  0.7786709571800186  0.26547776195305073  1.0000
  N   N5        1.0  0.30565123072776146  0.8149330170007687  0.15458714866456094  1.0000
  N   N6        1.0  0.6943431120387872  0.1850669173493884  0.8454142537306879  1.0000
  N   N7        1.0  0.3852539133063858  0.617716402803609  0.2748849043361545  1.0000
  N   N8        1.0  0.6147438496470273  0.38228052963683  0.725115058828635  1.0000
  O   O1        1.0  0.7137328463260886  0.3127648295565706  0.3774223510908358  1.0000
  O   O2        1.0  0.2862709583994345  0.6872341378057031  0.6225718690613535  1.0000
  O   O3        1.0  0.5731954463525212  0.1436125847771947  0.3922278615921401  1.0000
  O   O4        1.0  0.42680627014888006  0.8563844024114998  0.6077705936539675  1.0000
  O   O5        1.0  0.41753048811617793  0.3914166204782177  0.12469511371411815  1.0000
  O   O6        1.0  0.5824672910652924  0.6085904613970001  0.8753046424178665  1.0000
  O   O7        1.0  0.17727019842676842  0.3899603411068141  0.27462232728044716  1.0000
  O   O8        1.0  0.8227305029549046  0.610035753018593  0.7253824128864751  1.0000
