data_image0
_chemical_formula_structural       Zn4H48C68Br8N4O16
_chemical_formula_sum              "Zn4 H48 C68 Br8 N4 O16"
_cell_length_a       14.045240709625599
_cell_length_b       18.28136796384485
_cell_length_c       19.260491650843896
_cell_angle_alpha    70.28056832204099
_cell_angle_beta     88.5956852556643
_cell_angle_gamma    91.17104787108508

_space_group_name_H-M_alt    "P 1"
_space_group_IT_number       1

loop_
  _space_group_symop_operation_xyz
  'x, y, z'

loop_
  _atom_site_type_symbol
  _atom_site_label
  _atom_site_symmetry_multiplicity
  _atom_site_fract_x
  _atom_site_fract_y
  _atom_site_fract_z
  _atom_site_occupancy
  Zn  Zn1       1.0  0.39367179998588864  0.0018808398278195998  0.508073843247665  1.0000
  Zn  Zn2       1.0  0.5917846498114159  0.9990395578569251  0.49253836329057077  1.0000
  Zn  Zn3       1.0  0.6072466121942739  0.5087677489050151  0.999703826873457  1.0000
  Zn  Zn4       1.0  0.4090755131267656  0.4929871092890251  0.998803631528709  1.0000
  H   H1        1.0  0.045942152894603815  0.9547146209202779  0.6228501042638187  1.0000
  H   H2        1.0  0.9404186394667136  0.0052828130047472945  0.3828069085694636  1.0000
  H   H3        1.0  0.7317842169493717  0.9900434472785662  0.5954850951673906  1.0000
  H   H4        1.0  0.907066452885843  0.9944161475104208  0.6105043728285722  1.0000
  H   H5        1.0  0.2541481722437027  0.047039351123487394  0.40042348788535514  1.0000
  H   H6        1.0  0.07883845017422429  0.05094153196335329  0.3844318825992588  1.0000
  H   H7        1.0  0.459704526758138  0.8691526197278775  0.7539452676307192  1.0000
  H   H8        1.0  0.5838301125886505  0.862754854885523  0.7409192092202802  1.0000
  H   H9        1.0  0.5859442098691758  0.7538935588591825  0.8482767986280707  1.0000
  H   H10       1.0  0.46220255957256035  0.7614378828803863  0.8621177105020268  1.0000
  H   H11       1.0  0.6458248916587692  0.6694229906294921  0.7763023317702108  1.0000
  H   H12       1.0  0.5640196431903065  0.6224981953358719  0.7364164179141498  1.0000
  H   H13       1.0  0.6474195583265543  0.780597198951696  0.6698002524207639  1.0000
  H   H14       1.0  0.5689588424658112  0.7315087657946292  0.6291275687828914  1.0000
  H   H15       1.0  0.3451015247737317  0.7980819512245675  0.6954030397708594  1.0000
  H   H16       1.0  0.3904500336474115  0.7400744683636516  0.6466994047165145  1.0000
  H   H17       1.0  0.3859798621293962  0.6334444662269901  0.7565364222445512  1.0000
  H   H18       1.0  0.34538954979044695  0.6926458243963224  0.8059812685524221  1.0000
  H   H19       1.0  0.46746347817837375  0.1290245823650906  0.24529355808549272  1.0000
  H   H20       1.0  0.5884806089651988  0.14428067227060376  0.2609003100516816  1.0000
  H   H21       1.0  0.5959253160151976  0.25015053258964304  0.15055450949193988  1.0000
  H   H22       1.0  0.47277760685765463  0.23880101020621677  0.13859372191117814  1.0000
  H   H23       1.0  0.6511968513601902  0.3296849996775677  0.22731157873404584  1.0000
  H   H24       1.0  0.5694504032952565  0.3814325952809625  0.2620269213349573  1.0000
  H   H25       1.0  0.6340662392303927  0.22575459842293094  0.33936471150435216  1.0000
  H   H26       1.0  0.5451814086674744  0.27514015299282585  0.3707092373423749  1.0000
  H   H27       1.0  0.3404149372828655  0.1973479424651216  0.2942014469021004  1.0000
  H   H28       1.0  0.37159577538979965  0.25268554711504265  0.3497998682462439  1.0000
  H   H29       1.0  0.39147715888204004  0.3645959162805282  0.24512792908272732  1.0000
  H   H30       1.0  0.35293120701892633  0.3103406139396654  0.1904489412778645  1.0000
  H   H31       1.0  0.3216530515678357  0.7579846815751167  0.29637628549645  1.0000
  H   H32       1.0  0.6129252465577437  0.6803168916796308  0.2628693911264294  1.0000
  H   H33       1.0  0.3517497541428157  0.6814064095115454  0.094556262817008  1.0000
  H   H34       1.0  0.3418323908487296  0.7644549892719751  0.17343021154552937  1.0000
  H   H35       1.0  0.6159194375078628  0.8810899588157496  0.34780169376816883  1.0000
  H   H36       1.0  0.6243527882427814  0.8058065549835616  0.2619442559236306  1.0000
  H   H37       1.0  0.39750749034336513  0.2766882620537956  0.6775190889647789  1.0000
  H   H38       1.0  0.6842517848547234  0.2957660860135719  0.7635412411504277  1.0000
  H   H39       1.0  0.38625809999260247  0.3400304522441572  0.8838314650543212  1.0000
  H   H40       1.0  0.3804542514083948  0.2598321031228109  0.8022340815305284  1.0000
  H   H41       1.0  0.6519451401007146  0.09515863146769729  0.6714716115860142  1.0000
  H   H42       1.0  0.6617572189877522  0.16900533386841937  0.7586711662517018  1.0000
  H   H43       1.0  0.9553381290020229  0.6271402512137384  0.9434079683389315  1.0000
  H   H44       1.0  0.061754831034903604  0.3743778661190475  0.009759369774926134  1.0000
  H   H45       1.0  0.26772872053289387  0.6015991217640958  0.9881542396152483  1.0000
  H   H46       1.0  0.09184595002746933  0.6169442169536764  0.9905941861688562  1.0000
  H   H47       1.0  0.7468379155202812  0.3958368532953499  0.05270965304493562  1.0000
  H   H48       1.0  0.9225424250554756  0.37889544611901727  0.05840128820544521  1.0000
  C   C1        1.0  0.4864385128716224  0.12560211180802844  0.385687282784815  1.0000
  C   C2        1.0  0.47089709804647145  0.9151381846175821  0.41668792115803654  1.0000
  C   C3        1.0  0.5003939788170869  0.8759154888106335  0.6140387136425504  1.0000
  C   C4        1.0  0.5141153388001954  0.08816801866405648  0.5825898971747706  1.0000
  C   C5        1.0  0.5130510760247162  0.38722810739127306  0.1235553780078433  1.0000
  C   C6        1.0  0.5295064495812271  0.40901667293485383  0.9222810888463044  1.0000
  C   C7        1.0  0.4987156622900458  0.6142708657096916  0.8764177258504517  1.0000
  C   C8        1.0  0.4902189744468189  0.5918688070625179  0.07855794086467681  1.0000
  C   C9        1.0  0.18699383964740693  0.9803053120966396  0.5745459032477244  1.0000
  C   C10       1.0  0.0879490145023638  0.9770997263635475  0.5715281959416034  1.0000
  C   C11       1.0  0.7991973878416943  0.0032348867075313965  0.4283075330268176  1.0000
  C   C12       1.0  0.8982901355210872  0.0033313438149064965  0.43152663478864645  1.0000
  C   C13       1.0  0.7817993286411495  0.9941496373730978  0.5501023538334596  1.0000
  C   C14       1.0  0.8795099865166806  0.9956941231191145  0.5578285409603085  1.0000
  C   C15       1.0  0.20424975371100368  0.027877500432545294  0.4477217180912945  1.0000
  C   C16       1.0  0.10648012539626  0.028799463764087794  0.439699919903532  1.0000
  C   C17       1.0  0.04555622935314572  0.001994937678205101  0.502745402794403  1.0000
  C   C18       1.0  0.9406249633164453  0.0002571159451605003  0.4974883106785555  1.0000
  C   C19       1.0  0.5159023295927697  0.8294029237309528  0.7502090988020528  1.0000
  C   C20       1.0  0.5168846235534872  0.7576395593684067  0.8217106186242448  1.0000
  C   C21       1.0  0.4983003199201408  0.6822683207751367  0.8037593430644847  1.0000
  C   C22       1.0  0.5771028194838266  0.6760225859273064  0.7492398617823142  1.0000
  C   C23       1.0  0.5787385593399037  0.7484913911785113  0.6781844097639933  1.0000
  C   C24       1.0  0.4987216621199408  0.8033134629197248  0.6828993990104381  1.0000
  C   C25       1.0  0.40254279451662717  0.7585225724991601  0.6945907996602685  1.0000
  C   C26       1.0  0.4013840087396546  0.687954998901496  0.7670335178581454  1.0000
  C   C27       1.0  0.519690016030154  0.17277992331383976  0.2498424260144461  1.0000
  C   C28       1.0  0.5252243434101587  0.24431842362197634  0.17814092187791183  1.0000
  C   C29       1.0  0.5059158397592967  0.31915998398129364  0.19618430233548884  1.0000
  C   C30       1.0  0.5790622076602574  0.326345047166967  0.2517963600359537  1.0000
  C   C31       1.0  0.5669483004513794  0.25605193594206105  0.3244220819869881  1.0000
  C   C32       1.0  0.49052905334106367  0.1976142071052109  0.316389035831655  1.0000
  C   C33       1.0  0.3948465900424836  0.23818452919277888  0.3012546364167505  1.0000
  C   C34       1.0  0.40491207442692473  0.31177352206262293  0.23159874439390654  1.0000
  C   C35       1.0  0.46552789316122306  0.8659593183281799  0.3678921258889077  1.0000
  C   C36       1.0  0.488750496609157  0.6376441350052103  0.1304157059167396  1.0000
  C   C37       1.0  0.3828650115688248  0.8308052060672394  0.35194488653505124  1.0000
  C   C38       1.0  0.38666275300433744  0.786664596220696  0.30530799031492967  1.0000
  C   C39       1.0  0.5621406529688144  0.6386021364112295  0.17841091634172568  1.0000
  C   C40       1.0  0.556292145510426  0.683109955724632  0.2244728551136106  1.0000
  C   C41       1.0  0.40922999346279454  0.682751722251403  0.13114404581922665  1.0000
  C   C42       1.0  0.40332708152906344  0.7283253540512861  0.1759299793851952  1.0000
  C   C43       1.0  0.5517713473918563  0.8545108676226718  0.3348323010822797  1.0000
  C   C44       1.0  0.5562709698751931  0.81164370459107  0.2877283334778227  1.0000
  C   C45       1.0  0.47326789720692375  0.7765865068579814  0.2722364626471219  1.0000
  C   C46       1.0  0.4772909479283883  0.7292558551192911  0.2234904938450555  1.0000
  C   C47       1.0  0.518062562574741  0.1401594690786681  0.628607660298961  1.0000
  C   C48       1.0  0.5369302493022446  0.3607394801931249  0.8727354509600077  1.0000
  C   C49       1.0  0.44689303343502473  0.1921593704313764  0.6311563668366844  1.0000
  C   C50       1.0  0.4525360318071066  0.23526221331151478  0.6784029731276107  1.0000
  C   C51       1.0  0.620720294732074  0.34646105840597125  0.8385892149012265  1.0000
  C   C52       1.0  0.6183696230372747  0.3030877217281329  0.7912264662646535  1.0000
  C   C53       1.0  0.4512351323389581  0.32861676574741944  0.8576859873734576  1.0000
  C   C54       1.0  0.4481625548490413  0.28483106261077745  0.8114010926945454  1.0000
  C   C55       1.0  0.5960346073390285  0.134701839885139  0.6741438769544246  1.0000
  C   C56       1.0  0.6018682500595389  0.17664632257425686  0.7221864059592491  1.0000
  C   C57       1.0  0.5293219717767954  0.22726127439180735  0.7255108782978397  1.0000
  C   C58       1.0  0.5321551099874213  0.2717700082825658  0.7767470478755101  1.0000
  C   C59       1.0  0.8140634256159985  0.5776463870771096  0.9719295431376124  1.0000
  C   C60       1.0  0.9131100983801873  0.5740081462742168  0.9696921909020804  1.0000
  C   C61       1.0  0.20261194277384223  0.42343744566337443  0.0065878656183003415  1.0000
  C   C62       1.0  0.10345984283006261  0.42637829858946213  0.006189408467321321  1.0000
  C   C63       1.0  0.2183108323264662  0.5531498997634332  0.9934199819368459  1.0000
  C   C64       1.0  0.12046364339455812  0.5610240520787996  0.9939493427951548  1.0000
  C   C65       1.0  0.7967993791212181  0.4450760151252807  0.029832813213900536  1.0000
  C   C66       1.0  0.8946144513880514  0.43642458081678365  0.03181891510025283  1.0000
  C   C67       1.0  0.9554177328987025  0.5020582693384269  0.0005583924243807633  1.0000
  C   C68       1.0  0.06033432410761461  0.49650821725475675  0.00020747802962969844  1.0000
  Br  Br1       1.0  0.24141044920424554  0.9513483334165753  0.6683310114739457  1.0000
  Br  Br2       1.0  0.7447362828312052  0.011347632682706894  0.33728179414055154  1.0000
  Br  Br3       1.0  0.26018842462784164  0.8351566613703411  0.39547350605863596  1.0000
  Br  Br4       1.0  0.6709214388764124  0.5752618559074346  0.18885098059365663  1.0000
  Br  Br5       1.0  0.3416174290473322  0.21180622134740185  0.567172423128099  1.0000
  Br  Br6       1.0  0.743309663938689  0.3884407271794572  0.8488744371653069  1.0000
  Br  Br7       1.0  0.7597345158488268  0.6763359724827821  0.9343068416762322  1.0000
  Br  Br8       1.0  0.25847044744686093  0.32705505171769994  0.017669484951937924  1.0000
  N   N1        1.0  0.24459664974993703  0.003770620008772596  0.5143712932699601  1.0000
  N   N2        1.0  0.7414625086220286  0.9983624587128614  0.48592003653236304  1.0000
  N   N3        1.0  0.7564752548922796  0.5148774077381686  0.0002458845300737337  1.0000
  N   N4        1.0  0.2594843947788164  0.48505639728401917  0.9999526073073284  1.0000
  O   O1        1.0  0.40803895227664816  0.10612949533595639  0.4225469992242097  1.0000
  O   O2        1.0  0.563927120101468  0.08920383295416907  0.40136787245405975  1.0000
  O   O3        1.0  0.5522320406294128  0.9190356449860316  0.443454088112894  1.0000
  O   O4        1.0  0.39699752230544055  0.9498611132852942  0.42629292205252495  1.0000
  O   O5        1.0  0.5804081708382187  0.9120080867800622  0.5930787290658515  1.0000
  O   O6        1.0  0.4217409717227341  0.8965969147241991  0.5829015541887801  1.0000
  O   O7        1.0  0.4332553313247588  0.057024614624758406  0.5799050323295418  1.0000
  O   O8        1.0  0.5918625442572676  0.07782915708998668  0.5524390148267317  1.0000
  O   O9        1.0  0.5922819730330531  0.4244328291675783  0.10366620332535355  1.0000
  O   O10       1.0  0.4376895648896452  0.4004980002776221  0.08623901620200063  1.0000
  O   O11       1.0  0.4477330766580609  0.436770896010941  0.9258615844615791  1.0000
  O   O12       1.0  0.6023894375017349  0.41820971879377566  0.9565712318539852  1.0000
  O   O13       1.0  0.41994565555809527  0.5952021508285553  0.9133271290267047  1.0000
  O   O14       1.0  0.57784103987661  0.5824022681650193  0.8964987442842016  1.0000
  O   O15       1.0  0.5695801486222081  0.5900281539771869  0.04612256946255399  1.0000
  O   O16       1.0  0.4117801767691702  0.5600877307719685  0.07058713826340579  1.0000
