data_image0
_chemical_formula_structural       Zn8H24C48N6Cl6O26
_chemical_formula_sum              "Zn8 H24 C48 N6 Cl6 O26"
_cell_length_a       18.169782820778
_cell_length_b       18.10174915459579
_cell_length_c       17.92642484586006
_cell_angle_alpha    61.67326321437665
_cell_angle_beta     62.0956888429216
_cell_angle_gamma    62.35987557564866

_space_group_name_H-M_alt    "P 1"
_space_group_IT_number       1

loop_
  _space_group_symop_operation_xyz
  'x, y, z'

loop_
  _atom_site_type_symbol
  _atom_site_label
  _atom_site_symmetry_multiplicity
  _atom_site_fract_x
  _atom_site_fract_y
  _atom_site_fract_z
  _atom_site_occupancy
  Zn  Zn1       1.0  0.9141663719185119  0.004300357430992093  0.14587981252591206  1.0000
  Zn  Zn2       1.0  0.9126506667471546  0.002675983701955399  0.9703433351229692  1.0000
  Zn  Zn3       1.0  0.08527278011179353  0.9979336086114615  0.9815393101692255  1.0000
  Zn  Zn4       1.0  0.9197117248571516  0.1749886419479552  0.9764551168191319  1.0000
  Zn  Zn5       1.0  0.4927986838773963  0.588014415270088  0.3869216691946277  1.0000
  Zn  Zn6       1.0  0.5017912170776171  0.5946961447848693  0.5597041824206671  1.0000
  Zn  Zn7       1.0  0.5025786080294949  0.41577215408140233  0.5601007606136007  1.0000
  Zn  Zn8       1.0  0.3289038595240683  0.5822109137119043  0.5658735819935714  1.0000
  H   H1        1.0  0.7054662959917835  0.8969223641571987  0.10563455448262708  1.0000
  H   H2        1.0  0.6905715486648492  0.712104305179963  0.41905504140857625  1.0000
  H   H3        1.0  0.8079103563267012  0.7494420412494377  0.4003212125415986  1.0000
  H   H4        1.0  0.8527280732048087  0.8262967783256412  0.3019007728835631  1.0000
  H   H5        1.0  0.229224790234838  0.7722861700652216  0.1322735994676236  1.0000
  H   H6        1.0  0.15498843108697002  0.7789910803879394  0.43255154589829203  1.0000
  H   H7        1.0  0.030342154073934983  0.9039273044880431  0.4084827143153759  1.0000
  H   H8        1.0  0.9995653958644157  0.9435848319181377  0.3137305219367402  1.0000
  H   H9        1.0  0.809511879421919  0.3443656354320908  0.11741323071775155  1.0000
  H   H10       1.0  0.605929733362224  0.24480447778271505  0.4195456637741443  1.0000
  H   H11       1.0  0.6455677810664328  0.1097053597456039  0.3984803494444406  1.0000
  H   H12       1.0  0.7301959709889233  0.08270435309109557  0.304963208779057  1.0000
  H   H13       1.0  0.2536043105690666  0.8986467734880678  0.7785377413484866  1.0000
  H   H14       1.0  0.1607601678475561  0.6977055937663155  0.7519097452413562  1.0000
  H   H15       1.0  0.02366194527562728  0.7370170374657834  0.8608982104854945  1.0000
  H   H16       1.0  0.9945374348569018  0.8209444881381458  0.9020625983412888  1.0000
  H   H17       1.0  0.7096971367664722  0.33843717369923354  0.8807292973550533  1.0000
  H   H18       1.0  0.72448971636468  0.26795557929190034  0.6381927569038055  1.0000
  H   H19       1.0  0.8360666935895439  0.1337673815951064  0.675340902161409  1.0000
  H   H20       1.0  0.870121798954905  0.10048155137566536  0.7658830467545954  1.0000
  H   H21       1.0  0.06601180086628489  0.33221689183262265  0.7737678079448714  1.0000
  H   H22       1.0  0.36969266410122253  0.236005738545181  0.7723075497557591  1.0000
  H   H23       1.0  0.35063971388900234  0.0994640053239308  0.882789814220935  1.0000
  H   H24       1.0  0.2522448245854463  0.07568082837558882  0.9247410324567868  1.0000
  C   C1        1.0  0.8199765431180881  0.9059686330179418  0.14964469720815268  1.0000
  C   C2        1.0  0.7593611033852457  0.8529280048642038  0.2089573549414467  1.0000
  C   C3        1.0  0.702678176330565  0.8553087962223459  0.17433637661451942  1.0000
  C   C4        1.0  0.6437520709081921  0.8076425852700668  0.22472279190591157  1.0000
  C   C5        1.0  0.6405315458245158  0.7539915113551103  0.31426899689613214  1.0000
  C   C6        1.0  0.6951467651603593  0.7525369380294719  0.3495514801021855  1.0000
  C   C7        1.0  0.7554249418954342  0.8007265942532982  0.2997223936246343  1.0000
  C   C8        1.0  0.5837704397977176  0.6950282779839583  0.37426974043376066  1.0000
  C   C9        1.0  0.08554515357057117  0.901805235448002  0.167393960008681  1.0000
  C   C10       1.0  0.13685781789610726  0.8378875290293522  0.22888286107611588  1.0000
  C   C11       1.0  0.21364031619592083  0.7737880252131576  0.19811468216982317  1.0000
  C   C12       1.0  0.26867502711723296  0.7136519852077541  0.24888280564687199  1.0000
  C   C13       1.0  0.2480107130154823  0.7177772465413381  0.33360478433903035  1.0000
  C   C14       1.0  0.1705256754085839  0.7783832544352548  0.36619506008174346  1.0000
  C   C15       1.0  0.11256244924040702  0.8393318601968858  0.3163744102554917  1.0000
  C   C16       1.0  0.30838239225479924  0.6640756151150952  0.38893666718043823  1.0000
  C   C17       1.0  0.8190856255988666  0.1807491477446916  0.1595860697597118  1.0000
  C   C18       1.0  0.7606927844444938  0.23659366098066667  0.21699765073891797  1.0000
  C   C19       1.0  0.7638450055924083  0.3231994164393939  0.18352408833379014  1.0000
  C   C20       1.0  0.7118233104962003  0.38087029254043603  0.23209197225147454  1.0000
  C   C21       1.0  0.6535267951898048  0.3517902932032087  0.31841078978653314  1.0000
  C   C22       1.0  0.6503850614365732  0.2661189107342494  0.3523525502330641  1.0000
  C   C23       1.0  0.702448800343639  0.2062835462629451  0.3041003045258535  1.0000
  C   C24       1.0  0.5935375240069122  0.40818636674627135  0.3769869049180912  1.0000
  C   C25       1.0  0.09094083191441629  0.9067181454584697  0.8792414880933068  1.0000
  C   C26       1.0  0.14769786046884548  0.8501996966682343  0.822127568787998  1.0000
  C   C27       1.0  0.23380541944044353  0.8537462900378754  0.7729341191549254  1.0000
  C   C28       1.0  0.29272083923984143  0.8031981931833341  0.7178103645297186  1.0000
  C   C29       1.0  0.26573434382854094  0.7453867160286833  0.7109609203295904  1.0000
  C   C30       1.0  0.18047853924696972  0.7418156012299518  0.7591154229702398  1.0000
  C   C31       1.0  0.11918336183526182  0.7930182963480236  0.8152045065425002  1.0000
  C   C32       1.0  0.32297045448396494  0.6865155233953574  0.6545540893008946  1.0000
  C   C33       1.0  0.8277073978528408  0.18495507725450722  0.8721284002641738  1.0000
  C   C34       1.0  0.7741734517042289  0.2443597519347733  0.8115577284070028  1.0000
  C   C35       1.0  0.7136362773887512  0.32399972739755606  0.8262988990108939  1.0000
  C   C36       1.0  0.6580157278563091  0.38255355302374033  0.7755160426284321  1.0000
  C   C37       1.0  0.6621950915107533  0.36157485981834014  0.7068079865351108  1.0000
  C   C38       1.0  0.7227777859068  0.28335375863111517  0.6910311223787673  1.0000
  C   C39       1.0  0.7803210390361529  0.223158494291205  0.7413039488962738  1.0000
  C   C40       1.0  0.6027330878273319  0.4176380005289245  0.6503806378471425  1.0000
  C   C41       1.0  0.10370202799585128  0.17486958084524667  0.8910645561315818  1.0000
  C   C42       1.0  0.16402378814237306  0.22835243184784554  0.8327813369434197  1.0000
  C   C43       1.0  0.13245165005409384  0.31191807206607786  0.7739035719720989  1.0000
  C   C44       1.0  0.1833601100015443  0.3673713287903624  0.7164275433313138  1.0000
  C   C45       1.0  0.2698118141384356  0.33969559186110126  0.7171988550858046  1.0000
  C   C46       1.0  0.3024561641015637  0.2565141559648509  0.7736941861266828  1.0000
  C   C47       1.0  0.2518098938561907  0.19860662157231704  0.8328211209847681  1.0000
  C   C48       1.0  0.32778569895939574  0.39732607583759005  0.6617279861016101  1.0000
  N   N1        1.0  0.8057964175388292  0.7959390764084232  0.3401429504138493  1.0000
  N   N2        1.0  0.03711930209804849  0.8963127201367626  0.3530499420376004  1.0000
  N   N3        1.0  0.6960859662715322  0.1230720797230163  0.34259415463650805  1.0000
  N   N4        1.0  0.036494447642134276  0.7866705803273606  0.8589183661848312  1.0000
  N   N5        1.0  0.8405616851426886  0.14929155182915815  0.7199616727521275  1.0000
  N   N6        1.0  0.28701330452751966  0.1190483359356023  0.8881696831761589  1.0000
  Cl  Cl1       1.0  0.5738525002087796  0.8204109903761464  0.17613710769054347  1.0000
  Cl  Cl2       1.0  0.35833970753061806  0.6334593835853963  0.20807894225096402  1.0000
  Cl  Cl3       1.0  0.7249302349778973  0.48410321044695354  0.18634059574294778  1.0000
  Cl  Cl4       1.0  0.3949748343841365  0.8178381113840983  0.6564042085444229  1.0000
  Cl  Cl5       1.0  0.581526505708041  0.4757675212413872  0.8032156031092373  1.0000
  Cl  Cl6       1.0  0.14033772591386656  0.4659753056761815  0.6419072856424535  1.0000
  O   O1        1.0  0.9576405897700794  0.045716680368407495  0.016547376363533223  1.0000
  O   O2        1.0  0.824574824238688  0.9448472142141996  0.06711704877216827  1.0000
  O   O3        1.0  0.8652407080093525  0.9101024841230088  0.1848937889321502  1.0000
  O   O4        1.0  0.5605710912504591  0.6797699467346519  0.4580602849611637  1.0000
  O   O5        1.0  0.565995360208234  0.6632375412523431  0.3371496028916498  1.0000
  O   O6        1.0  0.12059432261789742  0.9047631947591414  0.08572455831742323  1.0000
  O   O7        1.0  0.008089314050757008  0.95154146189455  0.19914627975129637  1.0000
  O   O8        1.0  0.2726190279194327  0.6366386965828709  0.47347213773962  1.0000
  O   O9        1.0  0.38943963265644754  0.654199868288508  0.3467277957358235  1.0000
  O   O10       1.0  0.8639723027157589  0.2158512357595797  0.08009186790927451  1.0000
  O   O11       1.0  0.8220170352889867  0.09876085264607329  0.19341557122265127  1.0000
  O   O12       1.0  0.579836384105441  0.36807617499680134  0.4609135859489156  1.0000
  O   O13       1.0  0.5602474481310793  0.48976678778048927  0.3390282850186567  1.0000
  O   O14       1.0  0.12681417637288925  0.9465734571400972  0.8888903636818811  1.0000
  O   O15       1.0  0.008778699904965508  0.9128490360465734  0.91570883678844  1.0000
  O   O16       1.0  0.2830286117050632  0.6695821498018618  0.6246213891491479  1.0000
  O   O17       1.0  0.40482144524598607  0.6570896834381657  0.6424535918533464  1.0000
  O   O18       1.0  0.8318875968041015  0.21790805987881612  0.9187021106781259  1.0000
  O   O19       1.0  0.8658030472972627  0.103385876346799  0.8752789874715817  1.0000
  O   O20       1.0  0.5748402501412289  0.37506460492831195  0.6347209537386432  1.0000
  O   O21       1.0  0.5864844547556772  0.5008990037730569  0.62204286412814  1.0000
  O   O22       1.0  0.023420206975544047  0.21283161774680076  0.8939131836043259  1.0000
  O   O23       1.0  0.13549809818622552  0.09309080339917132  0.9351005246260017  1.0000
  O   O24       1.0  0.4091341647201716  0.3595863580425345  0.6284158106974117  1.0000
  O   O25       1.0  0.2913520716222209  0.47857536335373396  0.654685186105745  1.0000
  O   O26       1.0  0.4573401270356499  0.5450779473686537  0.518264511246109  1.0000
