data_image0
_chemical_formula_structural       Zn6H48C102O24F36
_chemical_formula_sum              "Zn6 H48 C102 O24 F36"
_cell_length_a       7.603416101190072
_cell_length_b       21.32804217203316
_cell_length_c       21.328002893108344
_cell_angle_alpha    120.00105416314837
_cell_angle_beta     89.99928260121654
_cell_angle_gamma    90.00066581655489

_space_group_name_H-M_alt    "P 1"
_space_group_IT_number       1

loop_
  _space_group_symop_operation_xyz
  'x, y, z'

loop_
  _atom_site_type_symbol
  _atom_site_label
  _atom_site_symmetry_multiplicity
  _atom_site_fract_x
  _atom_site_fract_y
  _atom_site_fract_z
  _atom_site_occupancy
  Zn  Zn1       1.0  0.8509308612409258  0.7308996219274491  0.3654895129629523  1.0000
  Zn  Zn2       1.0  0.5179626403863652  0.03212675144346379  0.06419771078279268  1.0000
  Zn  Zn3       1.0  0.5175979132292811  0.6345894011914055  0.26910380491504066  1.0000
  Zn  Zn4       1.0  0.18463232983685882  0.032070574836822435  0.9678756329388418  1.0000
  Zn  Zn5       1.0  0.18426580790732325  0.6345146501212112  0.3654162106352102  1.0000
  Zn  Zn6       1.0  0.8512959269893726  0.9358087562102426  0.9679318313972872  1.0000
  H   H1        1.0  0.0552016009792595  0.9240473720961616  0.322493865349031  1.0000
  H   H2        1.0  0.5112349757187149  0.8095846359009826  0.5082549493489807  1.0000
  H   H3        1.0  0.17900504884162421  0.9689500163021804  0.1431382789086086  1.0000
  H   H4        1.0  0.989164821206998  0.08085759558962011  0.8212086201706368  1.0000
  H   H5        1.0  0.523729054892563  0.9686106650058902  0.8255875697886097  1.0000
  H   H6        1.0  0.04701256595567571  0.9263978510631143  0.5117322924864636  1.0000
  H   H7        1.0  0.7126435763667802  0.08035631859250715  0.2596432051478743  1.0000
  H   H8        1.0  0.19048799031251215  0.8097793056268755  0.30190446388002806  1.0000
  H   H9        1.0  0.3145411665640482  0.9897762765944335  0.257401364415216  1.0000
  H   H10       1.0  0.6468176740532243  0.9238011425305355  0.6018049537101433  1.0000
  H   H11       1.0  0.18044854984081132  0.04056158815013331  0.6039594802570248  1.0000
  H   H12       1.0  0.3881853561840743  0.9893224466484792  0.732056647777881  1.0000
  H   H13       1.0  0.6557432681012757  0.9263939289970436  0.4143956739932833  1.0000
  H   H14       1.0  0.5225739910171683  0.04055148510344255  0.43627630528309413  1.0000
  H   H15       1.0  0.8558319678324225  0.10278926775884405  0.7289869144522497  1.0000
  H   H16       1.0  0.8460490941603995  0.1023976661356372  0.37380524677345756  1.0000
  H   H17       1.0  0.7218609035352301  0.3984451045854626  0.0759515906127106  1.0000
  H   H18       1.0  0.17788327080522495  0.6986703234964508  0.19041261344979435  1.0000
  H   H19       1.0  0.8456787276274869  0.17419240252620938  0.031048289148443996  1.0000
  H   H20       1.0  0.6558235889794234  0.740348454132061  0.9191371471182919  1.0000
  H   H21       1.0  0.19040137376251212  0.8569778298033909  0.03139276761919533  1.0000
  H   H22       1.0  0.7136650097436503  0.5853348311919007  0.07360289841665957  1.0000
  H   H23       1.0  0.37930724590192716  0.17928651477357252  0.9196508007803315  1.0000
  H   H24       1.0  0.8571456771760212  0.49212214533009296  0.19021555812048524  1.0000
  H   H25       1.0  0.981223616763778  0.2676261068372483  0.010218560062362816  1.0000
  H   H26       1.0  0.31347923180255327  0.6780028394643905  0.07619977873152817  1.0000
  H   H27       1.0  0.8470985355696213  0.5633935651174227  0.9594380511224543  1.0000
  H   H28       1.0  0.05485555377081401  0.7427318655039626  0.010680077428261844  1.0000
  H   H29       1.0  0.3224064113571998  0.4880048124329334  0.07360807334845988  1.0000
  H   H30       1.0  0.18923232393250097  0.3957261621289374  0.9594487623366204  1.0000
  H   H31       1.0  0.5224899551234969  0.6261937256515181  0.8972060443989489  1.0000
  H   H32       1.0  0.5127201984503601  0.27140800111468627  0.8976079341592749  1.0000
  H   H33       1.0  0.38852059801125455  0.6774994991551253  0.6015562066933738  1.0000
  H   H34       1.0  0.8445678198421549  0.49174225575612956  0.30132311095982095  1.0000
  H   H35       1.0  0.512353415044629  0.8568577732639966  0.8258151938831233  1.0000
  H   H36       1.0  0.3224731712413203  0.1787888035654248  0.2596545570629231  1.0000
  H   H37       1.0  0.8570558869796089  0.1744094693174389  0.1430180145892521  1.0000
  H   H38       1.0  0.3803244707774809  0.4882716947284392  0.41465782977769544  1.0000
  H   H39       1.0  0.0459757295988794  0.7403595387603871  0.8207140808785026  1.0000
  H   H40       1.0  0.5238130572456117  0.6980939853028472  0.5078855465362649  1.0000
  H   H41       1.0  0.6478948997916165  0.7425926852828723  0.7323793229212895  1.0000
  H   H42       1.0  0.9801339655225335  0.39819479982526934  0.32199174066741415  1.0000
  H   H43       1.0  0.5137547336970345  0.396044513250473  0.4365953089419746  1.0000
  H   H44       1.0  0.7215071317000723  0.26794408659279867  0.2572594526129706  1.0000
  H   H45       1.0  0.989078357551499  0.5856107526643582  0.511997946247142  1.0000
  H   H46       1.0  0.8559060013649076  0.5637247214203  0.6042725637287845  1.0000
  H   H47       1.0  0.18912340801193045  0.2710161990414264  0.37380691104903707  1.0000
  H   H48       1.0  0.17938131114066647  0.6261946040884964  0.7285921841207353  1.0000
  C   C1        1.0  0.18432083663633145  0.792664215768177  0.4487057704956925  1.0000
  C   C2        1.0  0.8512351139274444  0.01074367304470766  0.8847163975020746  1.0000
  C   C3        1.0  0.5177846047025129  0.7927848111766166  0.3441872187544632  1.0000
  C   C4        1.0  0.8510562370887842  0.010620955921268672  0.12605486144555295  1.0000
  C   C5        1.0  0.4330078117519706  0.8608533363048068  0.3561282485499149  1.0000
  C   C6        1.0  0.766353379874616  0.02272022739882822  0.8286243111744295  1.0000
  C   C7        1.0  0.2692078066653991  0.8607535217462967  0.50479211739448  1.0000
  C   C8        1.0  0.9358737049426086  0.022611364821123917  0.1941360488006723  1.0000
  C   C9        1.0  0.18724322990019002  0.924912627239962  0.34267636412797486  1.0000
  C   C10       1.0  0.4388442676993805  0.8603253484896384  0.5302103382375803  1.0000
  C   C11       1.0  0.10611107755770634  0.9973347190800508  0.19379363961149199  1.0000
  C   C12       1.0  0.8576765787080591  0.06063458988936088  0.8010325317523835  1.0000
  C   C13       1.0  0.5963959204588606  0.9971719504690879  0.8034516186124916  1.0000
  C   C14       1.0  0.17815721007849566  0.9262970662921003  0.5321447012002594  1.0000
  C   C15       1.0  0.8443235387605129  0.06029524147227508  0.2596102027375692  1.0000
  C   C16       1.0  0.2631556489647693  0.8604836895591461  0.33050070709968793  1.0000
  C   C17       1.0  0.6119644714570358  0.04706295242147016  0.7230676997141217  1.0000
  C   C18       1.0  0.18221246176787534  0.009663693309093429  0.25824016403102223  1.0000
  C   C19       1.0  0.5149023196093339  0.9247419039206191  0.5824111862624406  1.0000
  C   C20       1.0  0.0904531695289919  0.04715016996860303  0.3240805137765078  1.0000
  C   C21       1.0  0.25443884365675734  0.9906899009564683  0.584441476762933  1.0000
  C   C22       1.0  0.5178421762253435  0.060089319463024524  0.6666741245110045  1.0000
  C   C23       1.0  0.5203269339466345  0.009424741325474901  0.751278878186177  1.0000
  C   C24       1.0  0.18479398299443525  0.06021720418586089  0.3934716426992536  1.0000
  C   C25       1.0  0.5243895035368098  0.9263389083898231  0.3940640512925029  1.0000
  C   C26       1.0  0.44823903475808186  0.9907462834201011  0.4061515543672769  1.0000
  C   C27       1.0  0.781421166609306  0.07273591132884855  0.7487364082120604  1.0000
  C   C28       1.0  0.6475126162663899  0.08147330663145158  0.6234695078975603  1.0000
  C   C29       1.0  0.9206580446403053  0.07251995723678561  0.3240352350443345  1.0000
  C   C30       1.0  0.38833752381558645  0.12475956417294748  0.7098177529974663  1.0000
  C   C31       1.0  0.27888007989877656  0.9907657913092008  0.3803918002147952  1.0000
  C   C32       1.0  0.4235899940033293  0.9906472072882552  0.6103632038658873  1.0000
  C   C33       1.0  0.3144784672150252  0.12481779276301098  0.4148802753342692  1.0000
  C   C34       1.0  0.055372434812909405  0.0817727861761527  0.45818247059609263  1.0000
  C   C35       1.0  0.8509731661519453  0.6560424784691959  0.20733384663914475  1.0000
  C   C36       1.0  0.5179088872345688  0.8739762447257321  0.9892595037337202  1.0000
  C   C37       1.0  0.1844224026991199  0.551404740877814  0.20722456721583174  1.0000
  C   C38       1.0  0.5177309460517494  0.11543549365980235  0.9893817039630617  1.0000
  C   C39       1.0  0.0996726137602266  0.49527578473716005  0.1391487561334941  1.0000
  C   C40       1.0  0.4330224685024718  0.8059027892071101  0.9772793868113823  1.0000
  C   C41       1.0  0.9358623120003247  0.6440362346172179  0.13924499380740948  1.0000
  C   C42       1.0  0.6025478814209819  0.17152336726620385  0.9773912944366641  1.0000
  C   C43       1.0  0.8539018793330515  0.4177635560350054  0.07508419506930859  1.0000
  C   C44       1.0  0.10549911664420361  0.6698815837294134  0.13967089648337355  1.0000
  C   C45       1.0  0.772789972768692  0.19646085478504458  0.0026637730211831086  1.0000
  C   C46       1.0  0.5243402339979825  0.7403960861075943  0.9393609030827931  1.0000
  C   C47       1.0  0.26306575821055844  0.8062800611028179  0.002829246062503898  1.0000
  C   C48       1.0  0.8448155987819419  0.6058463225499224  0.07370115962539359  1.0000
  C   C49       1.0  0.5109901366756517  0.19931267469550545  0.9397058383489847  1.0000
  C   C50       1.0  0.9298122210930304  0.4700162006687377  0.13951651674525317  1.0000
  C   C51       1.0  0.27862440662558896  0.6760040924471653  0.9529346619859707  1.0000
  C   C52       1.0  0.8488894878614417  0.24857761596430084  0.9903325578116761  1.0000
  C   C53       1.0  0.1815526932933977  0.6576692013724355  0.0752550480316714  1.0000
  C   C54       1.0  0.7571252625853406  0.2769294855350282  0.9528469284204489  1.0000
  C   C55       1.0  0.9210953910043005  0.5937496232464666  0.009308414635015257  1.0000
  C   C56       1.0  0.18448293390527945  0.6065869970822038  0.9399059924179269  1.0000
  C   C57       1.0  0.186997579880348  0.7418539092025898  0.9905747356560681  1.0000
  C   C58       1.0  0.851458995389038  0.3332544435240194  0.9397801441070539  1.0000
  C   C59       1.0  0.1910559132733951  0.4677258206563479  0.07366272706469348  1.0000
  C   C60       1.0  0.11490357352925433  0.41540659905615485  0.009254783926287856  1.0000
  C   C61       1.0  0.4480842078894726  0.6759951958312841  0.927257588679744  1.0000
  C   C62       1.0  0.3141476648812756  0.5419935185175221  0.9185145445446637  1.0000
  C   C63       1.0  0.5873292451797669  0.2515135070721897  0.9274801377114554  1.0000
  C   C64       1.0  0.05496823874216971  0.5850667311240231  0.8752415191830422  1.0000
  C   C65       1.0  0.9455376938120709  0.38962844876803626  0.009233370394270059  1.0000
  C   C66       1.0  0.09024295049881913  0.6197177277807526  0.00935086706937948  1.0000
  C   C67       1.0  0.9811511238755063  0.29006567739523353  0.8751802771192486  1.0000
  C   C68       1.0  0.7220353442458248  0.3764093989511608  0.918227084586803  1.0000
  C   C69       1.0  0.5176439364211093  0.5512966410152416  0.3439571208175707  1.0000
  C   C70       1.0  0.18455093153533403  0.11528228782441372  0.1260237733574741  1.0000
  C   C71       1.0  0.8511070783300951  0.6558191538134963  0.4486011494738378  1.0000
  C   C72       1.0  0.1844066589879674  0.8739487667888355  0.884566662816823  1.0000
  C   C73       1.0  0.7663361215952025  0.6438743180141627  0.5047281541040362  1.0000
  C   C74       1.0  0.0996717028143976  0.17137388294133157  0.19409574130455806  1.0000
  C   C75       1.0  0.602536245111601  0.49520973939777946  0.35595775461764123  1.0000
  C   C76       1.0  0.26921841170712224  0.8058657404944608  0.8284796059802059  1.0000
  C   C77       1.0  0.5205691480854997  0.6573209371920398  0.5822423906296237  1.0000
  C   C78       1.0  0.772165300370105  0.4697891192476789  0.3301116130829911  1.0000
  C   C79       1.0  0.43946074868050994  0.8062025873906079  0.8035445777563551  1.0000
  C   C80       1.0  0.19098654630365536  0.19896376233486993  0.2596027475934335  1.0000
  C   C81       1.0  0.9297174415054743  0.19654569127461488  0.19371767572649648  1.0000
  C   C82       1.0  0.511477387738026  0.46785718193365256  0.39414708354369304  1.0000
  C   C83       1.0  0.17765636213952257  0.7403907968466398  0.8006899462788438  1.0000
  C   C84       1.0  0.5964782352782407  0.6694993258429349  0.5299882429884377  1.0000
  C   C85       1.0  0.9452700150724171  0.27693197048579066  0.3239938445649243  1.0000
  C   C86       1.0  0.5155566719613988  0.7417548787855636  0.7514301594105887  1.0000
  C   C87       1.0  0.8482169049715864  0.41758365395496355  0.3423203274556315  1.0000
  C   C88       1.0  0.42379471616018805  0.6759173147420652  0.7230775621471535  1.0000
  C   C89       1.0  0.5877525765423786  0.4155643520423523  0.40624623523849823  1.0000
  C   C90       1.0  0.8511396630114164  0.33332693781080985  0.3934119447254573  1.0000
  C   C91       1.0  0.8536434654984151  0.24871853245219464  0.2581426412016796  1.0000
  C   C92       1.0  0.5181311180847815  0.6065248209745562  0.6667508112377901  1.0000
  C   C93       1.0  0.8577229026866675  0.6059403432588297  0.5322775932743582  1.0000
  C   C94       1.0  0.7815731345346039  0.593852510191212  0.5845968515977376  1.0000
  C   C95       1.0  0.1147271298270454  0.2512631097283915  0.32400154571070766  1.0000
  C   C96       1.0  0.9808151631654882  0.3765369484714681  0.45800360889605674  1.0000
  C   C97       1.0  0.2539969141283933  0.675964063839686  0.7484898474182629  1.0000
  C   C98       1.0  0.7216349628430054  0.29018489954336246  0.4149418583490102  1.0000
  C   C99       1.0  0.6122123862303043  0.6196074003868404  0.6103787937982332  1.0000
  C   C100      1.0  0.756898947947228  0.38963657780275424  0.38027895724774635  1.0000
  C   C101      1.0  0.6478217300698932  0.5851186754762168  0.7099428028021677  1.0000
  C   C102      1.0  0.3887113636870936  0.5418154425710497  0.6235985778938228  1.0000
  O   O1        1.0  0.7030152621443478  0.04080225021162677  0.13236042458380126  1.0000
  O   O2        1.0  0.03638784782054931  0.7989848136256938  0.4247442437194095  1.0000
  O   O3        1.0  0.7684098523223426  0.9714271798259161  0.9047659570435937  1.0000
  O   O4        1.0  0.6657005902315803  0.7991104968974196  0.37446934913971563  1.0000
  O   O5        1.0  0.43508203098299  0.7334088277305214  0.3047527192695512  1.0000
  O   O6        1.0  0.9339157727051911  0.9712778182199455  0.06671482873831276  1.0000
  O   O7        1.0  0.2669081021225922  0.733277085281635  0.42881007115570907  1.0000
  O   O8        1.0  0.9993273188019317  0.040902650734111014  0.9085635602140838  1.0000
  O   O9        1.0  0.3696936776407185  0.09155658986856705  0.95920132675824  1.0000
  O   O10       1.0  0.7030129779894736  0.6257632140165369  0.20100913421559605  1.0000
  O   O11       1.0  0.43509398331266896  0.9333379196064582  0.028578180541600988  1.0000
  O   O12       1.0  0.33235903469877576  0.575368274287591  0.2008981001948057  1.0000
  O   O13       1.0  0.10173780812555583  0.5713432746137669  0.26659339012045546  1.0000
  O   O14       1.0  0.6005929241535667  0.09543679045128778  0.028727336306232587  1.0000
  O   O15       1.0  0.9335514449496928  0.6955262765048786  0.266722496340968  1.0000
  O   O16       1.0  0.6659940617108334  0.8676606390563248  0.9590937905694755  1.0000
  O   O17       1.0  0.0363529549338821  0.8676482950039099  0.9084425198892774  1.0000
  O   O18       1.0  0.3697155529124674  0.5752496910043305  0.3742303700149705  1.0000
  O   O19       1.0  0.10173886027852325  0.09523768057481867  0.0666598026719356  1.0000
  O   O20       1.0  0.9990220984241063  0.625532346674845  0.42464011250343253  1.0000
  O   O21       1.0  0.7684162807681505  0.6952570968433561  0.4286664156670099  1.0000
  O   O22       1.0  0.26727002306318326  0.9332901966038633  0.9045661481920816  1.0000
  O   O23       1.0  0.6002538622423899  0.5711977636513267  0.3044709861959021  1.0000
  O   O24       1.0  0.33264176737259993  0.09142887735134758  0.1323366063333893  1.0000
  F   F1        1.0  0.9819631520359807  0.14837385498063324  0.48385827096952017  1.0000
  F   F2        1.0  0.44958930738229713  0.10470918451801482  0.3662855882989504  1.0000
  F   F3        1.0  0.38770008025068853  0.15071101640715068  0.48154005460493465  1.0000
  F   F4        1.0  0.2532132323036578  0.10473389202148553  0.738360190583556  1.0000
  F   F5        1.0  0.9204344764690192  0.033132709499270274  0.43832541806248315  1.0000
  F   F6        1.0  0.720910255332292  0.1481062073111515  0.6642640523085389  1.0000
  F   F7        1.0  0.3152017849650548  0.1505805423597764  0.6689636321318557  1.0000
  F   F8        1.0  0.7824911295294258  0.032829964769547484  0.5949164568496385  1.0000
  F   F9        1.0  0.13760028778546746  0.08224525298346907  0.5149389883618268  1.0000
  F   F10       1.0  0.5655359726403334  0.08174718758608172  0.5670337991641501  1.0000
  F   F11       1.0  0.23251884889816674  0.1814705572307317  0.4150568618842882  1.0000
  F   F12       1.0  0.4703519111636895  0.18145136242242185  0.7662446389949193  1.0000
  F   F13       1.0  0.6486043714018309  0.33548629210701353  0.8516288766579762  1.0000
  F   F14       1.0  0.11625486514545713  0.2615754339449338  0.8952846153863232  1.0000
  F   F15       1.0  0.0543819584871201  0.33083137820884895  0.8492874527705608  1.0000
  F   F16       1.0  0.9198378216964401  0.6336314499900553  0.8952699397366857  1.0000
  F   F17       1.0  0.5871087708559344  0.4051962803511771  0.9668701689830284  1.0000
  F   F18       1.0  0.3875298926885265  0.5161594652082043  0.8518799432204671  1.0000
  F   F19       1.0  0.981839152823625  0.5183887376245764  0.849417901884351  1.0000
  F   F20       1.0  0.4491246331640967  0.5620810979411459  0.9671545516892052  1.0000
  F   F21       1.0  0.8042795553152403  0.43269164928130976  0.9177538596229836  1.0000
  F   F22       1.0  0.23217044516515986  0.48528530394509767  0.9182396720906565  1.0000
  F   F23       1.0  0.8991748847126146  0.23359424707871304  0.8185292713640846  1.0000
  F   F24       1.0  0.1369744617065436  0.5848046732757338  0.8185492975613186  1.0000
  F   F25       1.0  0.3152827193192635  0.5161476618528695  0.6645283607514257  1.0000
  F   F26       1.0  0.7829152443575184  0.6337191798961683  0.7384354486503213  1.0000
  F   F27       1.0  0.7210542344876388  0.5184620692321076  0.6691728527733928  1.0000
  F   F28       1.0  0.5865131851561004  0.26163750507934214  0.3663744604515741  1.0000
  F   F29       1.0  0.25378861827967114  0.5616695477306591  0.5948095616605684  1.0000
  F   F30       1.0  0.054214762991783516  0.3357444610329168  0.48384037980451916  1.0000
  F   F31       1.0  0.648494972907443  0.3310407717118764  0.48161672770202557  1.0000
  F   F32       1.0  0.11578636991912825  0.4050866823794479  0.43790693853776463  1.0000
  F   F33       1.0  0.4709376223255363  0.4850509397293408  0.5673156108578751  1.0000
  F   F34       1.0  0.8988361491713946  0.43297066163518844  0.5147083285063516  1.0000
  F   F35       1.0  0.5658536444947019  0.5849342846225982  0.7664137966778455  1.0000
  F   F36       1.0  0.8036511306792067  0.23375917315622266  0.4152077864429699  1.0000
