data_image0
_chemical_formula_structural       Cu4P4H20C20O16
_chemical_formula_sum              "Cu4 P4 H20 C20 O16"
_cell_length_a       7.634581607919354
_cell_length_b       7.4540672480044865
_cell_length_c       11.645297746773489
_cell_angle_alpha    89.99991623764124
_cell_angle_beta     103.25901187070981
_cell_angle_gamma    89.99993217333152

_space_group_name_H-M_alt    "P 1"
_space_group_IT_number       1

loop_
  _space_group_symop_operation_xyz
  'x, y, z'

loop_
  _atom_site_type_symbol
  _atom_site_label
  _atom_site_symmetry_multiplicity
  _atom_site_fract_x
  _atom_site_fract_y
  _atom_site_fract_z
  _atom_site_occupancy
  Cu  Cu1       1.0  0.4181489459375385  0.3095443287534111  0.4735863674431399  1.0000
  Cu  Cu2       1.0  0.08185426705581021  0.8095466678752956  0.5264116878027352  1.0000
  Cu  Cu3       1.0  0.5818520578339275  0.690452998210262  0.5264121827693415  1.0000
  Cu  Cu4       1.0  0.9181507805824438  0.19045468373182933  0.4735891813924979  1.0000
  P   P1        1.0  0.30549468281540737  0.9509554256651855  0.35827470744403206  1.0000
  P   P2        1.0  0.1945069654443259  0.45095834809389157  0.6417246954269871  1.0000
  P   P3        1.0  0.6945049752566063  0.04904458439846591  0.6417236425868111  1.0000
  P   P4        1.0  0.8054927027926626  0.5490443450658519  0.3582762322699153  1.0000
  H   H1        1.0  0.9983274299677517  0.14453233603453705  0.2198885600926275  1.0000
  H   H2        1.0  0.5016727971619304  0.6445328688782085  0.7801141775670786  1.0000
  H   H3        1.0  0.0016695434866563002  0.855469015578734  0.7801111080224885  1.0000
  H   H4        1.0  0.4983282201635434  0.35546714118061834  0.2198878095340291  1.0000
  H   H5        1.0  0.37601781462525  0.7421890385926988  0.1608603438419749  1.0000
  H   H6        1.0  0.1239801299159566  0.2421889259991375  0.8391387104074894  1.0000
  H   H7        1.0  0.6239791554390449  0.25781365457098815  0.8391384650497714  1.0000
  H   H8        1.0  0.8760195484935026  0.7578070594103822  0.16086479496114953  1.0000
  H   H9        1.0  0.2304612665677084  0.7393441721233529  0.9471787326220067  1.0000
  H   H10       1.0  0.2695380248212444  0.23934830579516136  0.05281966601522469  1.0000
  H   H11       1.0  0.7695370424201115  0.26065315484331825  0.052818558007871254  1.0000
  H   H12       1.0  0.7304670295940171  0.7606543873595372  0.9471829216243179  1.0000
  H   H13       1.0  0.13906297159560674  0.42396673489517417  0.3436639295149462  1.0000
  H   H14       1.0  0.36093871976336095  0.9239671126553689  0.6563355059246447  1.0000
  H   H15       1.0  0.8609380389528668  0.5760319336160721  0.656336339141852  1.0000
  H   H16       1.0  0.6390663244879988  0.07603155585375987  0.34366450404964877  1.0000
  H   H17       1.0  0.3025275848426503  0.5587400397686794  0.3431339830839164  1.0000
  H   H18       1.0  0.1974746897328501  0.058740242117139005  0.656865893071803  1.0000
  H   H19       1.0  0.6974747680130235  0.44125997029196645  0.6568656265295303  1.0000
  H   H20       1.0  0.802530361296583  0.9412584263900854  0.343135835347617  1.0000
  C   C1        1.0  0.0517168131907795  0.057580436484812515  0.1608833523090567  1.0000
  C   C2        1.0  0.44828950710028437  0.5575883556513406  0.8391188442264692  1.0000
  C   C3        1.0  0.9482814991850006  0.9424182320303771  0.8391147975425782  1.0000
  C   C4        1.0  0.551718242097557  0.44241567904983736  0.16088500299486694  1.0000
  C   C5        1.0  0.19690941164117956  0.9454405511402941  0.20378422177393668  1.0000
  C   C6        1.0  0.3030855203236343  0.445448369040875  0.796215046071353  1.0000
  C   C7        1.0  0.8030862127300936  0.0545567758265193  0.7962143869410313  1.0000
  C   C8        1.0  0.6969114632936027  0.5545583487674366  0.20378719970820922  1.0000
  C   C9        1.0  0.2624446199507062  0.8301639349146586  0.12581577915209863  1.0000
  C   C10       1.0  0.23755184856820216  0.3301743418597383  0.874185546420108  1.0000
  C   C11       1.0  0.73755100781068  0.16983205050173208  0.8741836887862391  1.0000
  C   C12       1.0  0.7624478433899071  0.6698310343923027  0.125821395833114  1.0000
  C   C13       1.0  0.18150460626396384  0.8280390996970157  0.007300425961204802  1.0000
  C   C14       1.0  0.31848915731277566  0.32804378215082874  0.9926962057056273  1.0000
  C   C15       1.0  0.8184910147193492  0.1719568857212792  0.9926973235320063  1.0000
  C   C16       1.0  0.6815051179667933  0.6719602525653345  0.00730134360271248  1.0000
  C   C17       1.0  0.03299786074259  0.9414366291713137  0.9608541179225085  1.0000
  C   C18       1.0  0.466999765622475  0.44144324064554047  0.039144695892481686  1.0000
  C   C19       1.0  0.9669964179324494  0.05855935624705211  0.039144290613243975  1.0000
  C   C20       1.0  0.532997204439674  0.558562135617102  0.9608541129976444  1.0000
  O   O1        1.0  0.4484874458292439  0.10328386901404943  0.3767260621200421  1.0000
  O   O2        1.0  0.05151070696522451  0.6032873719357852  0.6232697228527043  1.0000
  O   O3        1.0  0.551510859768463  0.8967147995030446  0.6232703692864661  1.0000
  O   O4        1.0  0.9484902968030298  0.39671397967631356  0.3767288273573469  1.0000
  O   O5        1.0  0.163974797308633  0.9945343238991601  0.4300708806277527  1.0000
  O   O6        1.0  0.33603081506561244  0.4945358945726  0.5699282109752914  1.0000
  O   O7        1.0  0.8360288978574458  0.005463003062466501  0.5699280699447655  1.0000
  O   O8        1.0  0.6639742393507221  0.5054654570326279  0.43007437666506126  1.0000
  O   O9        1.0  0.39760618683816057  0.7662749557220964  0.38656824303788534  1.0000
  O   O10       1.0  0.1023944106375225  0.26627268430183193  0.6134311825086485  1.0000
  O   O11       1.0  0.6023934712327872  0.23372639589102562  0.6134301069921548  1.0000
  O   O12       1.0  0.8976065999109508  0.7337259842094142  0.3865690861481498  1.0000
  O   O13       1.0  0.2658500101248862  0.43011365218941233  0.3317048051857512  1.0000
  O   O14       1.0  0.234150325720897  0.9301141547471731  0.6682944226563095  1.0000
  O   O15       1.0  0.7341496547262807  0.5698850163228573  0.6682952632910215  1.0000
  O   O16       1.0  0.7658533796112226  0.06988451376107462  0.33170710558308514  1.0000
