data_image0
_chemical_formula_structural       Na2H34C36N20O20
_chemical_formula_sum              "Na2 H34 C36 N20 O20"
_cell_length_a       9.170857997841185
_cell_length_b       11.096600787385535
_cell_length_c       11.803140956936895
_cell_angle_alpha    73.76549500785741
_cell_angle_beta     80.2238511092327
_cell_angle_gamma    90.00722196532712

_space_group_name_H-M_alt    "P 1"
_space_group_IT_number       1

loop_
  _space_group_symop_operation_xyz
  'x, y, z'

loop_
  _atom_site_type_symbol
  _atom_site_label
  _atom_site_symmetry_multiplicity
  _atom_site_fract_x
  _atom_site_fract_y
  _atom_site_fract_z
  _atom_site_occupancy
  Na  Na1       1.0  0.9079310078754187  0.6085247857916941  0.914330071290813  1.0000
  Na  Na2       1.0  0.092069939581954  0.3914714299816638  0.08566822330031694  1.0000
  H   H1        1.0  0.09792659824032059  0.6732706981850782  0.05395172870970549  1.0000
  H   H2        1.0  0.9020723408908746  0.32672926438524297  0.9460467106650158  1.0000
  H   H3        1.0  0.010298764465332504  0.7929742817920272  0.056525741949968664  1.0000
  H   H4        1.0  0.9897023152299127  0.20702471475441095  0.9434769048971674  1.0000
  H   H5        1.0  0.7887574888992147  0.4282400782238015  0.7813102141240549  1.0000
  H   H6        1.0  0.21124832683077693  0.5717645621970605  0.21869121780965634  1.0000
  H   H7        1.0  0.6989099540261136  0.39840287410424213  0.9155486262498158  1.0000
  H   H8        1.0  0.30108798298744677  0.6015989650751051  0.0844494607992203  1.0000
  H   H9        1.0  0.5739847532967346  0.40142175570864674  0.12354342382754878  1.0000
  H   H10       1.0  0.42601421037983295  0.5985782453882181  0.8764499189373538  1.0000
  H   H11       1.0  0.8901504740223132  0.8721020465026469  0.4596915687334615  1.0000
  H   H12       1.0  0.10985180865309019  0.1278988196587676  0.5403121368375494  1.0000
  H   H13       1.0  0.04626723438217081  0.9101387662693771  0.5197661552309114  1.0000
  H   H14       1.0  0.9537340143689831  0.0898630688399749  0.48023319895749944  1.0000
  H   H15       1.0  0.725463009014092  0.7643522133782666  0.759251307519257  1.0000
  H   H16       1.0  0.274532392971622  0.23564396851151065  0.2407502549277254  1.0000
  H   H17       1.0  0.5448880486060688  0.6835223015509301  0.4814002374075272  1.0000
  H   H18       1.0  0.4551122184819149  0.31648144227290226  0.5185945172803414  1.0000
  H   H19       1.0  0.5002161840699912  0.5706483567418702  0.3346646625582038  1.0000
  H   H20       1.0  0.4997803522712231  0.4293487293119611  0.6653416044704699  1.0000
  H   H21       1.0  0.9729958985135951  0.5458982691788351  0.2463006968770073  1.0000
  H   H22       1.0  0.0270029483681355  0.4540998331216743  0.7536956904286783  1.0000
  H   H23       1.0  0.44996783689334297  0.09613858228181729  0.45284016429146595  1.0000
  H   H24       1.0  0.5500311504080385  0.9038623136339512  0.5471588764002888  1.0000
  H   H25       1.0  0.7022382235288871  0.18637481594416977  0.18210935354655794  1.0000
  H   H26       1.0  0.29776087238554527  0.8136279659257822  0.8178883414743511  1.0000
  H   H27       1.0  0.8254061937210648  0.20902320295235913  0.27682644252637095  1.0000
  H   H28       1.0  0.17459506321187487  0.7909786449991715  0.7231712127920956  1.0000
  H   H29       1.0  0.3386547820921562  0.9588596428141046  0.21880873090075434  1.0000
  H   H30       1.0  0.6613421887012548  0.04114498705645529  0.7811921534445362  1.0000
  H   H31       1.0  0.3177271397473404  0.8171208369252626  0.0909714980797034  1.0000
  H   H32       1.0  0.682272093416401  0.18288387584650684  0.9090189052255653  1.0000
  H   H33       1.0  0.7939783339312283  0.8176825797259966  0.02069920919607431  1.0000
  H   H34       1.0  0.20602745408304904  0.18232115945486527  0.9792973742457605  1.0000
  C   C1        1.0  0.7197196614685807  0.4856422848978497  0.18503207549905207  1.0000
  C   C2        1.0  0.28027807468245663  0.5143558080575019  0.8149653051517946  1.0000
  C   C3        1.0  0.973534640391051  0.8340376336335283  0.5143869088771994  1.0000
  C   C4        1.0  0.0264696669741085  0.16595951141528084  0.4856132541703317  1.0000
  C   C5        1.0  0.8990996597170449  0.7652205394565569  0.6414546513653933  1.0000
  C   C6        1.0  0.10090036559947889  0.23477939393237085  0.3585478912739859  1.0000
  C   C7        1.0  0.8899765062518412  0.6397984606417354  0.3809891979064588  1.0000
  C   C8        1.0  0.11002373312043548  0.3602043819421041  0.6190007082895336  1.0000
  C   C9        1.0  0.6379108777589977  0.6516740847463396  0.4281254393857452  1.0000
  C   C10       1.0  0.3620893370679069  0.348328719310949  0.5718695634200656  1.0000
  C   C11       1.0  0.612768495646982  0.5879414946793061  0.34599998949914823  1.0000
  C   C12       1.0  0.3872300131229167  0.4120509304953827  0.6540029831239877  1.0000
  C   C13       1.0  0.7350167193036227  0.5497394273790306  0.278687615060683  1.0000
  C   C14       1.0  0.26497952801649655  0.4502520586020821  0.721315044065804  1.0000
  C   C15       1.0  0.8766106947321787  0.5753642511438387  0.2968765648412415  1.0000
  C   C16       1.0  0.1233846231858564  0.4246300833183058  0.7031212466667682  1.0000
  C   C17       1.0  0.03676186782831078  0.6709785667660241  0.4008023165691342  1.0000
  C   C18       1.0  0.9632385078727239  0.329027063011985  0.5991910924478887  1.0000
  C   C19       1.0  0.5562751728159085  0.7255470346844602  0.9624475654621493  1.0000
  C   C20       1.0  0.4437258259819927  0.27445097714780076  0.0375612755477093  1.0000
  C   C21       1.0  0.7572653574599852  0.13868930912033048  0.25666873458258277  1.0000
  C   C22       1.0  0.24273368210246815  0.8613125265619885  0.7433300579912299  1.0000
  C   C23       1.0  0.6437873830700125  0.07551905298884522  0.36691469639556834  1.0000
  C   C24       1.0  0.3562093991335686  0.9244818499209874  0.6330829332466266  1.0000
  C   C25       1.0  0.6921014064160572  0.9225698988017895  0.14096127894335816  1.0000
  C   C26       1.0  0.3078982162548697  0.07742339843150602  0.8590506454363195  1.0000
  C   C27       1.0  0.43820440783929365  0.9247010267337218  0.17536702227514664  1.0000
  C   C28       1.0  0.5617914604052174  0.07530360663385952  0.8246331565453673  1.0000
  C   C29       1.0  0.4262609271850124  0.8451274764718801  0.10365821081069272  1.0000
  C   C30       1.0  0.5737393112667134  0.15487622240431884  0.8963424899219703  1.0000
  C   C31       1.0  0.5560585232142045  0.805685730094893  0.04668584167453828  1.0000
  C   C32       1.0  0.4439434172584739  0.19430945251961876  0.9533252986488847  1.0000
  C   C33       1.0  0.6917138908141708  0.8459037869796902  0.06530361277965108  1.0000
  C   C34       1.0  0.3082902270406009  0.15409048740075798  0.9347040901014482  1.0000
  C   C35       1.0  0.8327375470445585  0.9596442460449597  0.16715644978857816  1.0000
  C   C36       1.0  0.16726474381263046  0.040356632958634  0.8328455569124885  1.0000
  N   N1        1.0  0.7731719115301273  0.6775704124531573  0.4461005827395326  1.0000
  N   N2        1.0  0.2268287500216601  0.3224399546841283  0.553886489077982  1.0000
  N   N3        1.0  0.06829457881710252  0.753546844844259  0.4600108919903362  1.0000
  N   N4        1.0  0.9317078451985022  0.2464559586400625  0.5399846724300659  1.0000
  N   N5        1.0  0.2157678107077743  0.7552866237545287  0.46124414926502766  1.0000
  N   N6        1.0  0.7842354831876076  0.24471152234767157  0.5387474152250533  1.0000
  N   N7        1.0  0.27150705510555173  0.6771824409459128  0.40332225210195816  1.0000
  N   N8        1.0  0.7284929793133086  0.32281664899284124  0.596667797130813  1.0000
  N   N9        1.0  0.1644865077919277  0.6237908038903582  0.3639552932046044  1.0000
  N   N10       1.0  0.8355104116609622  0.3762120299212911  0.6360350447219503  1.0000
  N   N11       1.0  0.5678142707638186  0.9632523011190129  0.19443410125153804  1.0000
  N   N12       1.0  0.4321855650423102  0.0367447616015539  0.8055759812214234  1.0000
  N   N13       1.0  0.8564363358069966  0.049231400479023114  0.22067657371252383  1.0000
  N   N14       1.0  0.1435649570234432  0.9507713615546932  0.7793242312278893  1.0000
  N   N15       1.0  0.9999526206431995  0.049780005222174906  0.23410121569101966  1.0000
  N   N16       1.0  4.777868264940418e-05  0.9502265193747449  0.7658978912528555  1.0000
  N   N17       1.0  0.06171614074300889  0.9638053199919483  0.1888830897501208  1.0000
  N   N18       1.0  0.9382887374030984  0.036202156067759  0.8111151934350573  1.0000
  N   N19       1.0  0.9616131840883636  0.9064805699323275  0.14636301079363528  1.0000
  N   N20       1.0  0.038391533183620694  0.0935240804066524  0.8536368661803309  1.0000
  O   O1        1.0  0.036013334777472  0.7344962899972459  0.007182399850201168  1.0000
  O   O2        1.0  0.9639718779513016  0.2654960744043535  0.9928256974350873  1.0000
  O   O3        1.0  0.7922958416708922  0.43695207504178063  0.8619731973082096  1.0000
  O   O4        1.0  0.20770935101706559  0.5630412946016392  0.1380303626057895  1.0000
  O   O5        1.0  0.5817571226666586  0.4530578967858289  0.18504234041288473  1.0000
  O   O6        1.0  0.4182406175752718  0.546940202590612  0.8149541908029931  1.0000
  O   O7        1.0  0.8290481410002853  0.46784573541700075  0.11440962573792036  1.0000
  O   O8        1.0  0.17095548599547777  0.5321589376822901  0.8855869974063494  1.0000
  O   O9        1.0  0.7677803241923229  0.8064321247762012  0.6711164317679844  1.0000
  O   O10       1.0  0.2322140193237771  0.19356498753496254  0.3288858759062236  1.0000
  O   O11       1.0  0.9632373655618166  0.6844380997139509  0.707196241289438  1.0000
  O   O12       1.0  0.0367604987361929  0.3155627675933986  0.2928063410523833  1.0000
  O   O13       1.0  0.43158024607980383  0.6767281516342865  0.9586861396013403  1.0000
  O   O14       1.0  0.5684177463651778  0.3232754900250612  0.04132164443145568  1.0000
  O   O15       1.0  0.6790801569249324  0.7130091979365788  0.9004436403381462  1.0000
  O   O16       1.0  0.32092357055692117  0.28697845955151285  0.0995708959783386  1.0000
  O   O17       1.0  0.5277549122171478  0.1423222839653064  0.3790928139716954  1.0000
  O   O18       1.0  0.472246428783471  0.8576814114138571  0.6209085922857441  1.0000
  O   O19       1.0  0.6670935654895301  0.973896477977945  0.43731457193022294  1.0000
  O   O20       1.0  0.33290426700187226  0.0261034816683079  0.5626840113546905  1.0000
