data_image0
_chemical_formula_structural       Al6H64C84Br4O28
_chemical_formula_sum              "Al6 H64 C84 Br4 O28"
_cell_length_a       13.19349418291803
_cell_length_b       12.951866599288648
_cell_length_c       28.335534731321367
_cell_angle_alpha    89.95393888386674
_cell_angle_beta     89.78410979916565
_cell_angle_gamma    60.20863240827173

_space_group_name_H-M_alt    "P 1"
_space_group_IT_number       1

loop_
  _space_group_symop_operation_xyz
  'x, y, z'

loop_
  _atom_site_type_symbol
  _atom_site_label
  _atom_site_symmetry_multiplicity
  _atom_site_fract_x
  _atom_site_fract_y
  _atom_site_fract_z
  _atom_site_occupancy
  Al  Al1       1.0  0.4138840973361225  0.17810765704000178  0.4968658711110194  1.0000
  Al  Al2       1.0  0.41951712621433046  0.9270018818466068  0.4992883733875217  1.0000
  Al  Al3       1.0  0.6482700747723983  0.9239047219177936  0.50012395110803  1.0000
  Al  Al4       1.0  0.924741757473697  0.1555451773281717  0.9977223126489889  1.0000
  Al  Al5       1.0  0.6833538757520898  0.4039680749271142  0.0001502686585013  1.0000
  Al  Al6       1.0  0.9067726258232014  0.412524714358902  0.9995191535970633  1.0000
  H   H1        1.0  0.48158986554417277  0.7086708188043076  0.22332477169224058  1.0000
  H   H2        1.0  0.5867515415206129  0.5239437061058821  0.29115366746459864  1.0000
  H   H3        1.0  0.7682817713351463  0.7404739660566836  0.22159627279845034  1.0000
  H   H4        1.0  0.8740903667362971  0.5556618277104659  0.2894045703528859  1.0000
  H   H5        1.0  0.7966262558908069  0.42042112291759537  0.23788917230832138  1.0000
  H   H6        1.0  0.7863276672253933  0.9902929196171469  0.1963517631821077  1.0000
  H   H7        1.0  0.8235096578037183  0.9763049025123465  0.2784749685851153  1.0000
  H   H8        1.0  0.7163317424596725  0.2954506947169834  0.2998462269649096  1.0000
  H   H9        1.0  0.8417044055769694  0.1530853578066598  0.304745547331926  1.0000
  H   H10       1.0  0.864703692788609  0.1279553092712646  0.22215171504422673  1.0000
  H   H11       1.0  0.7711959856609524  0.2836813715836825  0.21970157010461827  1.0000
  H   H12       1.0  0.5036757583447694  0.18974377871090545  0.2794656216599236  1.0000
  H   H13       1.0  0.5109404472930167  0.3134898517671019  0.30144074345647454  1.0000
  H   H14       1.0  0.49405519561363326  0.2740736786992954  0.2051182430672469  1.0000
  H   H15       1.0  0.6880396811547198  0.980159420439236  0.28303523897371713  1.0000
  H   H16       1.0  0.6350946953235876  0.045058101653836495  0.2049606764507317  1.0000
  H   H17       1.0  0.5535775183943414  0.36147833656887934  0.2257636189094754  1.0000
  H   H18       1.0  0.19302402113648748  0.3227937095297548  0.21210672749718634  1.0000
  H   H19       1.0  0.24774866568101564  0.27833211617765835  0.29128815730143026  1.0000
  H   H20       1.0  0.985329144238051  0.2376034756244252  0.3031506016605192  1.0000
  H   H21       1.0  0.032077278286735025  0.3438313221656699  0.3011159744266081  1.0000
  H   H22       1.0  0.992057730152041  0.36416902980032256  0.21980577004154608  1.0000
  H   H23       1.0  0.9611942445334805  0.24635706794533965  0.2210639663855858  1.0000
  H   H24       1.0  0.27751786907855786  0.9715562941643296  0.2819641137914033  1.0000
  H   H25       1.0  0.1257037974865227  0.02527602940653399  0.28557585584256623  1.0000
  H   H26       1.0  0.2688717215059455  0.0034363383866776002  0.20051738038279857  1.0000
  H   H27       1.0  0.3464187566191086  0.12865923784701036  0.2771657036707396  1.0000
  H   H28       1.0  0.12304893128522561  0.03308954010941529  0.2025376043411811  1.0000
  H   H29       1.0  0.7671637559972878  0.743452212226849  0.7987447772621153  1.0000
  H   H30       1.0  0.7572722013038131  0.7681870211906985  0.7168395567058213  1.0000
  H   H31       1.0  0.7259694669560517  0.49956754573567963  0.6986603954190542  1.0000
  H   H32       1.0  0.8274203508105554  0.5508104371578426  0.6990802251300963  1.0000
  H   H33       1.0  0.8498875270595148  0.5256742473119544  0.7803538641640628  1.0000
  H   H34       1.0  0.758203926812456  0.46230250108559534  0.7795645006118265  1.0000
  H   H35       1.0  0.4607520431635593  0.7958925618200252  0.720631156462609  1.0000
  H   H36       1.0  0.5087511572400485  0.6454853220391142  0.7076963869271252  1.0000
  H   H37       1.0  0.4790677774781428  0.7491045624974007  0.8010813951442586  1.0000
  H   H38       1.0  0.6063353894978292  0.870898521513723  0.7224599479412744  1.0000
  H   H39       1.0  0.6144570750464597  0.8374298232344869  0.8039106772178144  1.0000
  H   H40       1.0  0.5380450131730042  0.5968991428939816  0.7880304589853324  1.0000
  H   H41       1.0  0.48837911880956847  0.2898475163276757  0.7946000631514991  1.0000
  H   H42       1.0  0.477751888499924  0.27574862661087  0.7123223293080014  1.0000
  H   H43       1.0  0.7851013613077312  0.21407987123879474  0.6974777024935149  1.0000
  H   H44       1.0  0.6370168797769014  0.32740319953096275  0.6957177449482755  1.0000
  H   H45       1.0  0.636095725029243  0.35444213487284054  0.7776492074308621  1.0000
  H   H46       1.0  0.7870849382666876  0.2501201497877119  0.7781645782561171  1.0000
  H   H47       1.0  0.7304921049169405  0.9621373474398991  0.7197550517782715  1.0000
  H   H48       1.0  0.8390327973391649  0.0013177464290023994  0.7096505127066877  1.0000
  H   H49       1.0  0.7413721759455139  0.9868184945020531  0.8006655748711751  1.0000
  H   H50       1.0  0.5139019799001261  0.1258066825916302  0.7190957488982122  1.0000
  H   H51       1.0  0.5333237238146893  0.13766346226138637  0.8009212167450812  1.0000
  H   H52       1.0  0.2074568084400781  0.0038961663023044995  0.7924716525980741  1.0000
  H   H53       1.0  0.27602835839145007  0.9734755820348507  0.7139838417265308  1.0000
  H   H54       1.0  0.9951103984749635  0.25572350048574316  0.6920301656751632  1.0000
  H   H55       1.0  0.05747769077662207  0.10340106461894999  0.7068516651932198  1.0000
  H   H56       1.0  0.9960330591085197  0.1693387432586633  0.7842408545436611  1.0000
  H   H57       1.0  0.969693584773779  0.31433422872662214  0.7713646464379024  1.0000
  H   H58       1.0  0.2832126008094277  0.2544379050877125  0.7075470719782118  1.0000
  H   H59       1.0  0.2739648371070516  0.25343925389795885  0.7897269911155007  1.0000
  H   H60       1.0  0.3611980987681846  0.0415790116031545  0.7244708389631427  1.0000
  H   H61       1.0  0.31842996401137214  0.0382092672497052  0.8050115097763565  1.0000
  H   H62       1.0  0.12769459939294575  0.3687674087841302  0.7853473692476455  1.0000
  H   H63       1.0  0.30402780347702657  0.37444794598458475  0.5237283300830313  1.0000
  H   H64       1.0  0.039484649367444904  0.9602469806302736  0.0248939574796339  1.0000
  C   C1        1.0  0.29004684974116657  0.0957236546228017  0.4308840172300492  1.0000
  C   C2        1.0  0.6053673232885186  0.7744277457851113  0.43795141352416767  1.0000
  C   C3        1.0  0.6251604516768978  0.0888900737964278  0.43328968005361185  1.0000
  C   C4        1.0  0.28357245776730616  0.09987552121877737  0.5640706392098949  1.0000
  C   C5        1.0  0.5995849338326664  0.7900576597074714  0.5668790516054044  1.0000
  C   C6        1.0  0.6125714229611745  0.0970456957213912  0.5661561217463599  1.0000
  C   C7        1.0  0.6274947173067673  0.5714621919424515  0.27538486782121646  1.0000
  C   C8        1.0  0.5688398818898789  0.6735621793119151  0.23820433166738297  1.0000
  C   C9        1.0  0.7042161191526262  0.5815914691854543  0.1158219425234819  1.0000
  C   C10       1.0  0.6375999292968683  0.7101038718498104  0.3940703261546048  1.0000
  C   C11       1.0  0.7437795174766038  0.514501572078956  0.2465053381562399  1.0000
  C   C12       1.0  0.6855553456127338  0.6167975015087632  0.2078916434000675  1.0000
  C   C13       1.0  0.7871226011198331  0.5890541420560922  0.2743995444773617  1.0000
  C   C14       1.0  0.6710765282158843  0.6456029186044887  0.3049488947454718  1.0000
  C   C15       1.0  0.7291158459409531  0.6913764212892914  0.23725628190408798  1.0000
  C   C16       1.0  0.61299189087444  0.7470671421584211  0.265924670427296  1.0000
  C   C17       1.0  0.6949846574528136  0.5990785525455351  0.1583406328284411  1.0000
  C   C18       1.0  0.6567575986020983  0.6731495424437668  0.3536048692192892  1.0000
  C   C19       1.0  0.729959951619719  0.0298177874559116  0.2702466391780476  1.0000
  C   C20       1.0  0.7582260872980412  0.20388992577198908  0.2861576454913575  1.0000
  C   C21       1.0  0.7775971509267307  0.20044306499897852  0.23222810880400857  1.0000
  C   C22       1.0  0.6993714546778875  0.21176551504028399  0.1142248034798783  1.0000
  C   C23       1.0  0.6791669360284729  0.14982163696051737  0.2971749708533906  1.0000
  C   C24       1.0  0.7096992912354595  0.0538054776488863  0.21687209348875305  1.0000
  C   C25       1.0  0.684205522038596  0.18207358285820155  0.20636889399830946  1.0000
  C   C26       1.0  0.5632977049307044  0.2720566887741497  0.22710427303902486  1.0000
  C   C27       1.0  0.5548141709195135  0.23567932247749473  0.2780971708451787  1.0000
  C   C28       1.0  0.6904600103770875  0.1989008489326594  0.15621758520178727  1.0000
  C   C29       1.0  0.6725041521896741  0.13057842995281277  0.3471378174221798  1.0000
  C   C30       1.0  0.6586473949666142  0.1132911587389742  0.3881959724264448  1.0000
  C   C31       1.0  0.2561907185409424  0.2002970474202783  0.2724890858364617  1.0000
  C   C32       1.0  0.04612337613015423  0.2600681224745358  0.2854936326965358  1.0000
  C   C33       1.0  0.025580083803113447  0.27203170113772757  0.2315566079735873  1.0000
  C   C34       1.0  0.0908325483546903  0.22385494520215593  0.11218188833959888  1.0000
  C   C35       1.0  0.1728992837923613  0.1612959326028331  0.29518972813128386  1.0000
  C   C36       1.0  0.22844085861767383  0.22816409947899532  0.2198537803735405  1.0000
  C   C37       1.0  0.14025133962586267  0.19028592740664857  0.203819334175634  1.0000
  C   C38       1.0  0.1836012031190393  0.05934731737399802  0.21744134999501338  1.0000
  C   C39       1.0  0.19196404047249163  0.04510296686567022  0.2715480950673523  1.0000
  C   C40       1.0  0.11623953597059261  0.20886777510625615  0.1537188515948742  1.0000
  C   C41       1.0  0.19931507872282592  0.1418544092190928  0.34515361530278443  1.0000
  C   C42       1.0  0.23222606276272018  0.1212390366546359  0.3858306608015951  1.0000
  C   C43       1.0  0.6746915398096506  0.779854741059047  0.7311284811890744  1.0000
  C   C44       1.0  0.7467092041878444  0.5631446137606844  0.7155819268556555  1.0000
  C   C45       1.0  0.7634930471220969  0.541345385767613  0.7694425264587325  1.0000
  C   C46       1.0  0.6963373238252827  0.6013463160862144  0.8892285504810715  1.0000
  C   C47       1.0  0.6461446065287645  0.6910898698983985  0.7058050317983913  1.0000
  C   C48       1.0  0.6827153820009925  0.7592919260475741  0.7851703000140089  1.0000
  C   C49       1.0  0.6685088562649925  0.6503458402476737  0.7970552084313951  1.0000
  C   C50       1.0  0.5467245823676093  0.6753221896875701  0.7802838998861148  1.0000
  C   C51       1.0  0.531678406779342  0.7046287395037538  0.7269074817283964  1.0000
  C   C52       1.0  0.6829872040106152  0.6251243767143037  0.8473408011783903  1.0000
  C   C53       1.0  0.6337577794970315  0.7160423124103443  0.6554864709449078  1.0000
  C   C54       1.0  0.6219679636765105  0.7408583815135118  0.6136885893137458  1.0000
  C   C55       1.0  0.5421613572404098  0.19032437274078967  0.7278014378919764  1.0000
  C   C56       1.0  0.6988672139806271  0.24443464547138657  0.7135240781797447  1.0000
  C   C57       1.0  0.7016554668347864  0.2636214445890488  0.7672162066462747  1.0000
  C   C58       1.0  0.6900949162230744  0.2113260380405535  0.886797457524956  1.0000
  C   C59       1.0  0.6623674860668913  0.14965872918654807  0.7041192441584414  1.0000
  C   C60       1.0  0.55152066327134  0.20054760940972474  0.7817309094686564  1.0000
  C   C61       1.0  0.6757772056525936  0.176173036041277  0.7951430829787256  1.0000
  C   C62       1.0  0.7613134551674107  0.04637503615429489  0.7801845186214535  1.0000
  C   C63       1.0  0.7542337687799616  0.0308195057998262  0.7266896379851389  1.0000
  C   C64       1.0  0.682231365177664  0.1939247194795684  0.8452415900402528  1.0000
  C   C65       1.0  0.6540747790975913  0.13356693074952364  0.6539829090724181  1.0000
  C   C66       1.0  0.6423720560669111  0.11879287433922062  0.6124768033807086  1.0000
  C   C67       1.0  0.2740509846820345  0.05169846799594778  0.7299004591801788  1.0000
  C   C68       1.0  0.05966402334302501  0.18532354827113545  0.7147771899106488  1.0000
  C   C69       1.0  0.033228563460134745  0.21934921573239313  0.7672920543260203  1.0000
  C   C70       1.0  0.09310208150841962  0.22662037810425062  0.8849420768647178  1.0000
  C   C71       1.0  0.1829369632779319  0.16375352964973897  0.7022875297433018  1.0000
  C   C72       1.0  0.2416387666288173  0.0629833635773451  0.7827787466692513  1.0000
  C   C73       1.0  0.14683313032326586  0.19293777463878564  0.7935565523126085  1.0000
  C   C74       1.0  0.1886785989228699  0.2772769206338594  0.7742613791934544  1.0000
  C   C75       1.0  0.19903166743402065  0.26757025620740643  0.7201287076396453  1.0000
  C   C76       1.0  0.12131895465982005  0.21112529550252657  0.8435840135046959  1.0000
  C   C77       1.0  0.2071670810264834  0.14409881869575966  0.6521721193206673  1.0000
  C   C78       1.0  0.233183305730428  0.12499977831949849  0.61067071549337  1.0000
  C   C79       1.0  0.7262688476174046  0.23119915337961314  0.0670613225938226  1.0000
  C   C80       1.0  0.7245521865939394  0.5409094529662326  0.0676218987655091  1.0000
  C   C81       1.0  0.04427799193793899  0.2447038317279605  0.0651562217662018  1.0000
  C   C82       1.0  0.717534362374799  0.23591502465522043  0.9330640943169185  1.0000
  C   C83       1.0  0.723267757170177  0.5512527559475586  0.93585154192003  1.0000
  C   C84       1.0  0.04045992984667623  0.24623386081994175  0.9310262070547921  1.0000
  Br  Br1       1.0  0.3718035631514097  0.1518338459416952  0.1804336091060748  1.0000
  Br  Br2       1.0  0.5194664440635037  0.91145786742004  0.2816551372391629  1.0000
  Br  Br3       1.0  0.9235108807890452  0.9953096606064304  0.7997129909728784  1.0000
  Br  Br4       1.0  0.0866973223002318  0.4197662514199081  0.6894080026144919  1.0000
  O   O1        1.0  0.5278402411052383  0.16614733150100136  0.44995583590955585  1.0000
  O   O2        1.0  0.32140450202331994  0.16788835335198368  0.4449699112631791  1.0000
  O   O3        1.0  0.30864536201149667  0.9994151936449424  0.451912153807406  1.0000
  O   O4        1.0  0.5034329513334439  0.8057246163761531  0.45417961332987733  1.0000
  O   O5        1.0  0.6783976419344809  0.8004102329158871  0.4560834754277465  1.0000
  O   O6        1.0  0.6958823143559199  0.987043955501065  0.4519825361228342  1.0000
  O   O7        1.0  0.5125932580395514  0.170807575494571  0.5509236681028965  1.0000
  O   O8        1.0  0.3065594580667224  0.17493577045469516  0.545982221775958  1.0000
  O   O9        1.0  0.3057554392290026  0.9995842623282627  0.5456286666250278  1.0000
  O   O10       1.0  0.503504278322822  0.8124712233411628  0.5474244221926696  1.0000
  O   O11       1.0  0.6755151308538457  0.8130170518141924  0.5490155907851673  1.0000
  O   O12       1.0  0.6889926652546733  0.0012033058711296016  0.5451350623635207  1.0000
  O   O13       1.0  0.4946265405283511  0.0075590318922778  0.4990477181550048  1.0000
  O   O14       1.0  0.027655860423792006  0.16560834415303555  0.0468653962408396  1.0000
  O   O15       1.0  0.8271375133715255  0.15952446203872478  0.05158668055400989  1.0000
  O   O16       1.0  0.6467618878009206  0.3231964860936429  0.045083169418632  1.0000
  O   O17       1.0  0.6504565237484455  0.5163991204637597  0.0493120328695511  1.0000
  O   O18       1.0  0.8175323581089271  0.5266297249787827  0.047549092817810404  1.0000
  O   O19       1.0  0.018673431837932145  0.34577320639710507  0.046487485694392205  1.0000
  O   O20       1.0  0.014433212664961611  0.17011582003250675  0.9453809609635115  1.0000
  O   O21       1.0  0.8144507613114057  0.160995187003536  0.9503323505984723  1.0000
  O   O22       1.0  0.6419005612942212  0.335972014205197  0.9517517264895545  1.0000
  O   O23       1.0  0.6504726978839342  0.5265195871676552  0.9554762043181312  1.0000
  O   O24       1.0  0.8213262907574829  0.5293293875814696  0.9534035334355337  1.0000
  O   O25       1.0  0.02039406249043906  0.34218025149179704  0.9528111970295043  1.0000
  O   O26       1.0  0.8372936060605766  0.32633009657579487  0.9993124843781515  1.0000
  O   O27       1.0  0.3404088998029025  0.3337360771288047  0.4946365009038728  1.0000
  O   O28       1.0  0.004389535620255498  3.0412104358399997e-05  0.9956009313107117  1.0000
