data_image0
_chemical_formula_structural       Ag2H26C18S2N6O6
_chemical_formula_sum              "Ag2 H26 C18 S2 N6 O6"
_cell_length_a       5.322396748212207
_cell_length_b       10.511557310362752
_cell_length_c       10.981373627194351
_cell_angle_alpha    70.3772833850626
_cell_angle_beta     83.32290285510932
_cell_angle_gamma    86.84422746758493

_space_group_name_H-M_alt    "P 1"
_space_group_IT_number       1

loop_
  _space_group_symop_operation_xyz
  'x, y, z'

loop_
  _atom_site_type_symbol
  _atom_site_label
  _atom_site_symmetry_multiplicity
  _atom_site_fract_x
  _atom_site_fract_y
  _atom_site_fract_z
  _atom_site_occupancy
  Ag  Ag1       1.0  0.6946718363187401  0.5937813402108957  0.518176579528294  1.0000
  Ag  Ag2       1.0  0.30534176547012487  0.4062267577348565  0.4818261769165557  1.0000
  H   H1        1.0  0.4735446833814761  0.890551035253374  0.7471170783504204  1.0000
  H   H2        1.0  0.5264372352681406  0.10944493202600819  0.25288925792912653  1.0000
  H   H3        1.0  0.8851271774104177  0.5101655097227108  0.8064094533607287  1.0000
  H   H4        1.0  0.11486765530165849  0.4898365112849845  0.1935979714061559  1.0000
  H   H5        1.0  0.9801120018129055  0.3429998177726361  0.8117165996491167  1.0000
  H   H6        1.0  0.019896741811805885  0.6570002575336957  0.18827255221506775  1.0000
  H   H7        1.0  0.694765326135247  0.2434785188456415  0.009493437810604579  1.0000
  H   H8        1.0  0.30524909427781927  0.7565134476078866  0.9905062146549636  1.0000
  H   H9        1.0  0.8804947727608691  0.363876146742399  0.03518189782701595  1.0000
  H   H10       1.0  0.11953727551046704  0.6361077844845511  0.9648094352005355  1.0000
  H   H11       1.0  0.4420287147023742  0.37842724363692065  0.12485151612241199  1.0000
  H   H12       1.0  0.5580080931713525  0.6215667270910785  0.875153695320378  1.0000
  H   H13       1.0  0.3272647359122444  0.4021055163335561  0.9742915790005708  1.0000
  H   H14       1.0  0.6727507802709313  0.5978894032292104  0.02572802789114799  1.0000
  H   H15       1.0  0.2669009849311195  0.12100602930392768  0.47297243966470137  1.0000
  H   H16       1.0  0.7330676146827529  0.879002090415305  0.5270206597974507  1.0000
  H   H17       1.0  0.1612370758238271  0.9691224701424518  0.5993102148249174  1.0000
  H   H18       1.0  0.83871979588816  0.030882559160225802  0.40069901066829056  1.0000
  H   H19       1.0  0.010853530621020005  0.1289396559203198  0.5877294904497032  1.0000
  H   H20       1.0  0.9891409216316233  0.8710744900630731  0.4122731842066044  1.0000
  H   H21       1.0  0.7773767567149079  0.9143898926823368  0.008874108623587064  1.0000
  H   H22       1.0  0.22263418626312861  0.08560109237775042  0.9911178285152997  1.0000
  H   H23       1.0  0.7900940041619079  0.8163212428551246  0.9023161799443142  1.0000
  H   H24       1.0  0.20991135241824568  0.18367786126029273  0.09766251668543897  1.0000
  H   H25       1.0  0.023873984770915516  0.9382760590323043  0.881896542488171  1.0000
  H   H26       1.0  0.9761407670738858  0.06171594483049601  0.11809306364897758  1.0000
  C   C1        1.0  0.3707055241399003  0.10044019527781241  0.6603198984696446  1.0000
  C   C2        1.0  0.6292838590374927  0.8995659042602637  0.3396755647240964  1.0000
  C   C3        1.0  0.5008857661167737  0.9936272922221646  0.7441408990224115  1.0000
  C   C4        1.0  0.4990954176584949  0.006393941941524901  0.25585379069683256  1.0000
  C   C5        1.0  0.668647263090314  0.022846159249084497  0.8194893946803175  1.0000
  C   C6        1.0  0.3313702542983563  0.9771589135735895  0.18051322300136252  1.0000
  C   C7        1.0  0.5667548178318284  0.24691699818116314  0.7334174859581069  1.0000
  C   C8        1.0  0.43324212128811707  0.7530840340352398  0.26658468639598  1.0000
  C   C9        1.0  0.8237201176003953  0.405142279309743  0.8368623859446412  1.0000
  C   C10       1.0  0.17627172384481332  0.5948578011859098  0.16312394369079183  1.0000
  C   C11       1.0  0.7266740078141041  0.3523973194410813  0.9807957567892415  1.0000
  C   C12       1.0  0.27330164778656757  0.647602634545933  0.01922327708692955  1.0000
  C   C13       1.0  0.4877991289638856  0.42354792471761743  0.019148950024344847  1.0000
  C   C14       1.0  0.5122137488366646  0.5764248142990808  0.9808660027443278  1.0000
  C   C15       1.0  0.19204521143333148  0.07719214050977291  0.5756270831261289  1.0000
  C   C16       1.0  0.8079265055843549  0.9228240179182023  0.42437514673505194  1.0000
  C   C17       1.0  0.8216703664887675  0.9158933206848087  0.9081414583019551  1.0000
  C   C18       1.0  0.1783216557373848  0.08410678021589751  0.09183939151797915  1.0000
  S   S1        1.0  0.5815370115155715  0.4152379548445637  0.7300237334389832  1.0000
  S   S2        1.0  0.4184617025805153  0.5847620511712891  0.26998323283073217  1.0000
  N   N1        1.0  0.4071322605577521  0.2291115692296302  0.653774321056012  1.0000
  N   N2        1.0  0.5928666767063574  0.7708854199958779  0.346229951205366  1.0000
  N   N3        1.0  0.6988494139376371  0.1514177249572484  0.8145717260392898  1.0000
  N   N4        1.0  0.30114620471351117  0.8485762728148672  0.1854227304556486  1.0000
  N   N5        1.0  0.1534563849710224  0.6978041832691843  0.6413904701649142  1.0000
  N   N6        1.0  0.8465479992728006  0.3021968390834359  0.3586149860743645  1.0000
  O   O1        1.0  0.3747074791148961  0.7309125070749403  0.6490414615563648  1.0000
  O   O2        1.0  0.6253084175277053  0.2690702875121361  0.35098289544591665  1.0000
  O   O3        1.0  0.12304064546201227  0.6338889423314954  0.5624709063231419  1.0000
  O   O4        1.0  0.8769733904059859  0.3661161626298153  0.4375227629952717  1.0000
  O   O5        1.0  0.9653638045233988  0.7264192393114115  0.7087175366167597  1.0000
  O   O6        1.0  0.03462729898613049  0.2735919118177463  0.2912762355757009  1.0000
