data_image0
_chemical_formula_structural       Al2H24C48Cl6O12
_chemical_formula_sum              "Al2 H24 C48 Cl6 O12"
_cell_length_a       4.0556132155028815
_cell_length_b       28.677478972210444
_cell_length_c       28.67712872409699
_cell_angle_alpha    119.99959987781844
_cell_angle_beta     89.9982152255971
_cell_angle_gamma    90.00095196192612

_space_group_name_H-M_alt    "P 1"
_space_group_IT_number       1

loop_
  _space_group_symop_operation_xyz
  'x, y, z'

loop_
  _atom_site_type_symbol
  _atom_site_label
  _atom_site_symmetry_multiplicity
  _atom_site_fract_x
  _atom_site_fract_y
  _atom_site_fract_z
  _atom_site_occupancy
  Al  Al1       1.0  0.984341003651231  0.5000005168303617  0.500000332694576  1.0000
  Al  Al2       1.0  0.9843618047428249  0.1666659376374966  0.833332592581641  1.0000
  H   H1        1.0  0.16374428013652678  0.19281619817969897  0.7053419466870067  1.0000
  H   H2        1.0  0.18031700932046138  0.247244076131814  0.6605587200999493  1.0000
  H   H3        1.0  0.8209454950977955  0.36134652971413306  0.7859740566075714  1.0000
  H   H4        1.0  0.8126847834185181  0.304829893282843  0.8289056528947113  1.0000
  H   H5        1.0  0.8209682601597874  0.30533000275456595  0.5473696911453203  1.0000
  H   H6        1.0  0.18033304382920076  0.4194332595938448  0.6727903601330851  1.0000
  H   H7        1.0  0.16371473851119583  0.4738511690051013  0.6279976431855231  1.0000
  H   H8        1.0  0.8126790705947967  0.3618361223691764  0.5044284209660431  1.0000
  H   H9        1.0  0.1637597247783233  0.012522941122348709  0.8071847471370505  1.0000
  H   H10       1.0  0.18033813091960127  0.9133122942436316  0.7527580021237625  1.0000
  H   H11       1.0  0.8209843075794365  0.9246297774027706  0.6386545634125864  1.0000
  H   H12       1.0  0.8127077613412793  0.024076819121880505  0.6951686938632591  1.0000
  H   H13       1.0  0.8209873548630141  0.7420431292963343  0.6946688356409254  1.0000
  H   H14       1.0  0.18033284380584994  0.753355581170716  0.580566102871586  1.0000
  H   H15       1.0  0.1637560069401616  0.6541450483689175  0.526140969317872  1.0000
  H   H16       1.0  0.8127152712590656  0.6425963507832505  0.6381568306074425  1.0000
  H   H17       1.0  0.16375147800708592  0.29465786425598856  0.9874762850251881  1.0000
  H   H18       1.0  0.1803355876797141  0.3394426324853725  0.08668762524013832  1.0000
  H   H19       1.0  0.8209453824729636  0.21402280475740554  0.07537025062503491  1.0000
  H   H20       1.0  0.8126832053291008  0.1710899067094331  0.9759222023543116  1.0000
  H   H21       1.0  0.8210108030374312  0.4526325840511021  0.2579516470215353  1.0000
  H   H22       1.0  0.18036182685657556  0.3272194875534922  0.24664553289701988  1.0000
  H   H23       1.0  0.1637667186151575  0.37200888837986673  0.34585624766971534  1.0000
  H   H24       1.0  0.8127472240948705  0.4955717125919605  0.3574002271683909  1.0000
  C   C1        1.0  0.48484507966879414  0.463074298563491  0.41765782096332765  1.0000
  C   C2        1.0  0.4848217244575677  0.4545876310262429  0.5369284572183658  1.0000
  C   C3        1.0  0.4848281975612565  0.5823422565554993  0.5454103000346892  1.0000
  C   C4        1.0  0.4848459723756448  0.2120773233875255  0.7964052436966326  1.0000
  C   C5        1.0  0.4848493625761704  0.08432801127701597  0.7879222718309862  1.0000
  C   C6        1.0  0.4848448091180088  0.20359312569131302  0.9156727125845092  1.0000
  C   C7        1.0  0.4910397585755461  0.24498038146468573  0.769545210256446  1.0000
  C   C8        1.0  0.3140522946618062  0.22911374603827286  0.7219773743501037  1.0000
  C   C9        1.0  0.32529802329862884  0.25975225383133715  0.6967995904211719  1.0000
  C   C10       1.0  0.5103332898659472  0.30779307533855155  0.7189894923811123  1.0000
  C   C11       1.0  0.6785131049496157  0.3241978536622554  0.7677864525607773  1.0000
  C   C12       1.0  0.6734810333426607  0.2928396412736163  0.7921531090688418  1.0000
  C   C13       1.0  0.5217666209083731  0.34140462280980444  0.6934846069890311  1.0000
  C   C14       1.0  0.5218257771730207  0.3252765127137636  0.6398683280186716  1.0000
  C   C15       1.0  0.6785510011762097  0.34247758823358515  0.5655596720591305  1.0000
  C   C16       1.0  0.5103994335453875  0.35888502732784394  0.6143588511946163  1.0000
  C   C17       1.0  0.32533530456220205  0.4069248716258756  0.6365470083657244  1.0000
  C   C18       1.0  0.31405176440298277  0.43755848073136866  0.6113671956177029  1.0000
  C   C19       1.0  0.4910354327924295  0.42168870476281484  0.5637933995539726  1.0000
  C   C20       1.0  0.6734760936212467  0.37383247434882344  0.5411872963399773  1.0000
  C   C21       1.0  0.49105816716203776  0.02456451063022774  0.7550210330491252  1.0000
  C   C22       1.0  0.3140788597214692  0.9928613198557629  0.7708866952437462  1.0000
  C   C23       1.0  0.32532757445983407  0.9370442191213117  0.7402487768115122  1.0000
  C   C24       1.0  0.5103760804714951  0.911195152011537  0.692209938068416  1.0000
  C   C25       1.0  0.6785565314872953  0.9435897303072381  0.6758053624588811  1.0000
  C   C26       1.0  0.6735065491715132  0.9993138571407272  0.7071604350881343  1.0000
  C   C27       1.0  0.5218073917146241  0.852079645276973  0.6585965161165815  1.0000
  C   C28       1.0  0.521823188839221  0.8145922206799128  0.6747235812492036  1.0000
  C   C29       1.0  0.6785605506397018  0.7230831463856833  0.6575186554593132  1.0000
  C   C30       1.0  0.5103898932398678  0.7554751943759188  0.641113121010015  1.0000
  C   C31       1.0  0.32535872941843275  0.7296231512683915  0.5930717465949654  1.0000
  C   C32       1.0  0.3141028324411224  0.67380918650192  0.5624370154195759  1.0000
  C   C33       1.0  0.49108360008093405  0.6421056939888531  0.57830460206592  1.0000
  C   C34       1.0  0.6735010876816431  0.6673565236125613  0.6261619152095433  1.0000
  C   C35       1.0  0.49105099476144426  0.23045386498074547  0.9754350444508972  1.0000
  C   C36       1.0  0.3140664722756766  0.27802273179197806  0.007138561430544119  1.0000
  C   C37       1.0  0.3253203161677476  0.3032014756681605  0.0629547405079549  1.0000
  C   C38       1.0  0.5103659113938902  0.2810127707060488  0.08880505956487639  1.0000
  C   C39       1.0  0.6785261436300869  0.2322136146119078  0.0564121289284358  1.0000
  C   C40       1.0  0.6734834815590529  0.2078451247183821  0.0006846375296661167  1.0000
  C   C41       1.0  0.5218166721916049  0.306519056042994  0.14791957500089842  1.0000
  C   C42       1.0  0.5218329510087685  0.3601360684162529  0.1854038238341289  1.0000
  C   C43       1.0  0.6785803928096569  0.43444378247195914  0.2769132311808277  1.0000
  C   C44       1.0  0.5104043105922004  0.3856454752273635  0.24452433147567376  1.0000
  C   C45       1.0  0.32536530441768013  0.36345893139621677  0.27037604407575344  1.0000
  C   C46       1.0  0.3141120712870701  0.3886396322018086  0.32619101012302554  1.0000
  C   C47       1.0  0.49108584038086167  0.43620871821554624  0.35789263292384277  1.0000
  C   C48       1.0  0.6735358013466025  0.4588164307183362  0.3326400720774387  1.0000
  Cl  Cl1       1.0  0.5618976032535414  0.4101143359340895  0.7396158779792897  1.0000
  Cl  Cl2       1.0  0.5621709103652889  0.25656643045375205  0.5937421417506457  1.0000
  Cl  Cl3       1.0  0.5619456061817373  0.8295008508587285  0.5898856022182952  1.0000
  Cl  Cl4       1.0  0.5621216391253796  0.8371730763066053  0.7434343598680256  1.0000
  Cl  Cl5       1.0  0.5620101459522856  0.26039332664593934  0.1705049381689747  1.0000
  Cl  Cl6       1.0  0.5620983332492668  0.40626210104831273  0.16281938593715486  1.0000
  O   O1        1.0  0.7179102493794005  0.5569132866370055  0.5530531087208743  1.0000
  O   O2        1.0  0.7179409084350892  0.4961421605292813  0.44308825332489477  1.0000
  O   O3        1.0  0.7179191071497968  0.4469508364662787  0.5038593446937938  1.0000
  O   O4        1.0  0.24798600014140243  0.5605403471143761  0.511990126551673  1.0000
  O   O5        1.0  0.2479679520930133  0.48800872955516883  0.5485505957090807  1.0000
  O   O6        1.0  0.24799991818466077  0.4514516265661612  0.4394580181170581  1.0000
  O   O7        1.0  0.7179472836258894  0.17052445359148305  0.8902428240611185  1.0000
  O   O8        1.0  0.7179567562679094  0.21971592503297188  0.8294722827555389  1.0000
  O   O9        1.0  0.7179606823739917  0.10975621055131775  0.7802820597621504  1.0000
  O   O10       1.0  0.24801560919907212  0.21521640571066308  0.8938721891642273  1.0000
  O   O11       1.0  0.2480196637024008  0.106128702365588  0.8213467351412618  1.0000
  O   O12       1.0  0.24801798600839212  0.17865078256319591  0.7847811578006301  1.0000
