data_image0
_chemical_formula_structural       Zn4H12C6N36
_chemical_formula_sum              "Zn4 H12 C6 N36"
_cell_length_a       9.3056558540974
_cell_length_b       9.305657088643407
_cell_length_c       9.305650408256213
_cell_angle_alpha    67.7166260257287
_cell_angle_beta     67.71659457389502
_cell_angle_gamma    67.71662366259831

_space_group_name_H-M_alt    "P 1"
_space_group_IT_number       1

loop_
  _space_group_symop_operation_xyz
  'x, y, z'

loop_
  _atom_site_type_symbol
  _atom_site_label
  _atom_site_symmetry_multiplicity
  _atom_site_fract_x
  _atom_site_fract_y
  _atom_site_fract_z
  _atom_site_occupancy
  Zn  Zn1       1.0  0.3977714762729787  0.3977720104135258  0.3977718905433535  1.0000
  Zn  Zn2       1.0  0.10222465503097311  0.1022242534184628  0.10222468687636879  1.0000
  Zn  Zn3       1.0  0.6022224454672696  0.6022229350734705  0.602222940269314  1.0000
  Zn  Zn4       1.0  0.8977692667092682  0.8977706920685337  0.897770143936299  1.0000
  H   H1        1.0  0.8488903324543456  0.9782154513890052  0.4213721038046143  1.0000
  H   H2        1.0  0.4213714300126482  0.8488887198787795  0.9782144977782252  1.0000
  H   H3        1.0  0.9782148564221772  0.42137230319107016  0.848889116364326  1.0000
  H   H4        1.0  0.07863221514899972  0.5217887038151263  0.6511140715148754  1.0000
  H   H5        1.0  0.5217885384476516  0.6511130176894611  0.0786307615779832  1.0000
  H   H6        1.0  0.6511143748208922  0.07863192807720762  0.5217893037801814  1.0000
  H   H7        1.0  0.1511140443293115  0.021787960785467003  0.5786338115724163  1.0000
  H   H8        1.0  0.5786314521798843  0.15111589893646743  0.02178937769136979  1.0000
  H   H9        1.0  0.02178802577035545  0.5786323156241765  0.1511147591052762  1.0000
  H   H10       1.0  0.9213706675122565  0.4782159154692352  0.34889087821478876  1.0000
  H   H11       1.0  0.4782155045345318  0.34889160097107225  0.9213715986234519  1.0000
  H   H12       1.0  0.34888917309968537  0.9213702758894373  0.47821738500033456  1.0000
  C   C1        1.0  0.7499998466538428  0.20618635037718042  0.2938129660997505  1.0000
  C   C2        1.0  0.2938132492648151  0.749998879379561  0.20618731590505485  1.0000
  C   C3        1.0  0.20618627672055112  0.29381268697287777  0.7500005543662168  1.0000
  C   C4        1.0  0.24999739475725133  0.7938134321632121  0.706188439439586  1.0000
  C   C5        1.0  0.7061866470583381  0.24999969589622856  0.7938135400134739  1.0000
  C   C6        1.0  0.7938132867385758  0.7061870957272092  0.24999889489684807  1.0000
  N   N1        1.0  0.6292719524528608  0.34577616868227073  0.278710379412331  1.0000
  N   N2        1.0  0.2787101422485492  0.6292711020147408  0.3457760539735304  1.0000
  N   N3        1.0  0.34577577410991717  0.2787101693247962  0.6292711162638299  1.0000
  N   N4        1.0  0.22129113067236975  0.1542240752919071  0.8707265845944292  1.0000
  N   N5        1.0  0.15422401711030176  0.8707266541774815  0.2212908595021048  1.0000
  N   N6        1.0  0.8707270535465735  0.22129128780800045  0.1542237255333846  1.0000
  N   N7        1.0  0.37072446056387776  0.6542224061194162  0.7212928737905601  1.0000
  N   N8        1.0  0.7212912472595505  0.370726265212916  0.6542236190722264  1.0000
  N   N9        1.0  0.654223123621179  0.7212920282238927  0.37072551968832096  1.0000
  N   N10       1.0  0.7787092611811203  0.8457769151468855  0.1292710170050811  1.0000
  N   N11       1.0  0.8457762116081398  0.12927071320488892  0.7787103288118189  1.0000
  N   N12       1.0  0.12926952354265345  0.7787109109883518  0.8457780894752318  1.0000
  N   N13       1.0  0.7500009306421446  0.07758059931197893  0.42242015598658617  1.0000
  N   N14       1.0  0.42242116081681064  0.7500000897093387  0.07757947990727843  1.0000
  N   N15       1.0  0.07757976823823748  0.42242085280090447  0.7499999545267572  1.0000
  N   N16       1.0  0.2500006248133459  0.9224203937868298  0.5775823759051731  1.0000
  N   N17       1.0  0.577580061774661  0.2500021108137672  0.9224216453290169  1.0000
  N   N18       1.0  0.9224214543532339  0.5775813477222016  0.2500011707095381  1.0000
  N   N19       1.0  0.6789471294541299  0.4440700246394941  0.12861571723002632  1.0000
  N   N20       1.0  0.128615778881553  0.6789459133994243  0.4440706489697348  1.0000
  N   N21       1.0  0.4440704555058801  0.12861686875695  0.6789469155078366  1.0000
  N   N22       1.0  0.3713862649262935  0.05593143053810932  0.8210503337660455  1.0000
  N   N23       1.0  0.05593154013769919  0.8210494239848672  0.3713868633853323  1.0000
  N   N24       1.0  0.8210508927626563  0.3713870059099378  0.05593024878925948  1.0000
  N   N25       1.0  0.321048951167313  0.5559297580556047  0.8713872035774771  1.0000
  N   N26       1.0  0.8713874371442499  0.3210490388249171  0.5559303221187762  1.0000
  N   N27       1.0  0.5559301004201059  0.8713877456765149  0.3210492478973991  1.0000
  N   N28       1.0  0.6286149553215524  0.9440707676393956  0.1789454201699102  1.0000
  N   N29       1.0  0.9440705150984455  0.17894552839418756  0.6286156229713457  1.0000
  N   N30       1.0  0.178946845584953  0.6286151932008153  0.9440711252112662  1.0000
  N   N31       1.0  0.24999698738319157  0.24999571448473995  0.24999692936261655  1.0000
  N   N32       1.0  0.7500020782019803  0.750001650706736  0.7500004029191273  1.0000
  N   N33       1.0  0.3047824366334737  0.3047827180455016  0.3047827772544879  1.0000
  N   N34       1.0  0.19521601812468967  0.19521354735353924  0.1952150666691708  1.0000
  N   N35       1.0  0.6952066760007654  0.6952086021891831  0.6952152557848451  1.0000
  N   N36       1.0  0.8047828782320252  0.8047801886829477  0.8047718869460782  1.0000
