data_image0
_chemical_formula_structural       Cu2Ag2H22C24N4O10
_chemical_formula_sum              "Cu2 Ag2 H22 C24 N4 O10"
_cell_length_a       7.331534470929096
_cell_length_b       8.519562818373707
_cell_length_c       10.780616617284457
_cell_angle_alpha    98.66163437796945
_cell_angle_beta     101.52877448988448
_cell_angle_gamma    107.77768128972453

_space_group_name_H-M_alt    "P 1"
_space_group_IT_number       1

loop_
  _space_group_symop_operation_xyz
  'x, y, z'

loop_
  _atom_site_type_symbol
  _atom_site_label
  _atom_site_symmetry_multiplicity
  _atom_site_fract_x
  _atom_site_fract_y
  _atom_site_fract_z
  _atom_site_occupancy
  Cu  Cu1       1.0  0.24994002303009216  0.5347576920199232  0.9960761028319424  1.0000
  Cu  Cu2       1.0  0.7500635367342382  0.46524393276194326  0.003919715113781291  1.0000
  Ag  Ag1       1.0  0.33101911704394393  0.8461273082595397  0.8174774683200638  1.0000
  Ag  Ag2       1.0  0.6689890041463187  0.15387561599249008  0.18252935086896832  1.0000
  H   H1        1.0  0.20216552063471482  0.09808072148757668  0.0008313561742739066  1.0000
  H   H2        1.0  0.7978333144412062  0.9019196515551045  0.999166429671213  1.0000
  H   H3        1.0  0.047384021132408805  0.16046094073649186  0.0929762738361859  1.0000
  H   H4        1.0  0.9526153408024244  0.8395406945036183  0.9070208038002504  1.0000
  H   H5        1.0  0.9011401648172209  0.07758429745327788  0.8189720440932219  1.0000
  H   H6        1.0  0.09885684767949955  0.9224186296854524  0.1810313409104012  1.0000
  H   H7        1.0  0.6948752072200718  0.6099430651677054  0.2480205750043538  1.0000
  H   H8        1.0  0.3051209935612746  0.390050996887858  0.7519807518863217  1.0000
  H   H9        1.0  0.5203999335786804  0.647886778809834  0.3297838889995717  1.0000
  H   H10       1.0  0.4795936732731363  0.3521110734775306  0.6702147202199881  1.0000
  H   H11       1.0  0.7060242288150533  0.050482581355375096  0.6227109664187863  1.0000
  H   H12       1.0  0.29397136885636155  0.9495203538152381  0.37729407363822537  1.0000
  H   H13       1.0  0.5747427144179865  0.16486607037857937  0.43745087980684627  1.0000
  H   H14       1.0  0.4252603559612071  0.8351381243329357  0.562555366815161  1.0000
  H   H15       1.0  0.6895383730140026  0.4706352866739465  0.4508614162074025  1.0000
  H   H16       1.0  0.31046643582418915  0.5293625354518811  0.5491332162586602  1.0000
  H   H17       1.0  0.9655509983556244  0.915916392113523  0.5926907510146862  1.0000
  H   H18       1.0  0.0344425968345803  0.08408146358319608  0.4073087845722299  1.0000
  H   H19       1.0  0.7242887562925446  0.75304469410694  0.5531879397424646  1.0000
  H   H20       1.0  0.27570763356345657  0.24695315575407045  0.4468110648397571  1.0000
  H   H21       1.0  0.9055216445097046  0.732517447990432  0.4661319526103042  1.0000
  H   H22       1.0  0.09447662872248944  0.26748167308289794  0.5338693205463017  1.0000
  C   C1        1.0  0.34705240051263786  0.3260805314512892  0.15168866004184875  1.0000
  C   C2        1.0  0.652950431656521  0.6739160467370623  0.8483111147887287  1.0000
  C   C3        1.0  0.9068293819716402  0.2948958249421238  0.7380432570953912  1.0000
  C   C4        1.0  0.09316801495576506  0.7051045629511562  0.2619580365381964  1.0000
  C   C5        1.0  0.16633213039862943  0.20646005204244486  0.044848843998615  1.0000
  C   C6        1.0  0.8336648096394939  0.7935390531972787  0.9551475996398437  1.0000
  C   C7        1.0  0.9721694667642425  0.2159660489772293  0.8388213372076264  1.0000
  C   C8        1.0  0.02783038704469493  0.7840368586883742  0.1611778113218563  1.0000
  C   C9        1.0  0.8945795858235641  0.5344486421463869  0.6405368561479462  1.0000
  C   C10       1.0  0.10542027964697809  0.4655542621098616  0.3594613660141803  1.0000
  C   C11       1.0  0.9800375469085341  0.4732448253226237  0.7461294999990357  1.0000
  C   C12       1.0  0.019963401884432058  0.5267504816534154  0.2538680062571643  1.0000
  C   C13       1.0  0.5493478553165972  0.6264777848147105  0.2333049754124517  1.0000
  C   C14       1.0  0.4506492038265506  0.37352512868659465  0.7666947041217255  1.0000
  C   C15       1.0  0.7592994621746526  0.18568857186721735  0.6259853988198499  1.0000
  C   C16       1.0  0.24070067111051696  0.8143118272371339  0.3740199956458595  1.0000
  C   C17       1.0  0.6851716185111556  0.24851968832231103  0.5243085288445997  1.0000
  C   C18       1.0  0.3148233798427498  0.7514781627518798  0.475690278056291  1.0000
  C   C19       1.0  0.7522259498590743  0.4240959773085036  0.5317979803874735  1.0000
  C   C20       1.0  0.24778071903210025  0.575903122848345  0.4682007733877001  1.0000
  C   C21       1.0  0.8830645408347451  0.7798740285287521  0.5603851008519385  1.0000
  C   C22       1.0  0.1169318256980461  0.22012382815097445  0.4396157564650096  1.0000
  C   C23       1.0  0.5620042742457089  0.7854267805732817  0.18154169319191743  1.0000
  C   C24       1.0  0.43799682863708966  0.21457232443627555  0.8184562698579113  1.0000
  N   N1        1.0  0.10420819827460553  0.294566809344559  0.9477843151742533  1.0000
  N   N2        1.0  0.8957925551623234  0.7054348246823707  0.052212960143528206  1.0000
  N   N3        1.0  0.3926946396287718  0.48568450724897616  0.1430595010667375  1.0000
  N   N4        1.0  0.6073031417293179  0.5143133413988606  0.8569397011968221  1.0000
  O   O1        1.0  0.9656305910766322  0.7063918894234432  0.6586051070911977  1.0000
  O   O2        1.0  0.034370104052271734  0.29360976165026637  0.3413968000633858  1.0000
  O   O3        1.0  0.43532924738890716  0.7730043622534807  0.07499658308715601  1.0000
  O   O4        1.0  0.5646745193930585  0.2269909320681407  0.9249985394296303  1.0000
  O   O5        1.0  0.11922171372172848  0.5861093141401453  0.844580922794094  1.0000
  O   O6        1.0  0.8807776015666845  0.41389233473739034  0.15541986031179525  1.0000
  O   O7        1.0  0.43382187526371035  0.2688722624021623  0.2388549397213922  1.0000
  O   O8        1.0  0.5661787007601689  0.731125580409966  0.7611437315374728  1.0000
  O   O9        1.0  0.6954005966459748  0.9223393148024641  0.24584194633163756  1.0000
  O   O10       1.0  0.30459628508412356  0.0776598074840393  0.7541591291436375  1.0000
