data_image0
_chemical_formula_structural       Cu5H36C20S2I6N8
_chemical_formula_sum              "Cu5 H36 C20 S2 I6 N8"
_cell_length_a       8.0648241561679
_cell_length_b       9.874312889646255
_cell_length_c       12.956701106167428
_cell_angle_alpha    98.76769344332678
_cell_angle_beta     104.10496049387946
_cell_angle_gamma    112.10048473642436

_space_group_name_H-M_alt    "P 1"
_space_group_IT_number       1

loop_
  _space_group_symop_operation_xyz
  'x, y, z'

loop_
  _atom_site_type_symbol
  _atom_site_label
  _atom_site_symmetry_multiplicity
  _atom_site_fract_x
  _atom_site_fract_y
  _atom_site_fract_z
  _atom_site_occupancy
  Cu  Cu1       1.0  0.9999990756575698  0.49999946388959415  0.5000018433261815  1.0000
  Cu  Cu2       1.0  0.5889799179995164  0.5506252156483598  0.39761867180529714  1.0000
  Cu  Cu3       1.0  0.41104793471834006  0.44937420383691057  0.6023832849774351  1.0000
  Cu  Cu4       1.0  0.5418705136032217  0.5905218167441362  0.09353737175702996  1.0000
  Cu  Cu5       1.0  0.45813761163555716  0.40948186019426197  0.9064545903634311  1.0000
  H   H1        1.0  0.32186232536432174  0.8500866734294094  0.5802123841179778  1.0000
  H   H2        1.0  0.6781155920378767  0.14991228822341182  0.4197878902813628  1.0000
  H   H3        1.0  0.10679759349521581  0.8609069308139963  0.5772167437439677  1.0000
  H   H4        1.0  0.89318491051106  0.1391056329304021  0.4227857827913937  1.0000
  H   H5        1.0  0.14621337626682157  0.019435667024680497  0.4535189954069239  1.0000
  H   H6        1.0  0.8537901008506597  0.9805781931264903  0.5464812340784063  1.0000
  H   H7        1.0  0.3700821633614382  0.0202636134712151  0.4654845467209796  1.0000
  H   H8        1.0  0.6299099300173412  0.9797332187415505  0.5345159285992054  1.0000
  H   H9        1.0  0.026843480082057048  0.9748994765347373  0.2673167754985854  1.0000
  H   H10       1.0  0.9731548945167248  0.025107497694186496  0.7326749748475051  1.0000
  H   H11       1.0  0.9586979464441542  0.7967605622843904  0.1780530506642819  1.0000
  H   H12       1.0  0.04130079864242481  0.20324194105864277  0.8219436274693733  1.0000
  H   H13       1.0  0.18958733500034694  0.9975894160814816  0.12408911354098953  1.0000
  H   H14       1.0  0.8104109983511947  0.0024074347929712  0.8759068391207591  1.0000
  H   H15       1.0  0.30567055442987384  0.8882930032130503  0.178674155785302  1.0000
  H   H16       1.0  0.6943227179272214  0.1117038156752272  0.8213233962277754  1.0000
  H   H17       1.0  0.35332251206403237  0.0697342525286757  0.2599313607201879  1.0000
  H   H18       1.0  0.6466802466241006  0.930263766196255  0.7400645810880419  1.0000
  H   H19       1.0  0.18134253403211886  0.5566468489609518  0.201845149921148  1.0000
  H   H20       1.0  0.8186609168176703  0.44336373521148426  0.7981685839183115  1.0000
  H   H21       1.0  0.06177089133164753  0.6503067195911425  0.12722797839536773  1.0000
  H   H22       1.0  0.9382284493036792  0.3496890872635205  0.8727772560977555  1.0000
  H   H23       1.0  0.7969113949005476  0.4164722761762008  0.01692319780681829  1.0000
  H   H24       1.0  0.20310135332996285  0.5835225043010865  0.9830799438445438  1.0000
  H   H25       1.0  0.9627011475547108  0.336264985261117  0.05560983957281002  1.0000
  H   H26       1.0  0.03732233405410319  0.6637378422247053  0.9443996235092342  1.0000
  H   H27       1.0  0.5827671809293804  0.14444475827375672  0.03470191464457882  1.0000
  H   H28       1.0  0.417238094983624  0.8555532731640981  0.9652928392619345  1.0000
  H   H29       1.0  0.5684598188307817  0.15335177336480393  0.169381063203808  1.0000
  H   H30       1.0  0.43153937523958064  0.846641716042903  0.8306169295320344  1.0000
  H   H31       1.0  0.6803651046075814  0.9561438413272467  0.11406032487528249  1.0000
  H   H32       1.0  0.31965645390997116  0.0438509836452994  0.8859386591200931  1.0000
  H   H33       1.0  0.8599056160717639  0.10764390635286249  0.22727528610954553  1.0000
  H   H34       1.0  0.14011048669509332  0.8923644764198501  0.7727314780807717  1.0000
  H   H35       1.0  0.8756445370843337  0.0944553198683025  0.09189612066496979  1.0000
  H   H36       1.0  0.1243685983357281  0.9055575013964157  0.908104574283243  1.0000
  C   C1        1.0  0.18814969699858625  0.8396687467073819  0.5250310297316716  1.0000
  C   C2        1.0  0.8118318254075091  0.1603370354683378  0.4749713296889907  1.0000
  C   C3        1.0  0.21990442613928005  0.9459210357459894  0.44877724186855517  1.0000
  C   C4        1.0  0.7800853759367004  0.054081390300176196  0.5512197116606572  1.0000
  C   C5        1.0  0.07999617826080656  0.8919075004205083  0.24202225551062634  1.0000
  C   C6        1.0  0.9199981680338852  0.10809384163236757  0.7579752099286381  1.0000
  C   C7        1.0  0.24194270326844966  0.9653426312238124  0.1985657196323274  1.0000
  C   C8        1.0  0.7580537750607944  0.0346530776337488  0.8014306088853971  1.0000
  C   C9        1.0  0.05557398833892069  0.6962865723267837  0.34853478534512305  1.0000
  C   C10       1.0  0.9444003379008025  0.3037078534485005  0.6514667635297472  1.0000
  C   C11       1.0  0.04327524243041136  0.5574051551428667  0.16609528884654878  1.0000
  C   C12       1.0  0.956731413253401  0.4425997562684784  0.833911278955938  1.0000
  C   C13       1.0  0.8959869285124641  0.4045819139048561  0.08696803699390193  1.0000
  C   C14       1.0  0.1040263110871963  0.5954185387219583  0.9130381594856161  1.0000
  C   C15       1.0  0.8254125122011117  0.4334709927060274  0.24990351405675426  1.0000
  C   C16       1.0  0.17458615239021927  0.566523658807249  0.7500991729852373  1.0000
  C   C17       1.0  0.6668961972933972  0.17212975668000746  0.1221103678397526  1.0000
  C   C18       1.0  0.33310589919216244  0.8278693913488838  0.8778863860142039  1.0000
  C   C19       1.0  0.7774187894231658  0.07738096037952859  0.13956439430076978  1.0000
  C   C20       1.0  0.22260067744596762  0.9226217889940144  0.86043986256508  1.0000
  S   S1        1.0  0.7118899148614092  0.3899071928815373  0.34275126285353247  1.0000
  S   S2        1.0  0.28810722367116887  0.6100749917928852  0.6572466493414382  1.0000
  I   I1        1.0  0.24883810465518513  0.3511607855212445  0.3842083243708885  1.0000
  I   I2        1.0  0.7511682463335493  0.6488463318116048  0.6157922855034315  1.0000
  I   I3        1.0  0.6012290968608413  0.748377985485362  0.28430186337805446  1.0000
  I   I4        1.0  0.39876164329183433  0.25161197331424023  0.7156875744982543  1.0000
  I   I5        1.0  0.3008811596992161  0.31042709247696376  0.046117100338413805  1.0000
  I   I6        1.0  0.6991252421026745  0.689570912515755  0.953873177356833  1.0000
  N   N1        1.0  0.0815597800530057  0.6841822510466854  0.44995275745422697  1.0000
  N   N2        1.0  0.9184187210557652  0.3158201243516031  0.5500503180847572  1.0000
  N   N3        1.0  0.13576058145329037  0.8391707690128952  0.33806098948729607  1.0000
  N   N4        1.0  0.8642181828263135  0.1608225465278323  0.6619379654892796  1.0000
  N   N5        1.0  0.9596636020427881  0.573601360805803  0.2547885145012998  1.0000
  N   N6        1.0  0.040323959820568696  0.42639427731521096  0.7452088658640718  1.0000
  N   N7        1.0  0.7918656900905177  0.33354335590559003  0.1564492143478233  1.0000
  N   N8        1.0  0.20813879003526384  0.6664479398858345  0.8435508076085938  1.0000
