data_image0
_chemical_formula_structural       Cd4H32C48N8O16
_chemical_formula_sum              "Cd4 H32 C48 N8 O16"
_cell_length_a       9.906615723502926
_cell_length_b       10.610298679
_cell_length_c       12.4198
_cell_angle_alpha    90.0
_cell_angle_beta     112.46185797187353
_cell_angle_gamma    90.0

_space_group_name_H-M_alt    "P 1"
_space_group_IT_number       1

loop_
  _space_group_symop_operation_xyz
  'x, y, z'

loop_
  _atom_site_type_symbol
  _atom_site_label
  _atom_site_symmetry_multiplicity
  _atom_site_fract_x
  _atom_site_fract_y
  _atom_site_fract_z
  _atom_site_occupancy
  Cd  Cd1       1.0  0.82198209881048  0.8944856584277121  0.9420276922274198  1.0000
  Cd  Cd2       1.0  0.1780166751983145  0.39448842361848346  0.5579698407134046  1.0000
  Cd  Cd3       1.0  0.1780166751983145  0.1055116386323576  0.0579722562112366  1.0000
  Cd  Cd4       1.0  0.82198209881048  0.6055126433637313  0.4420293025593054  1.0000
  H   H1        1.0  0.2415827461488647  0.5567562402076263  0.3640140469656856  1.0000
  H   H2        1.0  0.7584247662149011  0.05675429299571281  0.13598292837424716  1.0000
  H   H3        1.0  0.7584193047430432  0.4432429418135158  0.6359836794577731  1.0000
  H   H4        1.0  0.2415772846770068  0.943241119103277  0.8640131877173259  1.0000
  H   H5        1.0  0.3970664807571183  0.7362997250456544  0.345531990686773  1.0000
  H   H6        1.0  0.6029475853728813  0.23630154775589324  0.15446939744816046  1.0000
  H   H7        1.0  0.60293884701791  0.2636985144949477  0.6544691498831058  1.0000
  H   H8        1.0  0.3970588346965158  0.763696691784709  0.845530465672688  1.0000
  H   H9        1.0  0.5759853911063075  0.8341895235727891  0.5275702514757867  1.0000
  H   H10       1.0  0.4240210289630895  0.3341922887635604  0.9724328323088471  1.0000
  H   H11       1.0  0.42401884437434495  0.1658058885262008  0.47243136137717556  1.0000
  H   H12       1.0  0.5759821142231943  0.6658068932575816  0.027566837329366906  1.0000
  H   H13       1.0  0.4346643453191703  0.5662328820102758  0.7242215080508884  1.0000
  H   H14       1.0  0.5653344286896242  0.06623187727890212  0.7757760248899287  1.0000
  H   H15       1.0  0.5653333363952555  0.43376535753032647  0.2757764971730126  1.0000
  H   H16       1.0  0.4346676222022907  0.9337673047422399  0.22422170153352988  1.0000
  H   H17       1.0  0.1293363919428288  0.8130063310162187  0.6346856439595783  1.0000
  H   H18       1.0  0.8706580128884838  0.3130081537264502  0.8653113626157422  1.0000
  H   H19       1.0  0.8706623820659729  0.1869947359660031  0.3653151096450173  1.0000
  H   H20       1.0  0.1293363919428288  0.6869938557363042  0.1346872542914639  1.0000
  H   H21       1.0  0.2526662571366671  0.9976165912228226  0.5830490663237171  1.0000
  H   H22       1.0  0.7473292399890141  0.4976165289719817  0.9169498834663514  1.0000
  H   H23       1.0  0.7473325168721275  0.002384475759392  0.416952492446825  1.0000
  H   H24       1.0  0.2526662571366671  0.5023835955296931  0.0830506766556098  1.0000
  H   H25       1.0  0.19343550254667724  0.0452861898177304  0.37073899345248407  1.0000
  H   H26       1.0  0.8065578099902595  0.5452843671074916  0.12926009573780567  1.0000
  H   H27       1.0  0.8065556254015149  0.9547214745282491  0.6292634558018051  1.0000
  H   H28       1.0  0.1934398717241663  0.4547166998747231  0.8707411301498807  1.0000
  H   H29       1.0  0.9129898812567064  0.7211380406419537  0.2864780715080855  1.0000
  H   H30       1.0  0.0870088927520953  0.22114174831326494  0.2135194614327318  1.0000
  H   H31       1.0  0.0870088927520953  0.27886585378187334  0.7135226820965102  1.0000
  H   H32       1.0  0.9129898812567064  0.7788602611494897  0.7864796818399782  1.0000
  C   C1        1.0  0.3207052735385929  0.6027332682592075  0.440548216812239  1.0000
  C   C2        1.0  0.67930223882518  0.10273414848890641  0.059449563693640135  1.0000
  C   C3        1.0  0.6792978696476908  0.397264028800862  0.5594522579919143  1.0000
  C   C4        1.0  0.32070199665547966  0.8972622060906232  0.9405480233295975  1.0000
  C   C5        1.0  0.4068217617891534  0.7020980488272244  0.4307711875923133  1.0000
  C   C6        1.0  0.5931879351633569  0.2021008140179958  0.0692288690111837  1.0000
  C   C7        1.0  0.5931813813971303  0.2978983057523052  0.5692276768799545  1.0000
  C   C8        1.0  0.4068163003172955  0.7978983680031392  0.9307703283439466  1.0000
  C   C9        1.0  0.5064269932336032  0.7565508043508304  0.5318667124347556  1.0000
  C   C10       1.0  0.4935827037189071  0.2565497996194566  0.9681317338368487  1.0000
  C   C11       1.0  0.4935816114245383  0.243447435189772  0.46813462161776437  1.0000
  C   C12       1.0  0.5064204394673766  0.7434465549600731  0.03186471513758699  1.0000
  C   C13       1.0  0.5181746191992929  0.7085069164809354  0.6399566020682953  1.0000
  C   C14       1.0  0.48183398545884876  0.20850779671062725  0.8600495629798957  1.0000
  C   C15       1.0  0.4818296162813667  0.29149038057913407  0.3600450107846669  1.0000
  C   C16       1.0  0.5181713423161725  0.7914913853105149  0.1399531879218756  1.0000
  C   C17       1.0  0.4283858372716836  0.6077868489002611  0.6420394940028585  1.0000
  C   C18       1.0  0.5716129367371181  0.10779055657157241  0.8579572337720195  1.0000
  C   C19       1.0  0.5716107521483735  0.3922085631987358  0.35795898350413313  1.0000
  C   C20       1.0  0.4283869295660523  0.8922095679301095  0.1420374113878822  1.0000
  C   C21       1.0  0.1102878703979044  0.8345693432293261  0.5440184246612317  1.0000
  C   C22       1.0  0.8897098113165215  0.33456833849794526  0.9559828012264475  1.0000
  C   C23       1.0  0.8897098113165215  0.1654336087139683  0.4559860218902331  1.0000
  C   C24       1.0  0.11028677810353571  0.6654317860037295  0.04401728661242291  1.0000
  C   C25       1.0  0.1782296726007644  0.9371753143651562  0.5150847858832321  1.0000
  C   C26       1.0  0.8217636399361794  0.43717619459485496  0.9849126929751648  1.0000
  C   C27       1.0  0.8217669168192927  0.062828580058671  0.4849185226194237  1.0000
  C   C28       1.0  0.1782307648951331  0.5628258148678995  0.015087534263926701  1.0000
  C   C29       1.0  0.144795634182934  0.9648682199929227  0.3975427989633431  1.0000
  C   C30       1.0  0.8552020475314919  0.46486533030046934  0.10245681659245073  1.0000
  C   C31       1.0  0.8551998629427473  0.0351413293141292  0.6024585663245574  1.0000
  C   C32       1.0  0.1447967264773098  0.5351347942012055  0.89754152151432  1.0000
  C   C33       1.0  0.04480591511971001  0.887123000470247  0.3139213649134263  1.0000
  C   C34       1.0  0.9551895820059711  0.3871285931026307  0.18607839004258855  1.0000
  C   C35       1.0  0.9551873974172267  0.1128827789146527  0.6860785294428098  1.0000
  C   C36       1.0  0.0448091920028233  0.6128753013211963  0.8139239738938997  1.0000
  C   C37       1.0  0.9881080574804386  0.7835792611997974  0.3515461561374309  1.0000
  C   C38       1.0  0.011893993411469201  0.2835782564684166  0.1484523754519742  1.0000
  C   C39       1.0  0.0118896242339872  0.2164236907434969  0.6484542645843021  1.0000
  C   C40       1.0  0.9881058728917012  0.716422810513798  0.8515471007035983  1.0000
  C   C41       1.0  0.9827208616401109  0.9087086322162536  0.18531557611163416  1.0000
  C   C42       1.0  0.0172800969574283  0.4087132823680975  0.3146826225949084  1.0000
  C   C43       1.0  0.017276820074315  0.0912905498048886  0.8146856497760452  1.0000
  C   C44       1.0  0.9827197693457351  0.5912906120557295  0.6853168535606641  1.0000
  C   C45       1.0  0.6230392480426019  0.7638719931646494  0.7516156496882616  1.0000
  C   C46       1.0  0.3769595259661926  0.2638747583554206  0.7483842987503948  1.0000
  C   C47       1.0  0.3769606182605685  0.2361253038954132  0.2483838264673111  1.0000
  C   C48       1.0  0.6230414326313465  0.7361272511073267  0.25161551028804047  1.0000
  N   N1        1.0  0.33067682885619126  0.5567449304411768  0.5443310777893373  1.0000
  N   N2        1.0  0.6693274066244683  0.056743925709803  0.9556665092339002  1.0000
  N   N3        1.0  0.6693252220357239  0.4432542515799582  0.45566745380006773  1.0000
  N   N4        1.0  0.3306746442674466  0.9432524288697266  0.04433202235550479  1.0000
  N   N5        1.0  0.0175094787754517  0.7573745323404354  0.463381330392032  1.0000
  N   N6        1.0  0.9824849260558608  0.2573782400117466  0.03661487101733483  1.0000
  N   N7        1.0  0.9824882029389741  0.24262747712231206  0.536619090329701  1.0000
  N   N8        1.0  0.017512755658565  0.7426247119315406  0.9633855497043982  1.0000
  O   O1        1.0  0.6742525619456431  0.8734890770175241  0.7456391120609425  1.0000
  O   O2        1.0  0.3257483966518961  0.373489957247223  0.7543615021434321  1.0000
  O   O3        1.0  0.3257473043575203  0.1265063350814657  0.2543627795924621  1.0000
  O   O4        1.0  0.6742514696512742  0.6265073398128395  0.24563797401214058  1.0000
  O   O5        1.0  0.8692369379111398  0.8429027561402195  0.12865547649249015  1.0000
  O   O6        1.0  0.1307694821582572  0.3429111762142157  0.3713427762964727  1.0000
  O   O7        1.0  0.1307662052751439  0.15709454091985012  0.8713449983116703  1.0000
  O   O8        1.0  0.8692314764392819  0.6570908332485388  0.6286570327419625  1.0000
  O   O9        1.0  0.6557217879328263  0.7025551518878217  0.845697160196856  1.0000
  O   O10       1.0  0.3442726168984862  0.202554147156448  0.6543006515444104  1.0000
  O   O11       1.0  0.3442748014872308  0.2974402602111681  0.1543029276420214  1.0000
  O   O12       1.0  0.6557283416990529  0.797445034864694  0.3456951316643  1.0000
  O   O13       1.0  0.036559092614744805  0.9894122981455453  0.138177451471293  1.0000
  O   O14       1.0  0.9634353122165678  0.4894075234920195  0.36182036026996656  1.0000
  O   O15       1.0  0.9634342199221991  0.0105944237199012  0.8618208325530504  1.0000
  O   O16       1.0  0.0365678309697159  0.5105963709318146  0.6381817248660795  1.0000
