data_image0
_chemical_formula_structural       U2H12Pb2C28N4O20
_chemical_formula_sum              "U2 H12 Pb2 C28 N4 O20"
_cell_length_a       8.832263540137783
_cell_length_b       10.700613784275355
_cell_length_c       10.699389820640414
_cell_angle_alpha    97.98582649762248
_cell_angle_beta     107.49043870748346
_cell_angle_gamma    107.48744420050691

_space_group_name_H-M_alt    "P 1"
_space_group_IT_number       1

loop_
  _space_group_symop_operation_xyz
  'x, y, z'

loop_
  _atom_site_type_symbol
  _atom_site_label
  _atom_site_symmetry_multiplicity
  _atom_site_fract_x
  _atom_site_fract_y
  _atom_site_fract_z
  _atom_site_occupancy
  U   U1        1.0  0.9999231113425396  0.49997152976376924  0.9999470964326492  1.0000
  U   U2        1.0  0.49997080420491374  3.1536086389399904e-05  0.5000328983269995  1.0000
  H   H1        1.0  0.7173242115845541  0.659501286515422  0.1781005706991365  1.0000
  H   H2        1.0  0.782644198685901  0.8219049122265574  0.34048852837300103  1.0000
  H   H3        1.0  0.28262117848399276  0.3404882740067379  0.8218857405561694  1.0000
  H   H4        1.0  0.21737935417998241  0.17810204084581474  0.6595801582394857  1.0000
  H   H5        1.0  0.4720661261578912  0.2506345774246769  0.19916147241084306  1.0000
  H   H6        1.0  0.027948230054484265  0.8008423858423798  0.749367564161645  1.0000
  H   H7        1.0  0.5279546874363491  0.7493124517240234  0.8007776750989848  1.0000
  H   H8        1.0  0.9721058002063145  0.19923948565883626  0.2507180540292993  1.0000
  H   H9        1.0  0.7417712130062314  0.4407177064112631  0.22476876258804177  1.0000
  H   H10       1.0  0.7582786498900236  0.7752416067641336  0.5593170845046488  1.0000
  H   H11       1.0  0.2582299562546524  0.5592799454652635  0.7751968656227107  1.0000
  H   H12       1.0  0.2417777114012694  0.22479574222387555  0.4407648111921106  1.0000
  Pb  Pb1       1.0  0.7504713292399644  0.0634116913121687  0.936829105432409  1.0000
  Pb  Pb2       1.0  0.25027120861451385  0.9367817975917276  0.0632038333922865  1.0000
  C   C1        1.0  0.3159367332190542  0.36639902704170885  0.13696422136583664  1.0000
  C   C2        1.0  0.18406857031199317  0.8630245922021872  0.6335875393720017  1.0000
  C   C3        1.0  0.6840660346860332  0.6335317929113842  0.8629691799946216  1.0000
  C   C4        1.0  0.8159765379405644  0.13701678156390779  0.36648560469328123  1.0000
  C   C5        1.0  0.6069290923516775  0.5752387858054605  0.17226841672484028  1.0000
  C   C6        1.0  0.8930724995449142  0.8277448134795904  0.42475503066327047  1.0000
  C   C7        1.0  0.3930174730522752  0.42474568127631346  0.8276978508159945  1.0000
  C   C8        1.0  0.10697180116437013  0.17228440053913374  0.5753078194284669  1.0000
  C   C9        1.0  0.47097046154340216  0.3477286704499748  0.18102312604576556  1.0000
  C   C10       1.0  0.029067014580782233  0.8189734650387591  0.6522758692333426  1.0000
  C   C11       1.0  0.5290344649820895  0.6522173351258687  0.8189147779531752  1.0000
  C   C12       1.0  0.9709882858548159  0.1810851217641485  0.34780122926395063  1.0000
  C   C13       1.0  0.6189959809803796  0.45329552415881835  0.19674306958376775  1.0000
  C   C14       1.0  0.8810083705377213  0.8032586568177537  0.546695483114185  1.0000
  C   C15       1.0  0.38099187241130755  0.5466859151924552  0.8032133016116846  1.0000
  C   C16       1.0  0.11903888306765963  0.19677966831874025  0.45336935449651616  1.0000
  C   C17       1.0  0.14980030217501653  0.25692727150122613  0.10881052496872463  1.0000
  C   C18       1.0  0.3502240713825557  0.8911163941397291  0.7430562869942109  1.0000
  C   C19       1.0  0.8502197332953687  0.7429974300472962  0.8910898234060343  1.0000
  C   C20       1.0  0.6498336502849755  0.10885106851873161  0.2569826193301523  1.0000
  C   C21       1.0  0.4473703266281675  0.5875848814808081  0.1356331826066183  1.0000
  C   C22       1.0  0.052606602074739404  0.8644133506460536  0.412395994450897  1.0000
  C   C23       1.0  0.5525562311546041  0.41237122865242526  0.8643242397784974  1.0000
  C   C24       1.0  0.9474509788263319  0.1356634298840333  0.5876701643150994  1.0000
  C   C25       1.0  0.42166301715752774  0.7164595410530555  0.11632519837930752  1.0000
  C   C26       1.0  0.07823589981983774  0.88372331084031  0.2834815055544909  1.0000
  C   C27       1.0  0.5781110580438594  0.28346106954644057  0.8836346846710301  1.0000
  C   C28       1.0  0.9218115133333173  0.11639391294461632  0.7165727993520505  1.0000
  N   N1        1.0  0.30376724215158657  0.48416633369242135  0.11514893947881435  1.0000
  N   N2        1.0  0.1962289753560499  0.884880530378709  0.5158283387655305  1.0000
  N   N3        1.0  0.6961858983004064  0.5157543558496515  0.88479422464588  1.0000
  N   N4        1.0  0.803810731439633  0.11518815861790438  0.48424539034149927  1.0000
  O   O1        1.0  0.018677599491802335  0.2921490554820069  0.06805694581256465  1.0000
  O   O2        1.0  0.481360983598478  0.931992629886466  0.7079028548303301  1.0000
  O   O3        1.0  0.981372807052864  0.7078395131422185  0.9319045750248309  1.0000
  O   O4        1.0  0.5186792811060174  0.06809320935373361  0.29214254310274174  1.0000
  O   O5        1.0  0.26151787980816016  0.7042124159503373  0.0750675326468127  1.0000
  O   O6        1.0  0.23837808812959344  0.9249536091675381  0.29569067260909077  1.0000
  O   O7        1.0  0.7382568982358964  0.2956597065367675  0.924935345064256  1.0000
  O   O8        1.0  0.7616680702069161  0.07514026791908891  0.704320836310423  1.0000
  O   O9        1.0  0.9773437626805405  0.5536098079087993  0.15889111780806084  1.0000
  O   O10       1.0  0.5224992860432992  0.8410857242160077  0.4463603484448982  1.0000
  O   O11       1.0  0.02241187839715764  0.446263070838569  0.8409735067563703  1.0000
  O   O12       1.0  0.47747845750766527  0.1589900388311776  0.5537299701088615  1.0000
  O   O13       1.0  0.1400612055770978  0.14208379535569554  0.12601754526682643  1.0000
  O   O14       1.0  0.35984827346404563  0.8736958305972563  0.8578276174048657  1.0000
  O   O15       1.0  0.859882113169313  0.8578032585459425  0.8737886322442635  1.0000
  O   O16       1.0  0.6401677902646911  0.12606002521190626  0.14214090438409252  1.0000
  O   O17       1.0  0.5419949018549705  0.8234180607702232  0.1395398326889606  1.0000
  O   O18       1.0  0.9578163751219012  0.8605075492352442  0.17656810023679995  1.0000
  O   O19       1.0  0.4576585722978949  0.1765742537471482  0.860387245254927  1.0000
  O   O20       1.0  0.042179019915124606  0.1396461730660121  0.8235466988251261  1.0000
