data_image0
_chemical_formula_structural       K4H28C28N8O20
_chemical_formula_sum              "K4 H28 C28 N8 O20"
_cell_length_a       7.422952349023243
_cell_length_b       11.111897023477297
_cell_length_c       11.71523553050172
_cell_angle_alpha    109.83850138198979
_cell_angle_beta     90.00008156463134
_cell_angle_gamma    89.99971433817014

_space_group_name_H-M_alt    "P 1"
_space_group_IT_number       1

loop_
  _space_group_symop_operation_xyz
  'x, y, z'

loop_
  _atom_site_type_symbol
  _atom_site_label
  _atom_site_symmetry_multiplicity
  _atom_site_fract_x
  _atom_site_fract_y
  _atom_site_fract_z
  _atom_site_occupancy
  K   K1        1.0  0.9702293995255503  0.5462869895231606  0.20514807111052857  1.0000
  K   K2        1.0  0.4702320232017527  0.45371452913268934  0.29485428553310566  1.0000
  K   K3        1.0  0.0297676759052479  0.4537108698629665  0.7948522927979838  1.0000
  K   K4        1.0  0.5297650522161703  0.5462871571112728  0.7051473087407772  1.0000
  H   H1        1.0  0.7050608873327987  0.27521958436219757  0.1179242060902155  1.0000
  H   H2        1.0  0.20506303423552913  0.7247809230125172  0.3820758776346624  1.0000
  H   H3        1.0  0.2949361880970542  0.7247782746117083  0.882075304096361  1.0000
  H   H4        1.0  0.7949367355271806  0.2752207628146337  0.6179248629170218  1.0000
  H   H5        1.0  0.6197700517267465  0.16548400052862178  0.9828182012116998  1.0000
  H   H6        1.0  0.11977056774715318  0.8345156329742239  0.5171811449159095  1.0000
  H   H7        1.0  0.38022971804144134  0.8345157714573901  0.017181070435363214  1.0000
  H   H8        1.0  0.8802305491916372  0.1654850961361731  0.48281928804431135  1.0000
  H   H9        1.0  0.6865518885830254  0.9334586966136553  0.9365791678178044  1.0000
  H   H10       1.0  0.18655149048082362  0.06653975317806979  0.5634207119217508  1.0000
  H   H11       1.0  0.313447881182313  0.0665410741356709  0.0634175426634442  1.0000
  H   H12       1.0  0.8134496264630896  0.9334600200423251  0.436581120891006  1.0000
  H   H13       1.0  0.0325771472339014  0.8287375055551465  0.18308590858693213  1.0000
  H   H14       1.0  0.5325762182095276  0.1712607202724925  0.3169158458633561  1.0000
  H   H15       1.0  0.9674212753572534  0.1712632227353836  0.8169128169296658  1.0000
  H   H16       1.0  0.46742355156474247  0.8287380962357389  0.683085679358193  1.0000
  H   H17       1.0  0.04942790456344431  0.0588880647551377  0.31506280285844224  1.0000
  H   H18       1.0  0.5494303788426151  0.9411110595752704  0.18493754858018735  1.0000
  H   H19       1.0  0.9505732123743941  0.9411126639430377  0.6849367763798356  1.0000
  H   H20       1.0  0.45057073809844894  0.058888712408446495  0.8150617230667552  1.0000
  H   H21       1.0  0.0921508341595327  0.43880727110426687  0.40814345542777636  1.0000
  H   H22       1.0  0.5921518883528093  0.5611926640475103  0.0918563418716687  1.0000
  H   H23       1.0  0.9078475884367451  0.5611925012962616  0.5918566699413577  1.0000
  H   H24       1.0  0.4078492285891997  0.4388071083484276  0.9081437834972094  1.0000
  H   H25       1.0  0.1120804531455022  0.5848600779328307  0.4864964804384897  1.0000
  H   H26       1.0  0.612081072991245  0.41514074689278857  0.013505328160263706  1.0000
  H   H27       1.0  0.8879166222756397  0.4151406515966799  0.5135048062440506  1.0000
  H   H28       1.0  0.3879173496050329  0.5848590255077396  0.9864947972088702  1.0000
  C   C1        1.0  0.8747393089114297  0.1262934980824397  0.20517338827767165  1.0000
  C   C2        1.0  0.37474284662709323  0.8737064306639439  0.29482495619574683  1.0000
  C   C3        1.0  0.12526046085676507  0.8737062739035647  0.7948258833693913  1.0000
  C   C4        1.0  0.6252596174803957  0.12629525474639539  0.7051749306337527  1.0000
  C   C5        1.0  0.769944080899961  0.0929303278530824  0.0957146892707073  1.0000
  C   C6        1.0  0.26994087842802367  0.9070680447445484  0.40428391338722497  1.0000
  C   C7        1.0  0.2300543416883443  0.907070399200769  0.9042814750800688  1.0000
  C   C8        1.0  0.7300561969982411  0.09293172889495341  0.5957187731478513  1.0000
  C   C9        1.0  0.7631860343042264  0.9627005318360135  0.020806712701137518  1.0000
  C   C10       1.0  0.2631881283312225  0.03729881924338229  0.4791896376486663  1.0000
  C   C11       1.0  0.2368164298068507  0.037299238908730104  0.9791899977798622  1.0000
  C   C12       1.0  0.7368183772971406  0.9627019090333915  0.5208090878671712  1.0000
  C   C13       1.0  0.8558112811677533  0.87182106886074  0.05489473967426765  1.0000
  C   C14       1.0  0.35580723378336643  0.12817414325474627  0.44510719272298627  1.0000
  C   C15       1.0  0.14418714142055222  0.12817965819311178  0.9451014246765083  1.0000
  C   C16       1.0  0.6441898416554039  0.8718227614780573  0.5548971322038838  1.0000
  C   C17       1.0  0.9589656598005618  0.9022287076411359  0.16091841220882236  1.0000
  C   C18       1.0  0.4589683382363887  0.0977728481340634  0.3390813853804602  1.0000
  C   C19       1.0  0.0410354571427689  0.0977701072158936  0.8390796981248345  1.0000
  C   C20       1.0  0.5410354730407505  0.9022297939884395  0.660918809040247  1.0000
  C   C21       1.0  0.9667273569932818  0.0299109654389582  0.233428194947038  1.0000
  C   C22       1.0  0.46672741966201414  0.970086737464385  0.2665712245440731  1.0000
  C   C23       1.0  0.033271065594661295  0.9700907195660375  0.7665708381608952  1.0000
  C   C24       1.0  0.5332710029384344  0.029912078633913097  0.7334294469556542  1.0000
  C   C25       1.0  0.8907985468488065  0.2620361739821959  0.2908917327200413  1.0000
  C   C26       1.0  0.390800209852003  0.7379627441912717  0.20910800859567058  1.0000
  C   C27       1.0  0.10919852856853401  0.7379645538984008  0.7091061390747414  1.0000
  C   C28       1.0  0.6091968655765283  0.26203607232154263  0.7908935166261275  1.0000
  N   N1        1.0  0.6775087937481247  0.1827230767816985  0.0654752278319322  1.0000
  N   N2        1.0  0.1775103688575328  0.8172756093385942  0.43452083098739547  1.0000
  N   N3        1.0  0.32249097602424115  0.8172757389020829  0.9345245899457312  1.0000
  N   N4        1.0  0.8224907480793535  0.18272511894735294  0.5654778945289466  1.0000
  N   N5        1.0  0.8492534180155288  0.7387661412697426  0.9751642500430012  1.0000
  N   N6        1.0  0.34925821996158396  0.26123557926655383  0.5248325609521558  1.0000
  N   N7        1.0  0.15075039327733464  0.26123267523161076  0.02483727517816451  1.0000
  N   N8        1.0  0.6507509799981008  0.738768017087871  0.4751628187277533  1.0000
  O   O1        1.0  0.8107586065953285  0.35035075830744933  0.2640984249048515  1.0000
  O   O2        1.0  0.3107596397972614  0.6496484316005608  0.2358996239711076  1.0000
  O   O3        1.0  0.18923981601060555  0.6496461439497025  0.7359007776902616  1.0000
  O   O4        1.0  0.6892387827916266  0.3503532538166566  0.7641002628587614  1.0000
  O   O5        1.0  0.9840943414805847  0.2824088101694429  0.3876601653202983  1.0000
  O   O6        1.0  0.48410132907838477  0.7175888339949877  0.11234010463653737  1.0000
  O   O7        1.0  0.015905428288562003  0.7175909622287904  0.6123399600487077  1.0000
  O   O8        1.0  0.5158970935150364  0.28241093716886206  0.8876574595667749  1.0000
  O   O9        1.0  0.7678841671512231  0.7118985753872663  0.8767737108907313  1.0000
  O   O10       1.0  0.2678782110875985  0.2881005558185947  0.6232298760821209  1.0000
  O   O11       1.0  0.23211290827577366  0.28809928234995397  0.12322323813002364  1.0000
  O   O12       1.0  0.7321148228206411  0.7119001761911575  0.3767765329324321  1.0000
  O   O13       1.0  0.9292046587863256  0.6570174719054406  0.007566940558312807  1.0000
  O   O14       1.0  0.429205853306442  0.3429784478154758  0.492436993115554  1.0000
  O   O15       1.0  0.07079511097638401  0.34298421392171013  0.9924337999933712  1.0000
  O   O16       1.0  0.5707966108279623  0.6570175006059245  0.5075678779414119  1.0000
  O   O17       1.0  0.14893656467894806  0.5196334931402902  0.40881314904110166  1.0000
  O   O18       1.0  0.6489368720721559  0.48036529233955594  0.0911871837441183  1.0000
  O   O19       1.0  0.8510618579215007  0.48036532295800055  0.5911875224586325  1.0000
  O   O20       1.0  0.3510615505231699  0.5196344796487437  0.9088120879030728  1.0000
