data_image0
_chemical_formula_structural       Co4H60C84N8O16
_chemical_formula_sum              "Co4 H60 C84 N8 O16"
_cell_length_a       14.650952518109706
_cell_length_b       15.334448194093167
_cell_length_c       15.334102174394028
_cell_angle_alpha    103.48698878475503
_cell_angle_beta     112.59175448013004
_cell_angle_gamma    112.55925868079338

_space_group_name_H-M_alt    "P 1"
_space_group_IT_number       1

loop_
  _space_group_symop_operation_xyz
  'x, y, z'

loop_
  _atom_site_type_symbol
  _atom_site_label
  _atom_site_symmetry_multiplicity
  _atom_site_fract_x
  _atom_site_fract_y
  _atom_site_fract_z
  _atom_site_occupancy
  Co  Co1       1.0  0.34888605459143196  0.8271927932708321  0.27014006252862527  1.0000
  Co  Co2       1.0  0.15110910814782116  0.7299890604508545  0.17289528996113276  1.0000
  Co  Co3       1.0  0.6511272363531119  0.1728240825113758  0.7298804167078926  1.0000
  Co  Co4       1.0  0.8488550772909916  0.2699855806247839  0.8270968020880287  1.0000
  H   H1        1.0  0.4272296556170332  0.15502546459229188  0.34586477148700817  1.0000
  H   H2        1.0  0.07279484025502811  0.6541900638606677  0.8449653585097605  1.0000
  H   H3        1.0  0.5727636767435483  0.8449614656701383  0.654144598015847  1.0000
  H   H4        1.0  0.9271791117241154  0.3458108427860793  0.1550196023725762  1.0000
  H   H5        1.0  0.4255635103323669  0.31251705004470404  0.33587093812724317  1.0000
  H   H6        1.0  0.07453684374434029  0.6643213843034558  0.6875347102051917  1.0000
  H   H7        1.0  0.574442557440335  0.687476622850717  0.6641276010832012  1.0000
  H   H8        1.0  0.9254776667706465  0.3356949633673095  0.3124671894027101  1.0000
  H   H9        1.0  0.06252788695483959  0.11447701985964899  0.08800047077959759  1.0000
  H   H10       1.0  0.43758183045829907  0.9120026764003483  0.8858030469849607  1.0000
  H   H11       1.0  0.9374917260327748  0.8855496282741339  0.9120074543180008  1.0000
  H   H12       1.0  0.5624118646118603  0.08798613399383733  0.1141905469955304  1.0000
  H   H13       1.0  0.06468033275398685  0.9580793130080206  0.10351896695840397  1.0000
  H   H14       1.0  0.43537481735385336  0.8963394683669532  0.042155097769679455  1.0000
  H   H15       1.0  0.9352982631261071  0.04192200413638149  0.8964795367130449  1.0000
  H   H16       1.0  0.5646197777447028  0.10366529712192828  0.9578526510098938  1.0000
  H   H17       1.0  0.429413338408267  0.4136267165867763  0.26564558476928096  1.0000
  H   H18       1.0  0.07062711842630147  0.734491373588021  0.5864598253972628  1.0000
  H   H19       1.0  0.5705847107976965  0.586359390795188  0.7343614367764884  1.0000
  H   H20       1.0  0.9293780742702041  0.2655034072740534  0.4135503679514372  1.0000
  H   H21       1.0  0.43201281472872205  0.5764123909090343  0.2674818197937795  1.0000
  H   H22       1.0  0.06802479979515377  0.7328001428587424  0.4237100361926664  1.0000
  H   H23       1.0  0.5679953477737243  0.4235732114240065  0.7325059950316157  1.0000
  H   H24       1.0  0.9319760091329243  0.2671882018909955  0.5762932598291001  1.0000
  H   H25       1.0  0.061661432747783324  0.4115652762403029  0.12755919555701203  1.0000
  H   H26       1.0  0.438410113311363  0.8727238036621328  0.5887170979955982  1.0000
  H   H27       1.0  0.9383404034982591  0.5884236498825074  0.8724641728841148  1.0000
  H   H28       1.0  0.5615994020934991  0.1272916577429584  0.41130886352103596  1.0000
  H   H29       1.0  0.058368562470150154  0.2518113415171256  0.13475636332954363  1.0000
  H   H30       1.0  0.4416939650938544  0.8654391084619203  0.7484400649561989  1.0000
  H   H31       1.0  0.9416655385320426  0.7481954807445133  0.8653166300763996  1.0000
  H   H32       1.0  0.5582977592569378  0.1345658393234572  0.25157449110871966  1.0000
  H   H33       1.0  0.5433470170127349  0.8698246009271315  0.22018016905763446  1.0000
  H   H34       1.0  0.9565251382255726  0.7800028510948708  0.12992452078624706  1.0000
  H   H35       1.0  0.4566509550966344  0.13015353461801735  0.7798199139161424  1.0000
  H   H36       1.0  0.043505593092106665  0.2200069333872959  0.8700898001059654  1.0000
  H   H37       1.0  0.7561342728087934  0.9313246743710124  0.3139585976974714  1.0000
  H   H38       1.0  0.7437744645258065  0.6862072708876639  0.0684209460705175  1.0000
  H   H39       1.0  0.24385744183643962  0.06864634637084067  0.6860383188276414  1.0000
  H   H40       1.0  0.2562471795467758  0.3138189935445581  0.931573295831896  1.0000
  H   H41       1.0  0.7581759271985931  0.0005194091541795987  0.6042367377632089  1.0000
  H   H42       1.0  0.7420633088132504  0.3961135557174699  0.9995040131514442  1.0000
  H   H43       1.0  0.2418302754515976  0.9994914316978053  0.3957641892573205  1.0000
  H   H44       1.0  0.257924393928505  0.6038880983670651  0.0004777003812250467  1.0000
  H   H45       1.0  0.5477232868593587  0.93445729401418  0.49942152054350675  1.0000
  H   H46       1.0  0.952483231548314  0.5009540388995433  0.06562475116313488  1.0000
  H   H47       1.0  0.452290590880594  0.06556444242085749  0.5005786796161615  1.0000
  H   H48       1.0  0.047510762669737916  0.49903790400291825  0.9343696178666716  1.0000
  H   H49       1.0  0.06162947956664059  0.10951685753624218  0.6763454176399789  1.0000
  H   H50       1.0  0.4386149205555867  0.32374272574771357  0.8904656020714795  1.0000
  H   H51       1.0  0.9383874478879477  0.890475059451589  0.3236443621881406  1.0000
  H   H52       1.0  0.5613949434737435  0.676266653855528  0.10951092509617409  1.0000
  H   H53       1.0  0.9425778276959847  0.025964827322994193  0.6831661898258259  1.0000
  H   H54       1.0  0.5578257878019883  0.31710786919363426  0.9741158462408703  1.0000
  H   H55       1.0  0.05741340319798373  0.9740144107170108  0.31681924509274484  1.0000
  H   H56       1.0  0.44217250870834585  0.6829085030942678  0.02586246225706637  1.0000
  H   H57       1.0  0.9495594920328759  0.13706870962378295  0.6644368600668358  1.0000
  H   H58       1.0  0.5507074195552661  0.33578567966376477  0.8629476285239263  1.0000
  H   H59       1.0  0.05044523512768249  0.8629355888129737  0.33555300164332635  1.0000
  H   H60       1.0  0.4493036312158125  0.6642310387696356  0.13704067871436357  1.0000
  C   C1        1.0  0.24827054839138893  0.9513503800723269  0.23073772282121738  1.0000
  C   C2        1.0  0.2517213963466815  0.7691814486427545  0.04873458444007632  1.0000
  C   C3        1.0  0.7517074502101693  0.048648581980330584  0.7692600607356963  1.0000
  C   C4        1.0  0.7482561722154414  0.23081928712857552  0.9512438468120051  1.0000
  C   C5        1.0  0.24639020946354154  0.046278017167281894  0.22491152097633454  1.0000
  C   C6        1.0  0.25365137784540776  0.7750352384679001  0.9538352210126957  1.0000
  C   C7        1.0  0.7535975053287912  0.9537237790012367  0.7751021914147669  1.0000
  C   C8        1.0  0.7463225074371637  0.22496162526524435  0.046144291107218266  1.0000
  C   C9        1.0  0.34763406186025486  0.14677146972423563  0.28948369390943174  1.0000
  C   C10       1.0  0.1524060616333784  0.7105702716581206  0.8533306153097655  1.0000
  C   C11       1.0  0.6523667433215651  0.8532351433713996  0.7105332618902833  1.0000
  C   C12       1.0  0.8475772031610377  0.28942621768900517  0.14666141129311674  1.0000
  C   C13       1.0  0.3462956252900113  0.2350377879382605  0.28262097821825444  1.0000
  C   C14       1.0  0.15373718569909284  0.7174701643980509  0.7650722635004924  1.0000
  C   C15       1.0  0.6537104456175911  0.7649611802472903  0.7173995603262924  1.0000
  C   C16       1.0  0.8462519826824533  0.28253284089876013  0.23492919521593336  1.0000
  C   C17       1.0  0.2443103336685155  0.2259802342569017  0.20987599390308273  1.0000
  C   C18       1.0  0.2556894673812878  0.7901369418294096  0.7741210342483809  1.0000
  C   C19       1.0  0.755702180240746  0.7740248433346151  0.7901397382496355  1.0000
  C   C20       1.0  0.7443034093763005  0.209858262726371  0.2258788331243622  1.0000
  C   C21       1.0  0.1428418589131368  0.12453077780942577  0.14569063882178304  1.0000
  C   C22       1.0  0.3572139069591031  0.8543130793735612  0.8756191118369256  1.0000
  C   C23       1.0  0.8571633670179607  0.8754836096718748  0.854325683923818  1.0000
  C   C24       1.0  0.6427878202127103  0.14569252074741704  0.12438948895191253  1.0000
  C   C25       1.0  0.1435326023526429  0.036250813745283494  0.15353521892290434  1.0000
  C   C26       1.0  0.35651818581246164  0.8464067739041352  0.9639134059052308  1.0000
  C   C27       1.0  0.8564512045241202  0.963745392143714  0.8464739082075636  1.0000
  C   C28       1.0  0.6434652384888437  0.15359003841578556  0.03608983773073498  1.0000
  C   C29       1.0  0.24431088953836164  0.3205515395582878  0.20307606913168283  1.0000
  C   C30       1.0  0.25565472507621917  0.7970326218662505  0.6795506911407114  1.0000
  C   C31       1.0  0.7557080709745422  0.6794701149338775  0.7969475162644456  1.0000
  C   C32       1.0  0.7443567151514757  0.2029705170804519  0.3204518391482196  1.0000
  C   C33       1.0  0.3486356465641051  0.4131732641988322  0.23830927473133556  1.0000
  C   C34       1.0  0.1513751169741653  0.7618695371049001  0.5868958242803898  1.0000
  C   C35       1.0  0.6513874846427754  0.5868322111717673  0.7616915422437386  1.0000
  C   C36       1.0  0.8486182386880686  0.2381382430581026  0.4131088451109334  1.0000
  C   C37       1.0  0.3506259933514499  0.50449247537599  0.23821586820368165  1.0000
  C   C38       1.0  0.1494331066004903  0.7620055343841087  0.49559977874098826  1.0000
  C   C39       1.0  0.6493700221017277  0.4954938926219582  0.7617734975043218  1.0000
  C   C40       1.0  0.8505634248212957  0.2379883130101135  0.5044063679863626  1.0000
  C   C41       1.0  0.24742489252686534  0.5051860825069098  0.2004123379008148  1.0000
  C   C42       1.0  0.25263693262560577  0.7998675713593923  0.494996166333088  1.0000
  C   C43       1.0  0.7525841643674838  0.4947971875765377  0.7995753121202398  1.0000
  C   C44       1.0  0.7473616824314321  0.20014427466956158  0.5050139159298794  1.0000
  C   C45       1.0  0.14242766282843886  0.41226895648431133  0.16065879693508114  1.0000
  C   C46       1.0  0.3576431286107675  0.8395434001240644  0.5879751545080152  1.0000
  C   C47       1.0  0.8575811386357375  0.5877282821490083  0.8393552066249368  1.0000
  C   C48       1.0  0.6423602408226898  0.16046769901801378  0.41203521909975643  1.0000
  C   C49       1.0  0.14101456923145148  0.3217616578889704  0.16303056328190724  1.0000
  C   C50       1.0  0.35899987254474286  0.8371759707990376  0.6784708599941421  1.0000
  C   C51       1.0  0.8589936177561199  0.6782358353008745  0.8369924001796816  1.0000
  C   C52       1.0  0.6410028083673113  0.16283914083716414  0.3215440248954948  1.0000
  C   C53       1.0  0.24893866788806923  0.603478574650353  0.20351050550402755  1.0000
  C   C54       1.0  0.2510729994376391  0.7967436379781887  0.396676162915753  1.0000
  C   C55       1.0  0.7510587439236219  0.39649854407639384  0.7964813269741594  1.0000
  C   C56       1.0  0.7489222300034087  0.20325838639148933  0.6033442849791156  1.0000
  C   C57       1.0  0.595168786925143  0.8987859596338623  0.3053764962893836  1.0000
  C   C58       1.0  0.9047975003428946  0.6948494811155185  0.10106423120248552  1.0000
  C   C59       1.0  0.40482134527386654  0.10119657805626046  0.6946157566230723  1.0000
  C   C60       1.0  0.09523830224734549  0.3051588170600397  0.8989516457507134  1.0000
  C   C61       1.0  0.7122890694270508  0.93263089420153  0.35725164002943877  1.0000
  C   C62       1.0  0.7876766662569991  0.6429315703681195  0.06719422854884972  1.0000
  C   C63       1.0  0.28770433329325573  0.0673482451129033  0.6427300090760752  1.0000
  C   C64       1.0  0.21233969715365208  0.3570775981471994  0.9328009605616427  1.0000
  C   C65       1.0  0.7752066628743036  0.9704165135988841  0.4674669420133665  1.0000
  C   C66       1.0  0.7248648862582172  0.5327723844640886  0.029440170645052794  1.0000
  C   C67       1.0  0.2247647952960321  0.029565681569131596  0.5325163900453873  1.0000
  C   C68       1.0  0.27512159581273465  0.467232322291366  0.970539783150322  1.0000
  C   C69       1.0  0.714518485152439  0.9712704694634835  0.5190979639038742  1.0000
  C   C70       1.0  0.7856659727392669  0.48122039500744046  0.028752760428673783  1.0000
  C   C71       1.0  0.2854791031368221  0.02873953291265249  0.48090221562268437  1.0000
  C   C72       1.0  0.21433506379351283  0.5187878322423458  0.9712391822920237  1.0000
  C   C73       1.0  0.5967081222872036  0.9348121702421252  0.46099017146623544  1.0000
  C   C74       1.0  0.903452467340301  0.5393487197617403  0.06521029649960024  1.0000
  C   C75       1.0  0.40328362605971085  0.0651836293235135  0.5390035347569223  1.0000
  C   C76       1.0  0.0965571090415196  0.4606589316969476  0.9347872847942184  1.0000
  C   C77       1.0  0.9005703962652377  0.0093199042855119  0.5274528328738625  1.0000
  C   C78       1.0  0.5995297108404926  0.4727119787659787  0.9906292385882052  1.0000
  C   C79       1.0  0.09941159327354386  0.9906534355466334  0.4725181552927252  1.0000
  C   C80       1.0  0.4004619920769628  0.5272928079370088  0.009352658792806771  1.0000
  C   C81       1.0  0.9684881278553163  0.0749415957468642  0.6447137510374928  1.0000
  C   C82       1.0  0.5317682022159643  0.3554743034113341  0.9250875068222651  1.0000
  C   C83       1.0  0.031516607670738175  0.9250588117634916  0.3552759405140405  1.0000
  C   C84       1.0  0.4682335326880461  0.6445351025472731  0.07489124474319898  1.0000
  N   N1        1.0  0.5374461084740147  0.8993812364744683  0.35580490986719565  1.0000
  N   N2        1.0  0.9626113452619903  0.6444760391621142  0.10056955467440062  1.0000
  N   N3        1.0  0.4625562947015496  0.10061503686385008  0.6441765204802152  1.0000
  N   N4        1.0  0.037423283571236275  0.35553540667636696  0.8994478616688822  1.0000
  N   N5        1.0  0.9417093835744338  0.9820617517307607  0.4713310658877673  1.0000
  N   N6        1.0  0.5582904974186533  0.5287352149723573  0.017900767850399176  1.0000
  N   N7        1.0  0.05829519627409499  0.017913629976611396  0.5286532582345486  1.0000
  N   N8        1.0  0.4417274988708826  0.4712794335656554  0.9820955342535526  1.0000
  O   O1        1.0  0.15112051479646024  0.8636663897388956  0.17966316969042842  1.0000
  O   O2        1.0  0.34892001191822436  0.8202470013745825  0.1364628958718441  1.0000
  O   O3        1.0  0.8488754771276846  0.1363342986833374  0.8203377061604795  1.0000
  O   O4        1.0  0.6510585370480797  0.1797542207778234  0.8635323086722266  1.0000
  O   O5        1.0  0.3464007009559253  0.9616980219429223  0.28597265915811926  1.0000
  O   O6        1.0  0.15361999809697108  0.7140085445083456  0.03840109798974818  1.0000
  O   O7        1.0  0.653571878276857  0.0382913790664574  0.7140178341929371  1.0000
  O   O8        1.0  0.8463765890711769  0.2859866791560179  0.9615988380074963  1.0000
  O   O9        1.0  0.34609656165761027  0.6879166219155406  0.24345409563053966  1.0000
  O   O10       1.0  0.1539495856967717  0.7567786740208359  0.3121691746980486  1.0000
  O   O11       1.0  0.6539030729632671  0.312076132776859  0.7565405700983518  1.0000
  O   O12       1.0  0.8460548140233329  0.24325117075301958  0.6878442518995626  1.0000
  O   O13       1.0  0.15168082508564135  0.5988741946061465  0.16665537590728963  1.0000
  O   O14       1.0  0.3483529912891968  0.8335298042371662  0.40134661372510994  1.0000
  O   O15       1.0  0.8483320104001848  0.4011222196288384  0.8333292817859287  1.0000
  O   O16       1.0  0.6516257736248222  0.166443119037865  0.5986374473917094  1.0000
