data_image0
_chemical_formula_structural       P4H56Au4C56I4
_chemical_formula_sum              "P4 H56 Au4 C56 I4"
_cell_length_a       11.272809148906791
_cell_length_b       11.27279663365576
_cell_length_c       11.811122943030286
_cell_angle_alpha    79.87462191928778
_cell_angle_beta     79.87462402872326
_cell_angle_gamma    77.66223348283782

_space_group_name_H-M_alt    "P 1"
_space_group_IT_number       1

loop_
  _space_group_symop_operation_xyz
  'x, y, z'

loop_
  _atom_site_type_symbol
  _atom_site_label
  _atom_site_symmetry_multiplicity
  _atom_site_fract_x
  _atom_site_fract_y
  _atom_site_fract_z
  _atom_site_occupancy
  P   P1        1.0  0.739692970490353  0.9491739708827324  0.7754888579820828  1.0000
  P   P2        1.0  0.05082735449232702  0.26030674671901016  0.7245119785411234  1.0000
  P   P3        1.0  0.2603063514744477  0.050827693405388216  0.22451303599287087  1.0000
  P   P4        1.0  0.9491732277901763  0.7396930929638545  0.2754866221821075  1.0000
  H   H1        1.0  0.7097614772608837  0.0007095686233498  0.9660651086413451  1.0000
  H   H2        1.0  0.9992903825294663  0.2902387601432608  0.5339357987076737  1.0000
  H   H3        1.0  0.2902389251145865  0.9992911849874769  0.03393506391120136  1.0000
  H   H4        1.0  0.0007105504242801183  0.7097592425412387  0.46606389470203874  1.0000
  H   H5        1.0  0.683275581868145  0.8501113556057618  0.9700145622443016  1.0000
  H   H6        1.0  0.14988978284494442  0.3167240969464586  0.5299863082998044  1.0000
  H   H7        1.0  0.316723920003696  0.1498893947543891  0.029985759901336482  1.0000
  H   H8        1.0  0.8501116944554781  0.6832757405016211  0.4700146846373841  1.0000
  H   H9        1.0  0.48039447349021464  0.9378604379036873  0.9012506541407959  1.0000
  H   H10       1.0  0.06213965053463973  0.5196052672921141  0.5987487089393113  1.0000
  H   H11       1.0  0.5196059307138158  0.062140317535622124  0.09874867114272223  1.0000
  H   H12       1.0  0.9378611043406337  0.4803936511488446  0.4012517090306885  1.0000
  H   H13       1.0  0.5106997770014915  0.0889562172590033  0.8855495294645833  1.0000
  H   H14       1.0  0.9110452049684382  0.48930030168962446  0.6144503360563788  1.0000
  H   H15       1.0  0.48930062903110644  0.9110445400087953  0.11444894854992076  1.0000
  H   H16       1.0  0.08895572432817292  0.5106976973379105  0.38555105189137595  1.0000
  H   H17       1.0  0.667485918562811  0.7094483360956829  0.8605178610006661  1.0000
  H   H18       1.0  0.2905516995475211  0.33251447114189153  0.6394822181622573  1.0000
  H   H19       1.0  0.33251556056617915  0.2905515031808861  0.1394822846675083  1.0000
  H   H20       1.0  0.70944780232432  0.6674862792182593  0.36051810398338796  1.0000
  H   H21       1.0  0.5811653448231695  0.5736340329275648  0.767510758710678  1.0000
  H   H22       1.0  0.42636563395495847  0.41883534334571965  0.7324901749509749  1.0000
  H   H23       1.0  0.41883613247725293  0.4263658045205148  0.23249023422651047  1.0000
  H   H24       1.0  0.5736358451740315  0.5811644959308495  0.2675099707171924  1.0000
  H   H25       1.0  0.5305223932073916  0.6391113755548757  0.5657811618946199  1.0000
  H   H26       1.0  0.36088911942085394  0.4694757838465832  0.9342209059283135  1.0000
  H   H27       1.0  0.4694780073395039  0.36088937622746897  0.4342198579269406  1.0000
  H   H28       1.0  0.6391110856220338  0.5305212943453341  0.06578075432127409  1.0000
  H   H29       1.0  0.5683654769226862  0.8413095746118561  0.4574975916641435  1.0000
  H   H30       1.0  0.1586900173492722  0.4316330660500398  0.04250331945542742  1.0000
  H   H31       1.0  0.43163402312058713  0.1586911739198129  0.5425035777505229  1.0000
  H   H32       1.0  0.8413091127686628  0.5683649283046179  0.957497520409511  1.0000
  H   H33       1.0  0.6595906209079062  0.9760936371108783  0.549128494938394  1.0000
  H   H34       1.0  0.023907378162363123  0.3404069151978604  0.95087191549392  1.0000
  H   H35       1.0  0.34040888096393473  0.023907113249272496  0.4508718272072514  1.0000
  H   H36       1.0  0.9760926524591869  0.6595910824074807  0.049128774777912616  1.0000
  H   H37       1.0  0.9190490931843557  0.9978158579898707  0.8965169219699902  1.0000
  H   H38       1.0  0.002182626618633803  0.08095228877576228  0.6034824058470392  1.0000
  H   H39       1.0  0.08095113476976928  0.0021858150343731994  0.1034822806047941  1.0000
  H   H40       1.0  0.9978132750672871  0.9190484504101589  0.39651766740199434  1.0000
  H   H41       1.0  0.1197654663172045  0.8778113050767758  0.9467674912997593  1.0000
  H   H42       1.0  0.12218892577983106  0.8802353082487357  0.5532325468366253  1.0000
  H   H43       1.0  0.8802324162829933  0.12218852668252823  0.053230710933753755  1.0000
  H   H44       1.0  0.8778116546741046  0.1197645296056393  0.44676690115562684  1.0000
  H   H45       1.0  0.20676951347209646  0.6806484294676381  0.8744033204319449  1.0000
  H   H46       1.0  0.31935194908100334  0.7932299945191374  0.6255977277482072  1.0000
  H   H47       1.0  0.7932298103212788  0.319353236648965  0.12559772627398044  1.0000
  H   H48       1.0  0.6806486313729323  0.2067698433352376  0.3744017202440446  1.0000
  H   H49       1.0  0.09546825464479983  0.6007465912138912  0.7488121911273777  1.0000
  H   H50       1.0  0.3992529596749678  0.9045290768702898  0.7511902033843754  1.0000
  H   H51       1.0  0.9045303448948517  0.3992541540670942  0.2511891278803802  1.0000
  H   H52       1.0  0.6007470672894542  0.0954689170780796  0.24881218142549946  1.0000
  H   H53       1.0  0.8923225304315139  0.7169930515694958  0.7009709342455608  1.0000
  H   H54       1.0  0.283006773450218  0.10767753127802848  0.7990309107127087  1.0000
  H   H55       1.0  0.10767787011538132  0.283007700212849  0.2990300855759997  1.0000
  H   H56       1.0  0.7169923584962846  0.8923204649051185  0.20096908188321552  1.0000
  Au  Au1       1.0  0.7274456517544435  0.14395496253372636  0.6797175465264473  1.0000
  Au  Au2       1.0  0.856044730880143  0.2725549477426341  0.8202825065279525  1.0000
  Au  Au3       1.0  0.272554928699492  0.8560448753206488  0.3202819014658046  1.0000
  Au  Au4       1.0  0.14395477282026556  0.7274458044459989  0.17971696834866438  1.0000
  C   C1        1.0  0.6639368002133708  0.9452391481651293  0.9258442341292721  1.0000
  C   C2        1.0  0.05476177945039501  0.33606266786677  0.5741558683212276  1.0000
  C   C3        1.0  0.3360625254085647  0.05476251977995618  0.0741559653076393  1.0000
  C   C4        1.0  0.9452386265822029  0.6639380894010287  0.4258426096932766  1.0000
  C   C5        1.0  0.5270689262639863  0.9965951968781893  0.9365813699381959  1.0000
  C   C6        1.0  0.0034036454590449026  0.47293187404577  0.5634197182779487  1.0000
  C   C7        1.0  0.4729316505328143  0.0034046373192139997  0.06341977259209843  1.0000
  C   C8        1.0  0.9965964007594792  0.5270707110779609  0.4365819033951653  1.0000
  C   C9        1.0  0.6705186968407162  0.8516341418297487  0.7100585699137482  1.0000
  C   C10       1.0  0.14836678775771622  0.32948044039498103  0.7899424259431385  1.0000
  C   C11       1.0  0.3294827822882739  0.14836569744682035  0.2899415757544189  1.0000
  C   C12       1.0  0.85163396711755  0.6705184780459773  0.21005799202686154  1.0000
  C   C13       1.0  0.646676545770646  0.7385665326557386  0.7719488926236125  1.0000
  C   C14       1.0  0.2614322467228262  0.3533224503774761  0.7280516289824845  1.0000
  C   C15       1.0  0.35332278167986436  0.2614351371178357  0.22805045954427777  1.0000
  C   C16       1.0  0.738567435056055  0.6466773860547049  0.2719471213338451  1.0000
  C   C17       1.0  0.5973583311300105  0.6621431279834198  0.7197755096337913  1.0000
  C   C18       1.0  0.33785787920178484  0.4026404863726043  0.780225517368997  1.0000
  C   C19       1.0  0.40264332424887783  0.33785579370821484  0.2802247587431097  1.0000
  C   C20       1.0  0.6621430519233941  0.5973575144834128  0.21977502330973658  1.0000
  C   C21       1.0  0.5702200684055185  0.6984642052087509  0.606198749357695  1.0000
  C   C22       1.0  0.3015365707998114  0.42977723217796904  0.8938025718701179  1.0000
  C   C23       1.0  0.4297794316377548  0.3015365433229178  0.3938024200569642  1.0000
  C   C24       1.0  0.6984636360716507  0.5702198478424308  0.10619824111044808  1.0000
  C   C25       1.0  0.5918086265178246  0.8115061510682294  0.5451505168180333  1.0000
  C   C26       1.0  0.18849525511599552  0.4081896261383235  0.9548505495325728  1.0000
  C   C27       1.0  0.40819267636126  0.18849460579327368  0.4548495061414072  1.0000
  C   C28       1.0  0.8115069290126091  0.5918065427985012  0.04515008697052279  1.0000
  C   C29       1.0  0.6422841099778652  0.8879347517332905  0.5966581988823378  1.0000
  C   C30       1.0  0.1120671723698266  0.35771452058940406  0.9033427211798609  1.0000
  C   C31       1.0  0.3577153900654082  0.11206599679837843  0.4033429705323215  1.0000
  C   C32       1.0  0.8879343085877308  0.6422853205156471  0.09665657721929226  1.0000
  C   C33       1.0  0.8915256475907257  0.8636552884080685  0.7974009392757466  1.0000
  C   C34       1.0  0.13634153031163984  0.1084745289900795  0.7025980089525986  1.0000
  C   C35       1.0  0.1084736762026424  0.1363463777085343  0.2026001074301789  1.0000
  C   C36       1.0  0.863658331374275  0.8915243935141322  0.2973991695344296  1.0000
  C   C37       1.0  0.9562559204728419  0.909263672063993  0.8662335316023898  1.0000
  C   C38       1.0  0.09073454924496363  0.04374160576762159  0.6337630816991222  1.0000
  C   C39       1.0  0.04374268272394491  0.0907370768739639  0.133766092867333  1.0000
  C   C40       1.0  0.9092644174230314  0.9562573189713676  0.36623170457394144  1.0000
  C   C41       1.0  0.0687501496680198  0.8427542238334311  0.8939282992181816  1.0000
  C   C42       1.0  0.1572447871154807  0.9312503938303537  0.6060711336513193  1.0000
  C   C43       1.0  0.9312511623539024  0.1572465421704905  0.10606748739615307  1.0000
  C   C44       1.0  0.842755965931218  0.06874852278211559  0.39393013158770174  1.0000
  C   C45       1.0  0.11823915683668677  0.7313462176364566  0.8524640046869364  1.0000
  C   C46       1.0  0.2686532306341436  0.8817608323468633  0.6475388218468011  1.0000
  C   C47       1.0  0.8817597970313429  0.26865269430314237  0.14753671246927522  1.0000
  C   C48       1.0  0.7313466200803731  0.1182380791864475  0.3524634402543398  1.0000
  C   C49       1.0  0.055448958225348115  0.6867803849703762  0.7823799521239323  1.0000
  C   C50       1.0  0.3132177732367795  0.9445545936230174  0.7176224996393116  1.0000
  C   C51       1.0  0.944549639485743  0.3132203584821269  0.2176222141528541  1.0000
  C   C52       1.0  0.6867828035600214  0.055445240574393005  0.2823786428909827  1.0000
  C   C53       1.0  0.9419597070075839  0.7525668860959698  0.7547231705843842  1.0000
  C   C54       1.0  0.2474287028734992  0.0580450632429717  0.7452777484219979  1.0000
  C   C55       1.0  0.05803961678578422  0.24743478002063307  0.2452778761215484  1.0000
  C   C56       1.0  0.7525709770768148  0.9419547713607271  0.25472184916335994  1.0000
  I   I1        1.0  0.6973486753121918  0.36166672863580374  0.554792347056754  1.0000
  I   I2        1.0  0.6383310989971562  0.3026552611172447  0.9452049415256596  1.0000
  I   I3        1.0  0.3026547883882174  0.6383322068711195  0.4452042330578648  1.0000
  I   I4        1.0  0.36166608043200205  0.6973482428102926  0.05479192260391133  1.0000
