data_image0
_chemical_formula_structural       Mn2H4C12S2O8
_chemical_formula_sum              "Mn2 H4 C12 S2 O8"
_cell_length_a       4.598797182630133
_cell_length_b       6.08634276077866
_cell_length_c       13.331628333925677
_cell_angle_alpha    86.62146217404016
_cell_angle_beta     80.09074642477643
_cell_angle_gamma    70.21494355339001

_space_group_name_H-M_alt    "P 1"
_space_group_IT_number       1

loop_
  _space_group_symop_operation_xyz
  'x, y, z'

loop_
  _atom_site_type_symbol
  _atom_site_label
  _atom_site_symmetry_multiplicity
  _atom_site_fract_x
  _atom_site_fract_y
  _atom_site_fract_z
  _atom_site_occupancy
  Mn  Mn1       1.0  0.7771996711751681  0.7502234255466652  0.44547655125921193  1.0000
  Mn  Mn2       1.0  0.22281956341768697  0.2497638350109598  0.5545247965586455  1.0000
  H   H1        1.0  0.3402076296017924  0.4716503391391741  0.8566632577578801  1.0000
  H   H2        1.0  0.8019908539601842  0.02782374012714681  0.8568205853281584  1.0000
  H   H3        1.0  0.659779021108747  0.5283597330226046  0.1433318856697525  1.0000
  H   H4        1.0  0.1979812345451888  0.9721933500901659  0.14317941570818962  1.0000
  C   C1        1.0  0.45562510579105703  0.6002518326848191  0.83571011537331  1.0000
  C   C2        1.0  0.707922073746026  0.8990105961762116  0.835820366277126  1.0000
  C   C3        1.0  0.5443566757164362  0.39974254595397696  0.16429465165553134  1.0000
  C   C4        1.0  0.2920529344648768  0.10099950343443002  0.16418201706273552  1.0000
  C   C5        1.0  0.5587139656177341  0.661540208047775  0.7383171723082427  1.0000
  C   C6        1.0  0.7036779283043157  0.8372815276374724  0.7383883157277185  1.0000
  C   C7        1.0  0.44128625885689127  0.3384488993656234  0.2616758547761862  1.0000
  C   C8        1.0  0.2963263315892775  0.16273194127592214  0.2616120162630011  1.0000
  C   C9        1.0  0.5356197606221683  0.5347121717044417  0.6499909600331009  1.0000
  C   C10       1.0  0.8153903298526897  0.9641113939880485  0.6500665940348257  1.0000
  C   C11       1.0  0.464402420847115  0.4652785754418218  0.3500058863671214  1.0000
  C   C12       1.0  0.18461768374427104  0.03588114840240311  0.34993259884679173  1.0000
  S   S1        1.0  0.5359991148582209  0.7498010306428429  0.9261991889275052  1.0000
  S   S2        1.0  0.46396960505322216  0.2502125865411244  0.0738013012800707  1.0000
  O   O1        1.0  0.32149326950977997  0.44434434812927764  0.6611837076496272  1.0000
  O   O2        1.0  0.018324388072876657  0.05443784787438941  0.661281048729812  1.0000
  O   O3        1.0  0.6785425903298686  0.5556445848292172  0.3388179358546638  1.0000
  O   O4        1.0  0.9816781759410419  0.9455512305759585  0.3387185025596082  1.0000
  O   O5        1.0  0.7409015827185501  0.511506171469499  0.5681826718206864  1.0000
  O   O6        1.0  0.6916365372219171  0.9876435633252075  0.5682321522957992  1.0000
  O   O7        1.0  0.25910632226664626  0.48850205105778605  0.4318185419086475  1.0000
  O   O8        1.0  0.3083805937157607  0.012345451472448605  0.4317683143376314  1.0000
