data_image0
_chemical_formula_structural       Cd2H32C40N12O8
_chemical_formula_sum              "Cd2 H32 C40 N12 O8"
_cell_length_a       4.939148947190843
_cell_length_b       9.209387275891867
_cell_length_c       20.17619112941936
_cell_angle_alpha    90.00191101512158
_cell_angle_beta     91.30467082101833
_cell_angle_gamma    90.0012579521856

_space_group_name_H-M_alt    "P 1"
_space_group_IT_number       1

loop_
  _space_group_symop_operation_xyz
  'x, y, z'

loop_
  _atom_site_type_symbol
  _atom_site_label
  _atom_site_symmetry_multiplicity
  _atom_site_fract_x
  _atom_site_fract_y
  _atom_site_fract_z
  _atom_site_occupancy
  Cd  Cd1       1.0  0.5000036704300611  0.5000081636513443  0.5000001305005524  1.0000
  Cd  Cd2       1.0  0.4999971658802522  0.9999877763954074  6.645952197016212e-07  1.0000
  H   H1        1.0  0.006996219382088508  0.2880751776507324  0.9922332992833345  1.0000
  H   H2        1.0  0.9929998225641795  0.7880975859718761  0.5077641938998525  1.0000
  H   H3        1.0  0.9929901335840017  0.7119020591073023  0.007770041423512503  1.0000
  H   H4        1.0  0.006996861178549808  0.2119306856941776  0.49223834864366006  1.0000
  H   H5        1.0  0.7306091301472365  0.25909460104342946  0.10460379516768369  1.0000
  H   H6        1.0  0.2693689928473901  0.7591114144380882  0.39540012915496436  1.0000
  H   H7        1.0  0.26937957269788637  0.7408772064297222  0.8953981006023849  1.0000
  H   H8        1.0  0.7306186184186956  0.24090599885606415  0.6046067099838337  1.0000
  H   H9        1.0  0.4004683864702727  0.6411742879715377  0.12216877416055635  1.0000
  H   H10       1.0  0.5995368366233508  0.14119193366664007  0.3778424368233856  1.0000
  H   H11       1.0  0.5995492278080551  0.3588116352582276  0.877821752606202  1.0000
  H   H12       1.0  0.4004519765076467  0.8588243935797877  0.6221589649766412  1.0000
  H   H13       1.0  0.7273170131432636  0.5988105729519122  0.09343633963648297  1.0000
  H   H14       1.0  0.2726791571047259  0.09882254114576479  0.4065696372691006  1.0000
  H   H15       1.0  0.2726997266340589  0.40115797684556037  0.9065581414227207  1.0000
  H   H16       1.0  0.7273042451052947  0.9012003010466005  0.5934286847264189  1.0000
  H   H17       1.0  0.35946128593555227  0.3668629917688051  0.21712087801568453  1.0000
  H   H18       1.0  0.6405418480314752  0.8668828788552576  0.28287659623780564  1.0000
  H   H19       1.0  0.6405379655627996  0.6331316185133318  0.7828792307744619  1.0000
  H   H20       1.0  0.3594660945291965  0.1331291053007959  0.7171301286792228  1.0000
  H   H21       1.0  0.9872487945006799  0.682890512910326  0.18500517543580489  1.0000
  H   H22       1.0  0.012763373690155802  0.18290145423934226  0.31500228638065403  1.0000
  H   H23       1.0  0.012754227316961063  0.31709975370013405  0.8149870624894501  1.0000
  H   H24       1.0  0.9872231430881727  0.8171094434499864  0.6849911305098927  1.0000
  H   H25       1.0  0.16522807568721734  0.6419018155819954  0.2993637911689432  1.0000
  H   H26       1.0  0.8347905158304628  0.14191075622627378  0.20064222136748808  1.0000
  H   H27       1.0  0.8347703557598436  0.35810473882297333  0.7006308423676655  1.0000
  H   H28       1.0  0.16522250795250681  0.8580860255551457  0.7993507009700448  1.0000
  H   H29       1.0  0.5252502598534152  0.3382192418466161  0.3332018709053201  1.0000
  H   H30       1.0  0.474737073959382  0.8382274855439177  0.16679639191126935  1.0000
  H   H31       1.0  0.47474675127817534  0.661791656188001  0.666799188599981  1.0000
  H   H32       1.0  0.5252872643778802  0.1617638675513788  0.8332096483432565  1.0000
  C   C1        1.0  0.1755901179852799  0.31760391104120334  0.02510283678737579  1.0000
  C   C2        1.0  0.824400203749896  0.8176261763636602  0.47489568829857365  1.0000
  C   C3        1.0  0.8243965627689537  0.6823733256625173  0.9748990210111185  1.0000
  C   C4        1.0  0.1755901947205842  0.182397751907466  0.5251077287815702  1.0000
  C   C5        1.0  0.5454508394410951  0.29952648069250637  0.08158899571552068  1.0000
  C   C6        1.0  0.4545335142053375  0.7995437636319949  0.4184141261113011  1.0000
  C   C7        1.0  0.4545397764068824  0.7004474985081757  0.9184134323857264  1.0000
  C   C8        1.0  0.5454562286140004  0.20047690720205216  0.5815922567612191  1.0000
  C   C9        1.0  0.5604490336509897  0.5581001737023  0.12333341111300197  1.0000
  C   C10       1.0  0.4395533542752545  0.05811384295241599  0.3766721093058507  1.0000
  C   C11       1.0  0.4395635526818397  0.4418792345744152  0.876661488305821  1.0000
  C   C12       1.0  0.560421740471817  0.9419057416813028  0.6233270492222616  1.0000
  C   C13       1.0  0.6624963428033155  0.5274791636101243  0.19287801281564748  1.0000
  C   C14       1.0  0.3375129450176005  0.02749190784864911  0.30712621330970075  1.0000
  C   C15       1.0  0.33750995860664557  0.47251110315164596  0.8071177612534297  1.0000
  C   C16       1.0  0.6624857605664617  0.9725200761011408  0.6928763671242348  1.0000
  C   C17       1.0  0.5350543910300232  0.4287069325502912  0.23471308678314523  1.0000
  C   C18       1.0  0.4649448632260517  0.9287225195362581  0.26528816367540026  1.0000
  C   C19       1.0  0.4649490142122872  0.5712898494354588  0.7652866037447692  1.0000
  C   C20       1.0  0.5350593626415261  0.0712872928437704  0.7347170022927187  1.0000
  C   C21       1.0  0.8869595619984455  0.6055700904574552  0.21728269994628133  1.0000
  C   C22       1.0  0.1130472485195142  0.10558075251609009  0.2827225794475296  1.0000
  C   C23       1.0  0.11304280429281019  0.3944223479587734  0.782712503811929  1.0000
  C   C24       1.0  0.8869527680923498  0.8944258019735898  0.7172740693123811  1.0000
  C   C25       1.0  0.9849641115558327  0.5843295162038373  0.2818483640339835  1.0000
  C   C26       1.0  0.0150462041004147  0.08433858726064608  0.21815469665229154  1.0000
  C   C27       1.0  0.015036341982117637  0.4156716089705697  0.7181463074742067  1.0000
  C   C28       1.0  0.9849640326778014  0.9156603663323679  0.781841647808825  1.0000
  C   C29       1.0  0.6297990729547607  0.41026350214488616  0.29968655093002633  1.0000
  C   C30       1.0  0.3702012464042426  0.9102742447988845  0.20031495611076613  1.0000
  C   C31       1.0  0.37020815836813653  0.5897408808416316  0.7003142042845878  1.0000
  C   C32       1.0  0.6298134180802465  0.08972470910255478  0.7996889169286303  1.0000
  C   C33       1.0  0.8575957997261839  0.4856767360849687  0.3238739349490415  1.0000
  C   C34       1.0  0.14240191927618892  0.9856864630738323  0.1761285853414307  1.0000
  C   C35       1.0  0.14240602057591906  0.5143298184532056  0.6761237404286076  1.0000
  C   C36       1.0  0.8576056396601646  0.014310318918376199  0.8238706869080159  1.0000
  C   C37       1.0  0.9651679755252331  0.45640220307625856  0.39329208913709107  1.0000
  C   C38       1.0  0.034832879229824705  0.9564055260371022  0.10670809231648089  1.0000
  C   C39       1.0  0.03483586719217874  0.5436130382627623  0.6067056243176479  1.0000
  C   C40       1.0  0.9651783960252941  0.0435771400025757  0.8932927387601378  1.0000
  N   N1        1.0  0.3811870945660872  0.22368623024757286  0.04103575128579709  1.0000
  N   N2        1.0  0.6187983639950262  0.7237083423286066  0.45896384141061464  1.0000
  N   N3        1.0  0.6187991490624186  0.7762877489828528  0.9589680836994886  1.0000
  N   N4        1.0  0.38119766407159267  0.2763155860517941  0.5410416669171596  1.0000
  N   N5        1.0  0.4416741697017059  0.4329216342107216  0.0895038073611687  1.0000
  N   N6        1.0  0.5583165338170133  0.932936174537339  0.4105003198599275  1.0000
  N   N7        1.0  0.5583254091855068  0.5670556024399716  0.9104948183907664  1.0000
  N   N8        1.0  0.4416593812808145  0.06708449615639013  0.5895043140191162  1.0000
  N   N9        1.0  0.20496773900406146  0.44674295434124645  0.0538495185097858  1.0000
  N   N10       1.0  0.7950361701917715  0.9467594731573002  0.4461530661920675  1.0000
  N   N11       1.0  0.7950338621237806  0.5532353681703129  0.9461491452624242  1.0000
  N   N12       1.0  0.2049519875376191  0.053264455137750105  0.5538513014814938  1.0000
  O   O1        1.0  0.1964756138669443  0.509283812823014  0.4082254610572349  1.0000
  O   O2        1.0  0.8035399967077197  0.0092885285692788  0.09177366402857959  1.0000
  O   O3        1.0  0.8035283381630904  0.4907336001950427  0.5917717581109371  1.0000
  O   O4        1.0  0.1964736286011189  0.9906963091255102  0.908225722168069  1.0000
  O   O5        1.0  0.8203843732825719  0.3790339791772013  0.4312444463294936  1.0000
  O   O6        1.0  0.17961046577772072  0.8790262127087801  0.06875651772280379  1.0000
  O   O7        1.0  0.17962094548665422  0.6209877773560492  0.56875577670003  1.0000
  O   O8        1.0  0.8203963277955709  0.12094776659019148  0.9312462144757203  1.0000
