data_image0
_chemical_formula_structural       Ag4H48C56N12O28
_chemical_formula_sum              "Ag4 H48 C56 N12 O28"
_cell_length_a       11.085334945009736
_cell_length_b       11.656495695102759
_cell_length_c       11.993082553560264
_cell_angle_alpha    98.87563131904605
_cell_angle_beta     89.99991754242251
_cell_angle_gamma    89.99988623094973

_space_group_name_H-M_alt    "P 1"
_space_group_IT_number       1

loop_
  _space_group_symop_operation_xyz
  'x, y, z'

loop_
  _atom_site_type_symbol
  _atom_site_label
  _atom_site_symmetry_multiplicity
  _atom_site_fract_x
  _atom_site_fract_y
  _atom_site_fract_z
  _atom_site_occupancy
  Ag  Ag1       1.0  0.8444274301360363  0.27363682102055975  0.6823293603975102  1.0000
  Ag  Ag2       1.0  0.3444271452914761  0.22636270892376584  0.8176701448523076  1.0000
  Ag  Ag3       1.0  0.1555720996927903  0.7263632511511062  0.3176711157873271  1.0000
  Ag  Ag4       1.0  0.655571482445275  0.773637363375016  0.18232949753820543  1.0000
  H   H1        1.0  0.6967317164078892  0.07857753226381448  0.5343994203104501  1.0000
  H   H2        1.0  0.19673169436359217  0.42142231515332174  0.965600327490094  1.0000
  H   H3        1.0  0.30326781342028386  0.9214225397817086  0.4656018896694505  1.0000
  H   H4        1.0  0.8032669333718017  0.5785794938476057  0.0343987417645835  1.0000
  H   H5        1.0  0.7082290221901955  0.863711267988414  0.46891025581771123  1.0000
  H   H6        1.0  0.20822847295210067  0.6362883651893083  0.03108930690809331  1.0000
  H   H7        1.0  0.2917714097323624  0.13628793589428057  0.5310900900367699  1.0000
  H   H8        1.0  0.7917719589697468  0.36371257552167446  0.968909632015489  1.0000
  H   H9        1.0  0.030444099639126396  0.08258883262223549  0.6902205988773389  1.0000
  H   H10       1.0  0.5304456885672765  0.4174096352752627  0.8097816627310407  1.0000
  H   H11       1.0  0.9695545280976813  0.9174095027221084  0.3097812842391363  1.0000
  H   H12       1.0  0.46955384126089666  0.5825904367702605  0.19021964724885984  1.0000
  H   H13       1.0  0.057178650677847984  0.8677002710806789  0.6285202635824874  1.0000
  H   H14       1.0  0.5571798358551516  0.6322977501408713  0.871479887960838  1.0000
  H   H15       1.0  0.9428199770602672  0.1322980645159575  0.3714799519438614  1.0000
  H   H16       1.0  0.442820596067051  0.36770232215597054  0.12851975442819705  1.0000
  H   H17       1.0  0.8524406306362877  0.5017048341383016  0.4925773018207665  1.0000
  H   H18       1.0  0.35244116705045764  0.9982962256302769  0.007422284734154487  1.0000
  H   H19       1.0  0.1475588991931929  0.49829523815950677  0.5074223405690077  1.0000
  H   H20       1.0  0.6475592648690663  0.0017055831164256995  0.9925784521091714  1.0000
  H   H21       1.0  0.8617791693088033  0.5349265463365285  0.35305138576358525  1.0000
  H   H22       1.0  0.3617795561423094  0.965073625070943  0.146948055125776  1.0000
  H   H23       1.0  0.13821945842860114  0.46507352608838914  0.6469474228318645  1.0000
  H   H24       1.0  0.6382208757802488  0.0349255788117517  0.853052290728705  1.0000
  H   H25       1.0  0.624855259888477  0.5130220412086359  0.4848023646961578  1.0000
  H   H26       1.0  0.1248549056338462  0.9869786393432844  0.015198299073396968  1.0000
  H   H27       1.0  0.3751442699403426  0.48697803096303016  0.5151981114886723  1.0000
  H   H28       1.0  0.8751446241949806  0.013021432828381299  0.9848021771114333  1.0000
  H   H29       1.0  0.6338582073375462  0.5557372863222483  0.3488726752476836  1.0000
  H   H30       1.0  0.13385772896293702  0.9442625067160434  0.1511270096123525  1.0000
  H   H31       1.0  0.3661404204012229  0.44426104940052374  0.6511267064836019  1.0000
  H   H32       1.0  0.8661418008668915  0.05573669716761738  0.8488733362428676  1.0000
  H   H33       1.0  0.7891927018449819  0.21241136222445783  0.24218688933339647  1.0000
  H   H34       1.0  0.28919238311701173  0.2875884862573556  0.2578137727968368  1.0000
  H   H35       1.0  0.21080682798811518  0.7875878422899089  0.7578092875465072  1.0000
  H   H36       1.0  0.7108089508959522  0.7124115856600923  0.7421883709766489  1.0000
  H   H37       1.0  0.8073727061124598  0.9993524195974783  0.1799223677230727  1.0000
  H   H38       1.0  0.3073728886589819  0.5006470003431926  0.32007786598005333  1.0000
  H   H39       1.0  0.19262772581241444  0.0006459162494963  0.8200761802116645  1.0000
  H   H40       1.0  0.6926302495430008  0.4993539407433047  0.6799185715561151  1.0000
  H   H41       1.0  0.4338258664364929  0.15197144924223235  0.36845313940009555  1.0000
  H   H42       1.0  0.9338269777688095  0.3480289567620714  0.13154658174199338  1.0000
  H   H43       1.0  0.5661736633929805  0.8480286230555762  0.6315465029896785  1.0000
  H   H44       1.0  0.06617435624581698  0.6519702469935139  0.8684545979068119  1.0000
  H   H45       1.0  0.46876405067568067  0.9375817670126518  0.30358330997398747  1.0000
  H   H46       1.0  0.9687647543233452  0.5624181743035024  0.19641678901594867  1.0000
  H   H47       1.0  0.531236381247524  0.06241743699617788  0.6964162020854303  1.0000
  H   H48       1.0  0.0312365796919352  0.43758102957822587  0.8035835568377933  1.0000
  C   C1        1.0  0.7739310435780593  0.028109928321704596  0.5556366489059315  1.0000
  C   C2        1.0  0.2739309495074878  0.4718906213168096  0.9443639362399807  1.0000
  C   C3        1.0  0.2260693883434897  0.9718901438489949  0.44436382727816687  1.0000
  C   C4        1.0  0.7260685803199749  0.528111187557002  0.05563596680902091  1.0000
  C   C5        1.0  0.7808861900946908  0.9090067351306528  0.5187613539047574  1.0000
  C   C6        1.0  0.28088593117398364  0.5909916736454902  0.9812377267941413  1.0000
  C   C7        1.0  0.2191133397351449  0.0909924687530079  0.4812389919504625  1.0000
  C   C8        1.0  0.7191135986551415  0.4090092670664659  0.01876121213017968  1.0000
  C   C9        1.0  0.9607597888358225  0.030303813605364396  0.6425724190512483  1.0000
  C   C10       1.0  0.4607607378495187  0.4696954660280355  0.8574285627427116  1.0000
  C   C11       1.0  0.03923974099335939  0.9696953901521607  0.3574287605990421  1.0000
  C   C12       1.0  0.5392387919782989  0.5303054744316356  0.1425720437717359  1.0000
  C   C13       1.0  0.9755360767209706  0.9118592982376368  0.6080722983281177  1.0000
  C   C14       1.0  0.4755359638933213  0.5881386921368942  0.891926462709982  1.0000
  C   C15       1.0  0.02446435520224099  0.08813990577120018  0.3919272137313  1.0000
  C   C16       1.0  0.5244635659361591  0.4118613801609142  0.10807317967979199  1.0000
  C   C17       1.0  0.8838682341244775  0.8494878181195062  0.5460400669649986  1.0000
  C   C18       1.0  0.38386969794761666  0.6505121057439424  0.9539599390661523  1.0000
  C   C19       1.0  0.11613039361061787  0.15051312234113817  0.45396053955018795  1.0000
  C   C20       1.0  0.61613073397357  0.3494888348408977  0.046039833652493194  1.0000
  C   C21       1.0  0.902020305653991  0.7224912655645993  0.5088433127209625  1.0000
  C   C22       1.0  0.4020205439200311  0.7775094875701497  0.9911567938308607  1.0000
  C   C23       1.0  0.09797832208210618  0.27750880660804  0.4911571634646137  1.0000
  C   C24       1.0  0.5979798880021717  0.22249058472669248  0.008842848558174408  1.0000
  C   C25       1.0  0.8073242686286193  0.5470538377151399  0.4304486230403626  1.0000
  C   C26       1.0  0.3073248022209683  0.9529464507434112  0.06955090727657158  1.0000
  C   C27       1.0  0.19267526120150785  0.4529462347088041  0.5695501855543412  1.0000
  C   C28       1.0  0.692675629699572  0.04705448971529339  0.9304496992371369  1.0000
  C   C29       1.0  0.6790142686816765  0.5061124059073948  0.4074403641339899  1.0000
  C   C30       1.0  0.17901468070942878  0.9938872900666381  0.09255924656849149  1.0000
  C   C31       1.0  0.32098526114714326  0.49388766626427827  0.5925601120508475  1.0000
  C   C32       1.0  0.8209857512137757  0.006111913942199002  0.9074402654909264  1.0000
  C   C33       1.0  0.5860899338236009  0.3249788043206436  0.3467480446649347  1.0000
  C   C34       1.0  0.0860891120471763  0.17502148073269544  0.1532529510080067  1.0000
  C   C35       1.0  0.4139132043787938  0.6750195313972824  0.6532513370626489  1.0000
  C   C36       1.0  0.9139113198753817  0.8249777231499988  0.8467473948464743  1.0000
  C   C37       1.0  0.6083546452523123  0.19860739452533235  0.30977853157540375  1.0000
  C   C38       1.0  0.10835440376611419  0.30139284254307336  0.19022326132825637  1.0000
  C   C39       1.0  0.3916466887639203  0.8013926780228215  0.6902194432227589  1.0000
  C   C40       1.0  0.8916469302475036  0.6986072295005171  0.8097780486501591  1.0000
  C   C41       1.0  0.7154692213163685  0.1553465110089505  0.2577337643517481  1.0000
  C   C42       1.0  0.2154688078641485  0.3446526276541561  0.24226688852016307  1.0000
  C   C43       1.0  0.28453121061182424  0.8446500885142997  0.7422628553336423  1.0000
  C   C44       1.0  0.7845325261501229  0.6553474445155699  0.757733587663189  1.0000
  C   C45       1.0  0.7264631768927998  0.036068811115711696  0.2232515078327566  1.0000
  C   C46       1.0  0.22646246034815218  0.463931172204127  0.2767492573143713  1.0000
  C   C47       1.0  0.2735381571250953  0.9639303932705724  0.7767455028407324  1.0000
  C   C48       1.0  0.773539775760149  0.5360689002169109  0.7232495512781156  1.0000
  C   C49       1.0  0.5173344598016101  0.12023838853933459  0.3269346122866423  1.0000
  C   C50       1.0  0.017334983737931995  0.37976204442912825  0.17306566250271518  1.0000
  C   C51       1.0  0.482667776306691  0.8797616838817104  0.6730641963058446  1.0000
  C   C52       1.0  0.9826672523684151  0.6202380276134889  0.8269356474749614  1.0000
  C   C53       1.0  0.5365275349266837  0.0024568394626455995  0.292019876448002  1.0000
  C   C54       1.0  0.036527758216138295  0.4975435522504768  0.20798036682208476  1.0000
  C   C55       1.0  0.46347199490243424  0.9975441012493105  0.7079790624763191  1.0000
  C   C56       1.0  0.963473575799142  0.5024556516312514  0.7920199790316572  1.0000
  N   N1        1.0  0.8614023532942382  0.08825423227351338  0.6174796685989321  1.0000
  N   N2        1.0  0.36140248181065  0.4117452610564953  0.8825206425688065  1.0000
  N   N3        1.0  0.1385971765355904  0.9117449716101546  0.38252067725628786  1.0000
  N   N4        1.0  0.6385961459244455  0.588255679404142  0.11747996394637988  1.0000
  N   N5        1.0  0.6388617786223917  0.9604841306960449  0.24003805169426326  1.0000
  N   N6        1.0  0.1388619743605233  0.5395156514601567  0.2599624587432459  1.0000
  N   N7        1.0  0.3611386533014738  0.03951507343892759  0.7599606265700913  1.0000
  N   N8        1.0  0.8611402617477777  0.46048442096088127  0.7400363498492338  1.0000
  N   N9        1.0  0.5654796631613691  0.261021055486502  0.6334663478002582  1.0000
  N   N10       1.0  0.0654783732217936  0.23897646944757864  0.8665315569689581  1.0000
  N   N11       1.0  0.43451806247636426  0.7389816210465479  0.36653785455515475  1.0000
  N   N12       1.0  0.9345193524265694  0.7610209982404396  0.13346602684332953  1.0000
  O   O1        1.0  0.9994274244435671  0.673493786792811  0.5121882516002287  1.0000
  O   O2        1.0  0.4994284677728088  0.8265058886757044  0.9878115646560204  1.0000
  O   O3        1.0  0.0005712032915213  0.3265071536678263  0.4878123549149577  1.0000
  O   O4        1.0  0.5005746704259053  0.17349505178008676  0.012189041855464202  1.0000
  O   O5        1.0  0.7984790885320052  0.6698844232904902  0.47217219818804773  1.0000
  O   O6        1.0  0.29847813980978793  0.830115884308583  0.02782651286089788  1.0000
  O   O7        1.0  0.20152134338817967  0.3301173855823548  0.5278277048602078  1.0000
  O   O8        1.0  0.7015222921137222  0.16988418824054458  0.9721714619380036  1.0000
  O   O9        1.0  0.6899207349307588  0.3854373482312212  0.3573970154328663  1.0000
  O   O10       1.0  0.18992095816111734  0.1145627137620195  0.14260297592966958  1.0000
  O   O11       1.0  0.3100796969917923  0.6145618556514731  0.6426033304216148  1.0000
  O   O12       1.0  0.8100794737614405  0.8854364901206748  0.8573973699248185  1.0000
  O   O13       1.0  0.4854334686172733  0.36772245626009686  0.3624601049935094  1.0000
  O   O14       1.0  0.985433216727834  0.13227783868858717  0.1375403651929972  1.0000
  O   O15       1.0  0.5145660612119015  0.6322767474974282  0.6375410746567738  1.0000
  O   O16       1.0  0.014567215194013295  0.8677231020223956  0.862458573730585  1.0000
  O   O17       1.0  0.6383426071820394  0.2993703819487478  0.566403037399219  1.0000
  O   O18       1.0  0.13834129205832818  0.20063219584162786  0.9335971972798093  1.0000
  O   O19       1.0  0.3616560205601118  0.7006244804958683  0.4335966568086746  1.0000
  O   O20       1.0  0.861657335675751  0.7993696129070142  0.06640353956499466  1.0000
  O   O21       1.0  0.6031455839879952  0.24418109196068366  0.7307945492033667  1.0000
  O   O22       1.0  0.10314621579389177  0.2558198249078742  0.7692054826165915  1.0000
  O   O23       1.0  0.3968548479322394  0.7558189799577374  0.269207594570858  1.0000
  O   O24       1.0  0.8968542161273018  0.7441811156769655  0.2307942901020538  1.0000
  O   O25       1.0  0.4572249731079054  0.23897478197547875  0.6051445318496889  1.0000
  O   O26       1.0  0.9572222445357282  0.2610192961626793  0.8948515047992913  1.0000
  O   O27       1.0  0.5427691441402301  0.7610400497105089  0.39486733168870813  1.0000
  O   O28       1.0  0.042774579024246896  0.7389755669145828  0.10514402043477131  1.0000
