data_image0
_chemical_formula_structural       Mn3H20C22N2O14
_chemical_formula_sum              "Mn3 H20 C22 N2 O14"
_cell_length_a       5.965952216122659
_cell_length_b       9.377663829174068
_cell_length_c       11.811964300577321
_cell_angle_alpha    68.64336804019688
_cell_angle_beta     81.40693207343122
_cell_angle_gamma    76.69393301433527

_space_group_name_H-M_alt    "P 1"
_space_group_IT_number       1

loop_
  _space_group_symop_operation_xyz
  'x, y, z'

loop_
  _atom_site_type_symbol
  _atom_site_label
  _atom_site_symmetry_multiplicity
  _atom_site_fract_x
  _atom_site_fract_y
  _atom_site_fract_z
  _atom_site_occupancy
  Mn  Mn1       1.0  0.4992089023021151  0.500129140084148  0.5003503731686934  1.0000
  Mn  Mn2       1.0  0.9971682942369926  0.8430331202877426  0.6355427182337507  1.0000
  Mn  Mn3       1.0  0.0030123596331321826  0.15702606665835367  0.3641316809324167  1.0000
  H   H1        1.0  0.2562428556505338  0.5130810130007432  0.11667727257142249  1.0000
  H   H2        1.0  0.7431885894547818  0.4868871981976285  0.8834839465102746  1.0000
  H   H3        1.0  0.3401954555316636  0.7103947990564237  0.9192174885995996  1.0000
  H   H4        1.0  0.6595514534571832  0.2893308470077828  0.08086639609128099  1.0000
  H   H5        1.0  0.6345506373667081  0.9583261171296934  0.934054252272638  1.0000
  H   H6        1.0  0.36539236901104744  0.04182387735712469  0.06574873559925717  1.0000
  H   H7        1.0  0.556342557220077  0.7555000465317646  0.12907916979975204  1.0000
  H   H8        1.0  0.4432792349513051  0.2447561429955272  0.8707848372405492  1.0000
  H   H9        1.0  0.3587095603396692  0.9735561189511368  0.8527983946106089  1.0000
  H   H10       1.0  0.6418240577852572  0.025806586979563  0.14745672328899673  1.0000
  H   H11       1.0  0.2806278182659199  0.11309398729126488  0.7099056653923556  1.0000
  H   H12       1.0  0.7199799362734681  0.886787333734908  0.2905273980565611  1.0000
  H   H13       1.0  0.8991149128170974  0.19762231591530366  0.7990130339898585  1.0000
  H   H14       1.0  0.10156820711161174  0.8026643676864608  0.20048530122782887  1.0000
  H   H15       1.0  0.6997415498368014  0.0926826132076428  0.7827567023298058  1.0000
  H   H16       1.0  0.30068438967717975  0.9074144843285764  0.21722836114793856  1.0000
  H   H17       1.0  0.5507127119217259  0.728626471631422  0.5715707999215739  1.0000
  H   H18       1.0  0.4492708850853547  0.2714132909922355  0.4287681870745388  1.0000
  H   H19       1.0  0.7989840853938122  0.6290012372468894  0.5651981528778407  1.0000
  H   H20       1.0  0.2009853637307728  0.3711333712131477  0.43449527694639295  1.0000
  C   C1        1.0  0.8505860137578622  0.5112759772835319  0.26132629189110185  1.0000
  C   C2        1.0  0.14897333448557504  0.4891008756673116  0.73884396515529  1.0000
  C   C3        1.0  0.9009238587335562  0.6222846809500807  0.13717388674915304  1.0000
  C   C4        1.0  0.09862582131084707  0.3779218485043502  0.8628429901791677  1.0000
  C   C5        1.0  0.12033380398581531  0.6108951154543262  0.07517269769491007  1.0000
  C   C6        1.0  0.8792615227946146  0.3891411403401718  0.9249044804693156  1.0000
  C   C7        1.0  0.1672569264515076  0.7238069045397496  0.9639782036161151  1.0000
  C   C8        1.0  0.8325825039193688  0.27611418503200724  0.03608789039786587  1.0000
  C   C9        1.0  0.9942041813371459  0.8530035061582526  0.9101144590280724  1.0000
  C   C10       1.0  0.005814339320920687  0.1470194262323332  0.08991227427086557  1.0000
  C   C11       1.0  0.7727988807590123  0.8610483803685013  0.9715237336336526  1.0000
  C   C12       1.0  0.2270441788699102  0.13910327707512946  0.028376316700068585  1.0000
  C   C13       1.0  0.7277842933241063  0.7477472046618133  0.08189589649521165  1.0000
  C   C14       1.0  0.2718584801468539  0.2524798049607356  0.9180002446065672  1.0000
  C   C15       1.0  0.28015572754911483  0.9913493076544954  0.7691979133424098  1.0000
  C   C16       1.0  0.7203093025778031  0.0084821253692695  0.23098010110557246  1.0000
  C   C17       1.0  0.4403975236429503  0.892105576270964  0.7020803367060254  1.0000
  C   C18       1.0  0.5598096050183585  0.10793287627585359  0.2978789836682907  1.0000
  C   C19       1.0  0.8759461902272394  0.11444053001876853  0.7577888365749957  1.0000
  C   C20       1.0  0.12448159990598372  0.8855701553655706  0.2420706342457492  1.0000
  C   C21       1.0  0.8836279317432697  0.19193730113984492  0.6198614702920934  1.0000
  C   C22       1.0  0.11659680366942386  0.8075228244331355  0.3799861952236511  1.0000
  N   N1        1.0  0.04159539153759072  0.9672444265973468  0.7973915637587722  1.0000
  N   N2        1.0  0.9588303112365325  0.0327549415943196  0.20273983693183337  1.0000
  O   O1        1.0  0.009656973562080395  0.39058670240861193  0.3039752685102854  1.0000
  O   O2        1.0  0.9899790865481822  0.6097781205773101  0.6961266790011749  1.0000
  O   O3        1.0  0.6581980445547303  0.543490687479114  0.3169174830558816  1.0000
  O   O4        1.0  0.3416160185677057  0.45719056421380333  0.6832407275155673  1.0000
  O   O5        1.0  0.6512274929171938  0.8973609707785001  0.6957798882175439  1.0000
  O   O6        1.0  0.3490135352634666  0.10289139193154989  0.3038285066432564  1.0000
  O   O7        1.0  0.356333156059165  0.8141757986728991  0.6557120343572009  1.0000
  O   O8        1.0  0.6437986381318055  0.18563939772928958  0.34445125630267615  1.0000
  O   O9        1.0  0.9678785217989587  0.10262573162296458  0.5563846110893849  1.0000
  O   O10       1.0  0.033843998124126556  0.8966169433372285  0.4437665173281787  1.0000
  O   O11       1.0  0.8024360975686378  0.3346301415464978  0.5771694196094757  1.0000
  O   O12       1.0  0.19636871455256966  0.6645470402276672  0.42231894023381494  1.0000
  O   O13       1.0  0.6600409238805584  0.6763193012239626  0.5190939739231056  1.0000
  O   O14       1.0  0.3394680931812601  0.3237708791617067  0.4809672529340361  1.0000
