data_image0
_chemical_formula_structural       Cu2H24C24N6O12
_chemical_formula_sum              "Cu2 H24 C24 N6 O12"
_cell_length_a       7.0305746380233645
_cell_length_b       9.712615275398456
_cell_length_c       10.269616393783677
_cell_angle_alpha    71.83849426956631
_cell_angle_beta     74.77047560124565
_cell_angle_gamma    75.77709518084991

_space_group_name_H-M_alt    "P 1"
_space_group_IT_number       1

loop_
  _space_group_symop_operation_xyz
  'x, y, z'

loop_
  _atom_site_type_symbol
  _atom_site_label
  _atom_site_symmetry_multiplicity
  _atom_site_fract_x
  _atom_site_fract_y
  _atom_site_fract_z
  _atom_site_occupancy
  Cu  Cu1       1.0  0.40128728225645477  0.5700593162523333  0.8525691883082586  1.0000
  Cu  Cu2       1.0  0.5987087275509141  0.42993898883883475  0.14742796786339338  1.0000
  H   H1        1.0  0.22052830546682864  0.3892169086446203  0.08523645366387457  1.0000
  H   H2        1.0  0.779472259587422  0.6107803598576425  0.9147533315923437  1.0000
  H   H3        1.0  0.18314110670144854  0.5672121046344216  0.08047810959956792  1.0000
  H   H4        1.0  0.8168578844939348  0.4327796458664608  0.9195116416641653  1.0000
  H   H5        1.0  0.3605761423493021  0.24073842884784818  0.9613858696630402  1.0000
  H   H6        1.0  0.6394196057408552  0.7592609727872742  0.03861198824572658  1.0000
  H   H7        1.0  0.5326611211318381  0.0169919819667541  0.8748808263797868  1.0000
  H   H8        1.0  0.4673443226781801  0.9830097057675073  0.12511258784493154  1.0000
  H   H9        1.0  0.7687110651531341  0.049914469289888096  0.6419639127739599  1.0000
  H   H10       1.0  0.2312959123320653  0.9500927458225309  0.3580275925916893  1.0000
  H   H11       1.0  0.8121585828034269  0.30272864393406723  0.49962947352972975  1.0000
  H   H12       1.0  0.18784325572493546  0.6972818149203092  0.500367891948251  1.0000
  H   H13       1.0  0.8451239581045087  0.5198638444809943  0.39617178080663257  1.0000
  H   H14       1.0  0.1548732649014468  0.48014766502744544  0.6038300413094432  1.0000
  H   H15       1.0  0.8948625029653668  0.7783240599349597  0.30068771702499936  1.0000
  H   H16       1.0  0.1051274858298541  0.22169289923701294  0.6993167917566296  1.0000
  H   H17       1.0  0.7332826376037505  0.9584099872259486  0.44816046301651374  1.0000
  H   H18       1.0  0.2667094845896473  0.04159922581261811  0.5518537049919842  1.0000
  H   H19       1.0  0.5102928322726045  0.8664224810969259  0.6834709303243329  1.0000
  H   H20       1.0  0.48970259126213733  0.13357353590718196  0.3165425882449923  1.0000
  H   H21       1.0  0.0246152254863787  0.0022191937773499027  0.8455149701363212  1.0000
  H   H22       1.0  0.975383238195754  0.9977636881412979  0.1544852704587001  1.0000
  H   H23       1.0  0.2079516009773457  0.031206728852787097  0.916253083428053  1.0000
  H   H24       1.0  0.7920489378668382  0.9687739518326663  0.08374935918797641  1.0000
  C   C1        1.0  0.4653186853595556  0.249783985934215  0.861336571437647  1.0000
  C   C2        1.0  0.5346826663624927  0.7502165593662155  0.1386598959509371  1.0000
  C   C3        1.0  0.5593881947974567  0.1262924705261881  0.8121508357344353  1.0000
  C   C4        1.0  0.440613702490275  0.8737114078330208  0.18784065667716016  1.0000
  C   C5        1.0  0.6879867952951743  0.1444951491605622  0.6815557672330356  1.0000
  C   C6        1.0  0.3120146187418129  0.8555109129097788  0.3184390715043577  1.0000
  C   C7        1.0  0.7175486003614112  0.2857429075078599  0.6036999369084413  1.0000
  C   C8        1.0  0.2824543453113506  0.7142631511055698  0.39629753589840533  1.0000
  C   C9        1.0  0.6241560627035697  0.4043387867667009  0.660602831898693  1.0000
  C   C10       1.0  0.3758448258595736  0.5956639375564662  0.3393979532414662  1.0000
  C   C11       1.0  0.6561515228191727  0.5561032883798945  0.5906576447790568  1.0000
  C   C12       1.0  0.3438435606703862  0.4438993747567681  0.4093481468957377  1.0000
  C   C13       1.0  0.7754621884820737  0.5989767049952873  0.45785209940318333  1.0000
  C   C14       1.0  0.2245344688663521  0.401031476142748  0.5421537262640966  1.0000
  C   C15       1.0  0.8022971186870367  0.7449945345308535  0.40458241974751974  1.0000
  C   C16       1.0  0.1976918598674473  0.2550147041750677  0.5954225944189488  1.0000
  C   C17       1.0  0.7101549164202653  0.8446376027978247  0.4850378617010092  1.0000
  C   C18       1.0  0.28984153948647423  0.15537166081901435  0.5149715799807238  1.0000
  C   C19       1.0  0.5892101422470548  0.7953255050969759  0.6152255801306622  1.0000
  C   C20       1.0  0.4107938698631558  0.20467719824722508  0.38478338742574175  1.0000
  C   C21       1.0  0.1579314759529639  0.8096465296177514  0.9776755210935094  1.0000
  C   C22       1.0  0.842062676147073  0.19034182786931103  0.022325874325531524  1.0000
  C   C23       1.0  0.08040101849001505  0.974458250496433  0.9428130026385659  1.0000
  C   C24       1.0  0.9196009314388719  0.025522454862425496  0.05718624549223954  1.0000
  N   N1        1.0  0.4995611204067386  0.38533802388900545  0.7881322037073559  1.0000
  N   N2        1.0  0.5004373689622031  0.6146624814413925  0.21186870980010747  1.0000
  N   N3        1.0  0.563575025263944  0.6548084966287038  0.6659656367767253  1.0000
  N   N4        1.0  0.436425621673827  0.34519531955002947  0.33403682152632536  1.0000
  N   N5        1.0  0.9938848412655832  0.757426917112923  0.738153693318523  1.0000
  N   N6        1.0  0.006122518487892122  0.24257917332523246  0.2618429388646746  1.0000
  O   O1        1.0  0.3043789725269336  0.7687408548457952  0.8831676958674918  1.0000
  O   O2        1.0  0.6956200784207244  0.23125191718487767  0.11683829994582595  1.0000
  O   O3        1.0  0.2821075018410966  0.4807428251269385  0.048861906356059116  1.0000
  O   O4        1.0  0.7179037630555315  0.5192478574353246  0.9511365586168523  1.0000
  O   O5        1.0  0.07984154404913123  0.7249165936016766  0.08891959466269844  1.0000
  O   O6        1.0  0.9201536734954702  0.2750608065911919  0.91107117788993  1.0000
  O   O7        1.0  0.8382887886975399  0.7765486124147358  0.8341538734314041  1.0000
  O   O8        1.0  0.16171109370367992  0.22345745311250906  0.1658383312365288  1.0000
  O   O9        1.0  0.04872656150750034  0.8664449639499098  0.6439699040048621  1.0000
  O   O10       1.0  0.9512848079271665  0.1335567568405622  0.3560243322398903  1.0000
  O   O11       1.0  0.08830555336410846  0.6272808128250061  0.7409211436595058  1.0000
  O   O12       1.0  0.91170105938199  0.37272302703316035  0.2590840795151337  1.0000
