data_image0
_chemical_formula_structural       Cu4H56C60S8I4F8
_chemical_formula_sum              "Cu4 H56 C60 S8 I4 F8"
_cell_length_a       7.402009589054983
_cell_length_b       15.656997844071743
_cell_length_c       15.951710864754242
_cell_angle_alpha    118.59244258970134
_cell_angle_beta     89.99964788782616
_cell_angle_gamma    89.99993946917779

_space_group_name_H-M_alt    "P 1"
_space_group_IT_number       1

loop_
  _space_group_symop_operation_xyz
  'x, y, z'

loop_
  _atom_site_type_symbol
  _atom_site_label
  _atom_site_symmetry_multiplicity
  _atom_site_fract_x
  _atom_site_fract_y
  _atom_site_fract_z
  _atom_site_occupancy
  Cu  Cu1       1.0  0.027240855725068503  0.5244510234841684  0.5905840439886989  1.0000
  Cu  Cu2       1.0  0.5272395934922756  0.9755498694269348  0.40941541345151233  1.0000
  Cu  Cu3       1.0  0.972759659115262  0.4755506870216166  0.4094186890469872  1.0000
  Cu  Cu4       1.0  0.4727622723766274  0.024448167326696094  0.5905812284432131  1.0000
  H   H1        1.0  0.5727064390612426  0.4951101260104593  0.5649646995263071  1.0000
  H   H2        1.0  0.07270845005478321  0.0048853554899821  0.4350335481814725  1.0000
  H   H3        1.0  0.42728867184479213  0.5048937508616475  0.4350371569003358  1.0000
  H   H4        1.0  0.9272934158045772  0.9951119696689972  0.5649646446151311  1.0000
  H   H5        1.0  0.6856530240030949  0.38775113194643035  0.546817497471267  1.0000
  H   H6        1.0  0.18565862731934152  0.11224262768696039  0.4531815089444678  1.0000
  H   H7        1.0  0.31434208692617455  0.6122490974882165  0.4531814145552461  1.0000
  H   H8        1.0  0.814345940517306  0.8877546869434381  0.5468154251514507  1.0000
  H   H9        1.0  0.15333792146326186  0.778675729235438  0.7207605655716736  1.0000
  H   H10       1.0  0.6533294477216104  0.7213306721848411  0.27924171033138395  1.0000
  H   H11       1.0  0.846672050201029  0.22133330244643187  0.2792512029833389  1.0000
  H   H12       1.0  0.346662961275662  0.2786666161477811  0.720752077050925  1.0000
  H   H13       1.0  0.7821878729845367  0.5937873201176912  0.8846902392305085  1.0000
  H   H14       1.0  0.28219329369702717  0.9062122016009724  0.11530722456239333  1.0000
  H   H15       1.0  0.21780858893158955  0.40621435355497226  0.11530808837999022  1.0000
  H   H16       1.0  0.717822082001078  0.09378657830599481  0.8846916424889599  1.0000
  H   H17       1.0  0.4553529924655706  0.557067023042741  0.7867094300678875  1.0000
  H   H18       1.0  0.9553543940137957  0.9429357124099198  0.21329028047563292  1.0000
  H   H19       1.0  0.544646171419501  0.44293465062653326  0.21328889753716862  1.0000
  H   H20       1.0  0.044648822808582594  0.05706381068252141  0.7867108117840547  1.0000
  H   H21       1.0  0.2515545778201655  0.48663787855254276  0.7531286620440272  1.0000
  H   H22       1.0  0.7515591183420867  0.013367338356907501  0.2468735850786602  1.0000
  H   H23       1.0  0.7484486389670623  0.5133682015071698  0.24687672317971032  1.0000
  H   H24       1.0  0.2484481514766017  0.9866277888601401  0.7531217082412598  1.0000
  H   H25       1.0  0.8977368746307732  0.3308783382372055  0.6230559188013276  1.0000
  H   H26       1.0  0.397737966720726  0.1691178102726951  0.37694484042700094  1.0000
  H   H27       1.0  0.1022636402405439  0.6691218859280711  0.3769423638666683  1.0000
  H   H28       1.0  0.6022571441841081  0.8308802791153982  0.6230580949575428  1.0000
  H   H29       1.0  0.5130963324024194  0.3815349407787778  0.6760537333501093  1.0000
  H   H30       1.0  0.0131022831189114  0.11846653012592159  0.3239499690286821  1.0000
  H   H31       1.0  0.48690012950119416  0.6184667486816833  0.32394648230325634  1.0000
  H   H32       1.0  0.9868995827416428  0.8815315171529079  0.6760479315612857  1.0000
  H   H33       1.0  0.36570044072732333  0.38294308980054836  0.5902007823519996  1.0000
  H   H34       1.0  0.8657053131057213  0.11705750850021697  0.409802758132436  1.0000
  H   H35       1.0  0.634293319187094  0.6170615197183053  0.4098020405659641  1.0000
  H   H36       1.0  0.134295201773341  0.882939811397854  0.5901948053192642  1.0000
  H   H37       1.0  0.04470723230269871  0.757431061919867  0.01804651467315208  1.0000
  H   H38       1.0  0.5447258871486228  0.7425632355154265  0.9819492087409574  1.0000
  H   H39       1.0  0.9552838256564584  0.24256412320609402  0.9819557015032531  1.0000
  H   H40       1.0  0.45528138267901136  0.2574347749184368  0.018044286404773412  1.0000
  H   H41       1.0  0.9618256935961754  0.2442810401734263  0.7170332164506805  1.0000
  H   H42       1.0  0.4618413621042947  0.2557164236169882  0.28297047621599364  1.0000
  H   H43       1.0  0.03817076830743099  0.755720649287035  0.2829669992026853  1.0000
  H   H44       1.0  0.5381605037056049  0.7442838584351958  0.7170347292731167  1.0000
  H   H45       1.0  0.18970418274013673  0.6199440382634619  0.8797483716873061  1.0000
  H   H46       1.0  0.689708296248597  0.8800549824459694  0.12024849822325497  1.0000
  H   H47       1.0  0.8102895771927409  0.38005403533851734  0.12025267565709194  1.0000
  H   H48       1.0  0.3103097814625428  0.11994012370714559  0.8797442776844095  1.0000
  H   H49       1.0  0.0063362266205544  0.9168568064386307  0.8616715425356961  1.0000
  H   H50       1.0  0.5063326042035996  0.5831470799384705  0.13833312378068296  1.0000
  H   H51       1.0  0.9936588842330282  0.083145689344974  0.13833845047568621  1.0000
  H   H52       1.0  0.49364494393531533  0.4168553106151264  0.8616642823136548  1.0000
  H   H53       1.0  0.8508051960103913  0.5071696261039804  0.9780487219091898  1.0000
  H   H54       1.0  0.35081707900014447  0.9928319216831485  0.021951364887066116  1.0000
  H   H55       1.0  0.1491912658926253  0.4928342349786376  0.021951246471864746  1.0000
  H   H56       1.0  0.6492023496370649  0.007168323508850002  0.978049435133315  1.0000
  C   C1        1.0  0.617491380501157  0.45362804567034226  0.6006580473983407  1.0000
  C   C2        1.0  0.1174964809353938  0.046366596275639396  0.3993396827300729  1.0000
  C   C3        1.0  0.3825037303989163  0.5463772859666705  0.39934448331025885  1.0000
  C   C4        1.0  0.8825067359406091  0.9536248992968338  0.600654554240734  1.0000
  C   C5        1.0  0.0180798557220783  0.8425917147914888  0.9455197694604894  1.0000
  C   C6        1.0  0.51808394605294  0.6574063073154972  0.05448026435625056  1.0000
  C   C7        1.0  0.9819152551672589  0.1574071177668515  0.05448539110788892  1.0000
  C   C8        1.0  0.4819030589873918  0.34259462319875683  0.9455158380894633  1.0000
  C   C9        1.0  0.18025591824193302  0.68983756442924  0.7902353491836538  1.0000
  C   C10       1.0  0.6802549370201092  0.8101658337201627  0.20976232295350894  1.0000
  C   C11       1.0  0.8197405436378347  0.310164878726674  0.20976835034878868  1.0000
  C   C12       1.0  0.31974827986603316  0.1898292671889621  0.790229823636466  1.0000
  C   C13       1.0  0.1301627064568294  0.774229855402389  0.7860098434418605  1.0000
  C   C14       1.0  0.6301550875281592  0.725775892466693  0.213994076730998  1.0000
  C   C15       1.0  0.8698553711101055  0.22577918153192658  0.21400255444444136  1.0000
  C   C16       1.0  0.36984002342792616  0.274222855890052  0.7860010142754422  1.0000
  C   C17       1.0  0.8244010541776845  0.5178495807640928  0.8480574984880038  1.0000
  C   C18       1.0  0.32440043004937985  0.9821498404978187  0.15194042459380364  1.0000
  C   C19       1.0  0.1756035136554033  0.4821556982350756  0.15193873872533467  1.0000
  C   C20       1.0  0.6756068397293833  0.0178489552070999  0.848060330516738  1.0000
  C   C21       1.0  0.36380396947046734  0.5134091411634855  0.7270754943411292  1.0000
  C   C22       1.0  0.8638071937787187  0.9865931067228642  0.27292550659096554  1.0000
  C   C23       1.0  0.6362019492886832  0.4865962115103883  0.2729295537361836  1.0000
  C   C24       1.0  0.136201427027423  0.0134012931100429  0.7270694495852583  1.0000
  C   C25       1.0  0.8370591394366829  0.4681547722903758  0.7482496517959023  1.0000
  C   C26       1.0  0.3370540650201974  0.0318451493248588  0.2517511495688397  1.0000
  C   C27       1.0  0.16295893818031706  0.5318542014927345  0.2517551939189532  1.0000
  C   C28       1.0  0.6629491518254228  0.9681507263301228  0.748246998290711  1.0000
  C   C29       1.0  0.8878646769254532  0.369826083423078  0.7007277875273064  1.0000
  C   C30       1.0  0.38787228131850787  0.13017298880912878  0.2992731013302575  1.0000
  C   C31       1.0  0.11213989088080471  0.6301756112898288  0.2992730574573487  1.0000
  C   C32       1.0  0.6121309354967153  0.8698272669283681  0.7007289574180293  1.0000
  C   C33       1.0  0.46196847093712284  0.4278961229495268  0.6468453349573624  1.0000
  C   C34       1.0  0.96197148363877  0.07210132471133329  0.353156469116712  1.0000
  C   C35       1.0  0.5380306929163652  0.5721092086824058  0.3531571957430729  1.0000
  C   C36       1.0  0.038030382237266694  0.9278909140330784  0.646839993040658  1.0000
  C   C37       1.0  0.06955104882668188  0.7612645648484386  0.9527200687265635  1.0000
  C   C38       1.0  0.5695726304130062  0.7387296650968906  0.04727492524182962  1.0000
  C   C39       1.0  0.9304251483235647  0.23872770024112105  0.04727954022062875  1.0000
  C   C40       1.0  0.4304332884188399  0.2612690832463187  0.9527201657428396  1.0000
  C   C41       1.0  0.9256230490542167  0.3211734089493277  0.7524991443847286  1.0000
  C   C42       1.0  0.42563799398961083  0.17882341813250238  0.2475043569977303  1.0000
  C   C43       1.0  0.07436395595452441  0.6788261141634137  0.24750194790761534  1.0000
  C   C44       1.0  0.5743638718286378  0.8211768533944905  0.7524995897961377  1.0000
  C   C45       1.0  0.15135510918715062  0.6840127845984014  0.8741060209593317  1.0000
  C   C46       1.0  0.651371438343361  0.8159848826423256  0.1258909584952478  1.0000
  C   C47       1.0  0.848622438933873  0.31598383952157855  0.1258949814833912  1.0000
  C   C48       1.0  0.3486398844323162  0.1840124109292063  0.8741034581965793  1.0000
  C   C49       1.0  0.047658841492605596  0.8512997684891064  0.8638437286424295  1.0000
  C   C50       1.0  0.5476470073834606  0.6487054586415654  0.13616018679427117  1.0000
  C   C51       1.0  0.9523592360820742  0.14870636417799693  0.13616795002757706  1.0000
  C   C52       1.0  0.4523386466682311  0.35129547713697923  0.8638365450017819  1.0000
  C   C53       1.0  0.9139282192452924  0.372989783291814  0.8514459686308344  1.0000
  C   C54       1.0  0.41394052771683215  0.1270099510383389  0.14855515235192485  1.0000
  C   C55       1.0  0.08605878577834862  0.6270111682728373  0.148552651205357  1.0000
  C   C56       1.0  0.5860613381109444  0.8729910320833055  0.8514472435400581  1.0000
  C   C57       1.0  0.8641453664556735  0.4703237620002696  0.900714755777493  1.0000
  C   C58       1.0  0.36415852705195567  0.029674647512393893  0.09928652083724641  1.0000
  C   C59       1.0  0.13584569150707887  0.5296786548494055  0.09928579702774001  1.0000
  C   C60       1.0  0.6358568486211098  0.9703241639701687  0.9007161222998266  1.0000
  S   S1        1.0  0.7851425015175196  0.533703613793783  0.6860873235583755  1.0000
  S   S2        1.0  0.2851424673078427  0.9662922688819008  0.313909071984469  1.0000
  S   S3        1.0  0.21485531137890493  0.46629806513978167  0.3139116333970265  1.0000
  S   S4        1.0  0.7148512926792563  0.0337006709421175  0.6860845805921091  1.0000
  S   S5        1.0  0.2742487565982827  0.5942600577989765  0.6848397843314659  1.0000
  S   S6        1.0  0.7742515876263242  0.9057409490973071  0.31515964442942146  1.0000
  S   S7        1.0  0.7257450033083757  0.40574239062292616  0.315164544554044  1.0000
  S   S8        1.0  0.2257529802246196  0.09425490024298  0.6848353566892983  1.0000
  I   I1        1.0  0.0786414554632913  0.34525457704188506  0.46057493284904905  1.0000
  I   I2        1.0  0.5786391302499183  0.15474523284348857  0.5394227964115147  1.0000
  I   I3        1.0  0.9213604103752147  0.6547478397942613  0.5394256199344131  1.0000
  I   I4        1.0  0.4213667885884789  0.8452498891126581  0.460571867563502  1.0000
  F   F1        1.0  0.9345937535871515  0.9174020087105321  0.022560254974372734  1.0000
  F   F2        1.0  0.43461003899805917  0.5825949859703597  0.9774399887854559  1.0000
  F   F3        1.0  0.0653891984371811  0.0825939353836276  0.9774460744450696  1.0000
  F   F4        1.0  0.5653742640602316  0.4174081319572238  0.022557754436256516  1.0000
  F   F5        1.0  0.9509624645528375  0.32575723186267413  0.9028681102022278  1.0000
  F   F6        1.0  0.4509875157882419  0.17424099176903243  0.09713659270055791  1.0000
  F   F7        1.0  0.0490326463633224  0.6742451849819276  0.09713244259484115  1.0000
  F   F8        1.0  0.5490305618364885  0.825760012382709  0.9028683205492529  1.0000
