data_image0
_chemical_formula_structural       CuH20C26N6O14
_chemical_formula_sum              "Cu1 H20 C26 N6 O14"
_cell_length_a       7.664487347132404
_cell_length_b       8.218114338874646
_cell_length_c       12.344169336113536
_cell_angle_alpha    87.2506463482876
_cell_angle_beta     71.65658390773187
_cell_angle_gamma    65.9398344440253

_space_group_name_H-M_alt    "P 1"
_space_group_IT_number       1

loop_
  _space_group_symop_operation_xyz
  'x, y, z'

loop_
  _atom_site_type_symbol
  _atom_site_label
  _atom_site_symmetry_multiplicity
  _atom_site_fract_x
  _atom_site_fract_y
  _atom_site_fract_z
  _atom_site_occupancy
  Cu  Cu1       1.0  0.9999970434470169  0.9999988474180695  5.925558924286459e-07  1.0000
  H   H1        1.0  0.5975775471969555  0.4518145819351531  0.767070970513828  1.0000
  H   H2        1.0  0.4024159872571713  0.5481856290132042  0.23293141794996336  1.0000
  H   H3        1.0  0.6799173946685284  0.8277848106479054  0.09506105539372811  1.0000
  H   H4        1.0  0.320072621507954  0.1722260739381767  0.9049343773251339  1.0000
  H   H5        1.0  0.3595221198277868  0.9281490502559462  0.07271932558408882  1.0000
  H   H6        1.0  0.6404790784249527  0.07185245588466671  0.9272791106332648  1.0000
  H   H7        1.0  0.837417226980044  0.4533146755288086  0.8678004045301222  1.0000
  H   H8        1.0  0.16257894381156024  0.5466828438872257  0.1321991312596111  1.0000
  H   H9        1.0  0.18366806669096267  0.8711228026664345  0.529824217744526  1.0000
  H   H10       1.0  0.816338343752548  0.1288733479089288  0.4701758148839374  1.0000
  H   H11       1.0  0.2525320031421216  0.6968714419453402  0.8223809871152525  1.0000
  H   H12       1.0  0.7474642991299375  0.3031287515615091  0.17761924713418867  1.0000
  H   H13       1.0  0.8178308096910452  0.5904020548931256  0.0738153518583573  1.0000
  H   H14       1.0  0.18215790701367499  0.4096115338929493  0.9261875355734477  1.0000
  H   H15       1.0  0.12602550285358652  0.30528635909298885  0.7409137419365522  1.0000
  H   H16       1.0  0.8739743047697245  0.6947151588238681  0.2590865826945503  1.0000
  H   H17       1.0  0.36164059804617904  0.2856495494603947  0.37266626666529856  1.0000
  H   H18       1.0  0.6383578256681659  0.714351977177209  0.6273351350729754  1.0000
  H   H19       1.0  0.9079671435729039  0.7860196299903136  0.8816284104895404  1.0000
  H   H20       1.0  0.09204202124761449  0.21397650925452177  0.1183710905377353  1.0000
  C   C1        1.0  0.6196626241535127  0.6971348684976278  0.9736945015675077  1.0000
  C   C2        1.0  0.38033934523487267  0.30286796421705015  0.026302122712948503  1.0000
  C   C3        1.0  0.3587389486251735  0.6924652731513629  0.8647512002010274  1.0000
  C   C4        1.0  0.6412547374708097  0.30753760272134656  0.13524945280272502  1.0000
  C   C5        1.0  0.13427255755306788  0.08551657341331517  0.647289865417342  1.0000
  C   C6        1.0  0.8657365938265186  0.9144795719425005  0.35271125822308863  1.0000
  C   C7        1.0  0.1953994294616237  0.9972183922052194  0.5388767669052115  1.0000
  C   C8        1.0  0.8046057285533763  0.002780441181712899  0.4611250412901242  1.0000
  C   C9        1.0  0.16276070705388432  0.2410276321259416  0.6569587884299609  1.0000
  C   C10       1.0  0.8372390938489638  0.7589738888464053  0.34304234750772633  1.0000
  C   C11       1.0  0.04523658334221639  0.012234629947926097  0.7554566646887011  1.0000
  C   C12       1.0  0.9547656820948656  0.9877615437342016  0.2445457879546993  1.0000
  C   C13       1.0  0.4196277929577974  0.8233251983940306  0.003196815762223077  1.0000
  C   C14       1.0  0.5803734120154045  0.1766763046910994  0.9968008091485461  1.0000
  C   C15       1.0  0.6853049181998683  0.5591780354466848  0.8885306561173608  1.0000
  C   C16       1.0  0.3146949163052993  0.44082347024821184  0.1114664232874247  1.0000
  C   C17       1.0  0.278473437690252  0.0706139716909959  0.44257084192358326  1.0000
  C   C18       1.0  0.7215349492741577  0.9293808440352718  0.5574312823471674  1.0000
  C   C19       1.0  0.5536726269979084  0.557122594772494  0.8332131895790911  1.0000
  C   C20       1.0  0.4463256786769133  0.44287625166330696  0.1667858910863202  1.0000
  C   C21       1.0  0.24046485686449157  0.31183782366365154  0.5584638582560899  1.0000
  C   C22       1.0  0.7595341930641123  0.6881623615681605  0.44153665569874795  1.0000
  C   C23       1.0  0.2986644540776806  0.23036201631184378  0.4491722062650467  1.0000
  C   C24       1.0  0.7013387274164199  0.7696381519241838  0.5508275102880092  1.0000
  C   C25       1.0  0.760338968539564  0.7117378218786286  0.030470814727138373  1.0000
  C   C26       1.0  0.2396556134520438  0.2882690577144586  0.9695295361060161  1.0000
  N   N1        1.0  0.2919582103987891  0.8209622335880482  0.9499758600812099  1.0000
  N   N2        1.0  0.7080379469518902  0.17903529193895903  0.0500252983216782  1.0000
  N   N3        1.0  0.3540366912092026  0.9742370420951898  0.32826821139689605  1.0000
  N   N4        1.0  0.6459671030582328  0.025761790846033295  0.6717322399858786  1.0000
  N   N5        1.0  0.26767894274180987  0.476299563309034  0.5711928498671881  1.0000
  N   N6        1.0  0.7323161205426698  0.5237033068984117  0.4288075373359775  1.0000
  O   O1        1.0  0.0391820335365338  0.08704259027324207  0.8466503258491896  1.0000
  O   O2        1.0  0.9608167198288341  0.9129522620543682  0.15335284771913402  1.0000
  O   O3        1.0  0.4262312024219381  0.0439721787808978  0.24498839726607002  1.0000
  O   O4        1.0  0.5737673662137863  0.9560320158365556  0.7550120803187498  1.0000
  O   O5        1.0  0.9887982335770639  0.8908842652296582  0.7490017169360216  1.0000
  O   O6        1.0  0.01120620706601018  0.10911321713930991  0.2509954127435777  1.0000
  O   O7        1.0  0.3435223204091428  0.8287303841236092  0.32259116597155924  1.0000
  O   O8        1.0  0.656484861170007  0.17126709302581128  0.6774070547200141  1.0000
  O   O9        1.0  0.28050155107431607  0.5125521900724266  0.6635835963652356  1.0000
  O   O10       1.0  0.7194967478800364  0.48744665941887166  0.3364162956067531  1.0000
  O   O11       1.0  0.2767141862248934  0.5672801158568673  0.48793524367251  1.0000
  O   O12       1.0  0.7232779912021311  0.4327200915902835  0.5120649766721359  1.0000
  O   O13       1.0  0.9359817720440585  0.7224899538607658  0.9486985108927757  1.0000
  O   O14       1.0  0.0640175341249858  0.2775155826081813  0.051304211288055505  1.0000
