data_image0
_chemical_formula_structural       Zn4H48C56N8O20
_chemical_formula_sum              "Zn4 H48 C56 N8 O20"
_cell_length_a       5.3413424024114455
_cell_length_b       14.717911913
_cell_length_c       16.449
_cell_angle_alpha    90.0
_cell_angle_beta     93.45022005512212
_cell_angle_gamma    90.0

_space_group_name_H-M_alt    "P 1"
_space_group_IT_number       1

loop_
  _space_group_symop_operation_xyz
  'x, y, z'

loop_
  _atom_site_type_symbol
  _atom_site_label
  _atom_site_symmetry_multiplicity
  _atom_site_fract_x
  _atom_site_fract_y
  _atom_site_fract_z
  _atom_site_occupancy
  Zn  Zn1       1.0  0.6938738205981494  0.4372875743545706  0.7711134443283783  1.0000
  Zn  Zn2       1.0  0.3061091083615679  0.9372885285320436  0.7288849453932615  1.0000
  Zn  Zn3       1.0  0.3061147351258953  0.5627129751119639  0.2288868791714691  1.0000
  Zn  Zn4       1.0  0.6938944520673402  0.0627127003786967  0.2711138475118632  1.0000
  H   H1        1.0  0.78911993590458  0.7117436265362684  0.786422385207402  1.0000
  H   H2        1.0  0.2108873757005369  0.2117453901356257  0.7135789127625713  1.0000
  H   H3        1.0  0.2108967536410802  0.2882542051534287  0.2135784880881033  1.0000
  H   H4        1.0  0.7891049311997164  0.7882497237772412  0.286421484043359  1.0000
  H   H5        1.0  0.2676933127310974  0.7232425403088527  0.004616070744972899  1.0000
  H   H6        1.0  0.7323027453453719  0.2232388683545423  0.4953843993670475  1.0000
  H   H7        1.0  0.7323196256383467  0.2767580091576818  0.9953816895459795  1.0000
  H   H8        1.0  0.2676951883192089  0.776758283890949  0.5046161073980215  1.0000
  H   H9        1.0  0.0159781350930572  0.5962374317683583  0.5154657520546877  1.0000
  H   H10       1.0  0.9840160473953077  0.0962378364792968  0.9845340734646014  1.0000
  H   H11       1.0  0.9840066694547716  0.40375904103292726  0.4845320663803037  1.0000
  H   H12       1.0  0.0159875130335934  0.9037627129872305  0.0154683670786753  1.0000
  H   H13       1.0  0.6479012804800774  0.5369036074349793  0.9898441983530333  1.0000
  H   H14       1.0  0.352094777596399  0.0369033327017192  0.5101544479399108  1.0000
  H   H15       1.0  0.3521097823012624  0.4630955831431365  0.0101541332245674  1.0000
  H   H16       1.0  0.6478975293038616  0.9630938195437722  0.48984412504694314  1.0000
  H   H17       1.0  0.4071639200388404  0.7276324293353582  0.6309856182705645  1.0000
  H   H18       1.0  0.5928358892138448  0.2276280779368491  0.8690118854490763  1.0000
  H   H19       1.0  0.5928302624495245  0.2723701584637936  0.3690135993090209  1.0000
  H   H20       1.0  0.407162044450736  0.7723717920854796  0.13098740543659906  1.0000
  H   H21       1.0  0.22770014750170725  0.5733517125174785  0.7437962176858335  1.0000
  H   H22       1.0  0.7723015373390892  0.0733555144494602  0.7562037544456288  1.0000
  H   H23       1.0  0.7723015373390892  0.4266508752816733  0.2562049703250082  1.0000
  H   H24       1.0  0.2276907695611641  0.9266450350170672  0.24379603442061182  1.0000
  H   H25       1.0  0.3479909908158376  0.6819357296964697  0.7701824643447495  1.0000
  H   H26       1.0  0.6519919381438797  0.1819354549632024  0.7298177491959663  1.0000
  H   H27       1.0  0.6520125696130705  0.3180675375468951  0.2298187603191408  1.0000
  H   H28       1.0  0.3479984931682694  0.8180637356149134  0.2701789633187701  1.0000
  H   H29       1.0  0.0347058823526112  0.483254692788158  0.6297426087407345  1.0000
  H   H30       1.0  0.9652789221952175  0.9832556469656311  0.8702552096942497  1.0000
  H   H31       1.0  0.9652770466071061  0.5167451772341636  0.3702539571618217  1.0000
  H   H32       1.0  0.0347227626455862  0.0167449025008963  0.12974658625628877  1.0000
  H   H33       1.0  0.6823764654953877  0.7173198251495734  0.5135861895833784  1.0000
  H   H34       1.0  0.3176289705216249  0.2173181915278946  0.9864138558541667  1.0000
  H   H35       1.0  0.3176177169929773  0.2826814037611669  0.4864112041771307  1.0000
  H   H36       1.0  0.682378341083492  0.7826830373828457  0.013588050055503202  1.0000
  H   H37       1.0  0.3846024706862963  0.5328765416154297  0.8650562392607242  1.0000
  H   H38       1.0  0.6153992141545004  0.0328749079937509  0.6349443408104279  1.0000
  H   H39       1.0  0.6154048409188277  0.4671233284068919  0.1349438428298697  1.0000
  H   H40       1.0  0.3845949683338645  0.9671215648075346  0.36505670058824086  1.0000
  H   H41       1.0  0.2084922496864721  0.3727954095956818  0.7244823165644975  1.0000
  H   H42       1.0  0.7915019328018928  0.8727990815499851  0.775516901015088  1.0000
  H   H43       1.0  0.7915056839781086  0.6272017426498095  0.2755187981402543  1.0000
  H   H44       1.0  0.2084997520389038  0.1272035062491668  0.2244824631766775  1.0000
  H   H45       1.0  0.4324149627384343  0.3735122232348971  0.6605075905743405  1.0000
  H   H46       1.0  0.567581095338042  0.8735233690754853  0.8394910557186037  1.0000
  H   H47       1.0  0.5675829709261535  0.6264835701221826  0.3394929161907285  1.0000
  H   H48       1.0  0.4324224650908661  0.1264826159447097  0.1605089530659001  1.0000
  C   C1        1.0  0.0321663360542175  0.595191087688363  0.0910985370878663  1.0000
  C   C2        1.0  0.967839099962795  0.0951894540666842  0.40890272422906554  1.0000
  C   C3        1.0  0.96785598025577  0.4048094617781643  0.9089006223476943  1.0000
  C   C4        1.0  0.032143828996922294  0.9048104159556374  0.5910980972513329  1.0000
  C   C5        1.0  0.1846591515966196  0.8020234167574856  0.8582010152362828  1.0000
  C   C6        1.0  0.8153406576560654  0.3020197448031823  0.6418001361215175  1.0000
  C   C7        1.0  0.8153387820679611  0.19797781215324758  0.141797667709703  1.0000
  C   C8        1.0  0.1846629027728355  0.6979774074423091  0.35820291236144913  1.0000
  C   C9        1.0  0.9614508468665476  0.627466725890848  0.006329710819770199  1.0000
  C   C10       1.0  0.0385527135623605  0.1274671306017865  0.49367151384412017  1.0000
  C   C11       1.0  0.0385695938553354  0.3725317852430621  0.9936688040230524  1.0000
  C   C12       1.0  0.9614339665735727  0.872529342199492  0.5063299888820652  1.0000
  C   C13       1.0  0.8330949746875119  0.6873305167062966  0.8480404612145591  1.0000
  C   C14       1.0  0.1669142125057164  0.1873329597498596  0.6519572257703034  1.0000
  C   C15       1.0  0.1669142125057164  0.3126645972065774  0.15195600989092384  1.0000
  C   C16       1.0  0.8330837211588643  0.8126621541630072  0.3480432809947587  1.0000
  C   C17       1.0  0.6969422827430307  0.6159895543329199  0.8808347862998006  1.0000
  C   C18       1.0  0.3030650288620933  0.1159899590438584  0.6191640799114069  1.0000
  C   C19       1.0  0.3030687800383092  0.3840082773567843  0.1191641532174899  1.0000
  C   C20       1.0  0.6969272780381672  0.8840044754248026  0.3808357089548338  1.0000
  C   C21       1.0  0.10487163347729479  0.6948118768782336  0.9711885757012341  1.0000
  C   C22       1.0  0.8951338025397177  0.1948136404775909  0.5288114697363113  1.0000
  C   C23       1.0  0.8951506828326927  0.30518459592305186  0.028808759915243305  1.0000
  C   C24       1.0  0.1048603799486472  0.8051848706563192  0.47118957166235736  1.0000
  C   C25       1.0  0.0349834693926141  0.7269482290181202  0.8932564533559955  1.0000
  C   C26       1.0  0.9650275933887258  0.2269493131732645  0.6067424861613022  1.0000
  C   C27       1.0  0.9650313445649416  0.2730489232273712  0.1067401277086191  1.0000
  C   C28       1.0  0.0349759670401824  0.7730498774048513  0.3932593464422852  1.0000
  C   C29       1.0  0.8832013109958722  0.6002379992638041  0.56305636684408  1.0000
  C   C30       1.0  0.11679849825681289  0.1002363656421181  0.9369441765740234  1.0000
  C   C31       1.0  0.116794747080597  0.3997645885353549  0.4369447112076302  1.0000
  C   C32       1.0  0.8832013109958722  0.8997655427128279  0.06305636684408  1.0000
  C   C33       1.0  0.7562877660719849  0.589674680165345  0.9618249100927727  1.0000
  C   C34       1.0  0.2437176699450347  0.0896750848762906  0.5381751353447728  1.0000
  C   C35       1.0  0.2437345502380026  0.41032043374752186  0.0381730334634014  1.0000
  C   C36       1.0  0.7562708857790098  0.9103200290365834  0.46182397227568833  1.0000
  C   C37       1.0  0.5443931995573834  0.6729901672567493  0.627453015356835  1.0000
  C   C38       1.0  0.4556047341071973  0.1729878541908647  0.8725468834685375  1.0000
  C   C39       1.0  0.4556084852834132  0.3270137794308212  0.37254695677462735  1.0000
  C   C40       1.0  0.544387572793056  0.8270147336082943  0.1274535133373931  1.0000
  C   C41       1.0  0.5685282673326384  0.6080590815396363  0.6892311291267463  1.0000
  C   C42       1.0  0.4314715419200468  0.10805540958532589  0.8107700222310541  1.0000
  C   C43       1.0  0.4314734175081583  0.3919455445921471  0.3107706668237924  1.0000
  C   C44       1.0  0.568522640568318  0.8919464987696202  0.18923101916761456  1.0000
  C   C45       1.0  0.4013120851415124  0.6107931650317653  0.7601259267102378  1.0000
  C   C46       1.0  0.5986877241111728  0.11079289029849798  0.7398740087681831  1.0000
  C   C47       1.0  0.5986914752873886  0.3892094227673866  0.2398746900139628  1.0000
  C   C48       1.0  0.4013027072009763  0.8892069797238236  0.2601257434450162  1.0000
  C   C49       1.0  0.8954057628154004  0.5374784172347731  0.6261868373184568  1.0000
  C   C50       1.0  0.10458279290864429  0.0374781425015058  0.8738122703020039  1.0000
  C   C51       1.0  0.10458466849674859  0.46252417056438594  0.3738129148947422  1.0000
  C   C52       1.0  0.895413265167832  0.9625230864092345  0.1261888077497062  1.0000
  C   C53       1.0  0.701336785680347  0.6683726644206374  0.5630283912955321  1.0000
  C   C54       1.0  0.2986667747485541  0.168368992466327  0.9369728333683583  1.0000
  C   C55       1.0  0.2986611479842338  0.3316306028227274  0.436972115469537  1.0000
  C   C56       1.0  0.7013311589160267  0.8316329158886191  0.0630288892760902  1.0000
  N   N1        1.0  0.5140105477939869  0.5679324655161793  0.833235344189788  1.0000
  N   N2        1.0  0.4859930126349211  0.067932190782912  0.666764664594716  1.0000
  N   N3        1.0  0.48599676381113704  0.432068763394561  0.1667635220214194  1.0000
  N   N4        1.0  0.5139992942653322  0.9320642820183734  0.3332363401509113  1.0000
  N   N5        1.0  0.740328386860007  0.5410923809759893  0.6878562720911745  1.0000
  N   N6        1.0  0.2596639200402464  0.0410907473543034  0.8121429088353693  1.0000
  N   N7        1.0  0.2596676712164623  0.4589102068231696  0.31214419802084586  1.0000
  N   N8        1.0  0.7403302624481185  0.958909802112224  0.18785813256329933  1.0000
  O   O1        1.0  0.2532269016531856  0.6193969670349659  0.12033190676086751  1.0000
  O   O2        1.0  0.746774783187611  0.1193946539690742  0.3796692812499742  1.0000
  O   O3        1.0  0.746787912304363  0.3806069796526046  0.8796677140022098  1.0000
  O   O4        1.0  0.2532118969483221  0.8806072543858718  0.6203316135365142  1.0000
  O   O5        1.0  0.8870725248510282  0.5469301656092895  0.1303300246848309  1.0000
  O   O6        1.0  0.112940413518416  0.0469305703202281  0.3696732070633503  1.0000
  O   O7        1.0  0.1129554182232795  0.4530710633014507  0.8696722844083169  1.0000
  O   O8        1.0  0.8870481422056216  0.9530726969231296  0.6303259005571109  1.0000
  O   O9        1.0  0.1059669769324358  0.8346999270425641  0.7880681487487351  1.0000
  O   O10       1.0  0.8940384590845767  0.3347037289745458  0.711930072869734  1.0000
  O   O11       1.0  0.8940347079083608  0.1652958663145085  0.211927567804878  1.0000
  O   O12       1.0  0.10596510134432438  0.6652961410477758  0.288071759733846  1.0000
  O   O13       1.0  0.3810388532808702  0.8283410087018908  0.8979496965376796  1.0000
  O   O14       1.0  0.6189534536193833  0.3283332600823385  0.6020525240873269  1.0000
  O   O15       1.0  0.6189459512669515  0.17166565576251  0.1020499457163879  1.0000
  O   O16       1.0  0.3810482312214134  0.6716659304957773  0.3979504877425911  1.0000
  O   O17       1.0  0.3585430495121074  0.4061710679705683  0.708097349670048  1.0000
  O   O18       1.0  0.6414548841524734  0.9061794960343263  0.7918995094568616  1.0000
  O   O19       1.0  0.641453008564369  0.5938254048307101  0.2919025125022827  1.0000
  O   O20       1.0  0.358554303040755  0.09382716843007438  0.2081006092867739  1.0000
