data_image0
_chemical_formula_structural       Zn4H46C69N16O
_chemical_formula_sum              "Zn4 H46 C69 N16 O1"
_cell_length_a       16.93624228536912
_cell_length_b       17.097669038025938
_cell_length_c       18.72329731770108
_cell_angle_alpha    106.79114792001135
_cell_angle_beta     115.2431196611055
_cell_angle_gamma    101.69536517134128

_space_group_name_H-M_alt    "P 1"
_space_group_IT_number       1

loop_
  _space_group_symop_operation_xyz
  'x, y, z'

loop_
  _atom_site_type_symbol
  _atom_site_label
  _atom_site_symmetry_multiplicity
  _atom_site_fract_x
  _atom_site_fract_y
  _atom_site_fract_z
  _atom_site_occupancy
  Zn  Zn1       1.0  0.6044456085597573  0.0947686254437627  0.998170926691344  1.0000
  Zn  Zn2       1.0  0.39153807067093266  0.8891255453374428  0.005556802385868174  1.0000
  Zn  Zn3       1.0  0.619422142239074  0.9856293414342974  0.1169579144991458  1.0000
  Zn  Zn4       1.0  0.37435671563874007  0.9976225833709761  0.8849859388650572  1.0000
  H   H1        1.0  0.6571037742561926  0.9804855930954304  0.8676160005908001  1.0000
  H   H2        1.0  0.33994002760882575  0.0170032392952635  0.1313119875070967  1.0000
  H   H3        1.0  0.8331515734734439  0.1174437165692126  0.29185337335656664  1.0000
  H   H4        1.0  0.14102567557723944  0.9556755628586587  0.7912139320402928  1.0000
  H   H5        1.0  0.17044397565263825  0.8198452435459203  0.9578290381176657  1.0000
  H   H6        1.0  0.8172136403111097  0.26607016649307275  0.1376719216916341  1.0000
  H   H7        1.0  0.322711097329737  0.15343010337996082  0.9804545039803187  1.0000
  H   H8        1.0  0.6446096765495425  0.1457009852127271  0.2792073711048956  1.0000
  H   H9        1.0  0.33999017944803717  0.07169273048750571  0.4690115449375867  1.0000
  H   H10       1.0  0.340868321734675  0.045031122993286515  0.5909587175358127  1.0000
  H   H11       1.0  0.6069849364540262  0.2635040747221212  0.7704185924405849  1.0000
  H   H12       1.0  0.3908344451329739  0.7118725396589481  0.8837662928693248  1.0000
  H   H13       1.0  0.6062493021454428  0.2902002190608003  0.6479203677155567  1.0000
  H   H14       1.0  0.6309199930507033  0.23061279819427227  0.5384461673727045  1.0000
  H   H15       1.0  0.638511110829505  0.19818132958212686  0.40602689825566063  1.0000
  H   H16       1.0  0.33578896808421627  0.1076963774171418  0.2515660964958356  1.0000
  H   H17       1.0  0.32864746455071275  0.14134813807805097  0.3845576416149612  1.0000
  H   H18       1.0  0.23564242759503876  0.4444018889255972  0.6290582732081091  1.0000
  H   H19       1.0  0.34199725334793385  0.5817051605589185  0.7614338217906109  1.0000
  H   H20       1.0  0.303248156076755  0.728387710567951  0.6047943623910115  1.0000
  H   H21       1.0  0.19547844137345988  0.5914031065491158  0.47313008090588227  1.0000
  H   H22       1.0  0.14615982099284955  0.4559641256882827  0.3668155738537919  1.0000
  H   H23       1.0  0.6739685450847189  0.8360478270152569  0.1927881078562946  1.0000
  H   H24       1.0  0.00031871683546573487  0.3350946680478515  0.24115968183622982  1.0000
  H   H25       1.0  0.9331913114969125  0.2621594151597649  0.416184217096827  1.0000
  H   H26       1.0  0.07865498824280327  0.3824790874607942  0.5414596632607598  1.0000
  H   H27       1.0  0.3835063438668697  0.5934653817953546  0.08552109148495647  1.0000
  H   H28       1.0  0.6842477221248371  0.7051320440716893  0.1967294797738217  1.0000
  H   H29       1.0  0.30786246079348695  0.4385006535030059  0.057760571895442946  1.0000
  H   H30       1.0  0.6966742762911976  0.5662256411453797  0.2031716042678935  1.0000
  H   H31       1.0  0.3178913540383305  0.2937961720491132  0.043499001859750294  1.0000
  H   H32       1.0  0.6187482262018804  0.40799579409026177  0.15701577023766317  1.0000
  H   H33       1.0  0.028591167910846548  0.8013672932714755  0.9313756978451266  1.0000
  H   H34       1.0  0.32924558408048915  0.049332905786307904  0.714975939886834  1.0000
  H   H35       1.0  0.913377809349626  0.7621152938948724  0.9756185795374249  1.0000
  H   H36       1.0  0.8212063031944653  0.9109797093093732  0.7384159649206552  1.0000
  H   H37       1.0  0.7829176135200202  0.7879093574328877  0.9919029068605028  1.0000
  H   H38       1.0  0.7238967620267117  0.9004443675164778  0.804970091071581  1.0000
  H   H39       1.0  0.3698766724702195  0.7088009117329718  0.043448477159898746  1.0000
  H   H40       1.0  0.6331721216916435  0.1766537547911042  0.8633128940763655  1.0000
  H   H41       1.0  0.37556360615965895  0.859221563880162  0.7277727580380429  1.0000
  H   H42       1.0  0.6725949316508701  0.8308692246452339  0.02154703045322037  1.0000
  H   H43       1.0  0.6279889971208874  0.27234479489037966  0.13377115795022823  1.0000
  H   H44       1.0  0.9086105106504901  0.0038632251989838984  0.7134250328324113  1.0000
  H   H45       1.0  0.8527145990518503  0.8934727872136322  0.6290351680222698  1.0000
  H   H46       1.0  0.9572903501248218  0.9688618636609617  0.6471328499402416  1.0000
  C   C1        1.0  0.6535058410712365  0.9507173921722867  0.9106685466774634  1.0000
  C   C2        1.0  0.3710305410504374  0.7494989969180638  0.7724772661186633  1.0000
  C   C3        1.0  0.5251034162841107  0.7382617336837853  0.12610715247653548  1.0000
  C   C4        1.0  0.47951933941616437  0.12627222444820058  0.7599579752567963  1.0000
  C   C5        1.0  0.5538530403378985  0.2304448904696343  0.09028675408398355  1.0000
  C   C6        1.0  0.4151721360097583  0.04070307381840621  0.1563311525076045  1.0000
  C   C7        1.0  0.814290484092325  0.1434651420335911  0.2430016271199094  1.0000
  C   C8        1.0  0.16383303054147555  0.9258308823881762  0.8362660254584141  1.0000
  C   C9        1.0  0.17832556706748207  0.8564031773194856  0.9209764166219757  1.0000
  C   C10       1.0  0.8068966333694119  0.21844859068646363  0.1638897564491584  1.0000
  C   C11       1.0  0.39828513926934755  0.16970955487443007  0.012615603216119015  1.0000
  C   C12       1.0  0.3912472824971616  0.76008796428016  0.8566783186693242  1.0000
  C   C13       1.0  0.5705474162995188  0.105779064423281  0.23198641420254504  1.0000
  C   C14       1.0  0.4732493064160933  0.2514519566776556  0.07258081649453624  1.0000
  C   C15       1.0  0.49061034130141923  0.10472861836824168  0.2387258929532621  1.0000
  C   C16       1.0  0.8651976567332439  0.22138895260614086  0.24587244398396987  1.0000
  C   C17       1.0  0.11127635401501096  0.8782839087366553  0.86212344490157  1.0000
  C   C18       1.0  0.3978859290069679  0.11559948166658533  0.5351979741619887  1.0000
  C   C19       1.0  0.3985620742259783  0.1002448771659772  0.6042705695352238  1.0000
  C   C20       1.0  0.4752755383887718  0.15052495048488623  0.6901128366705649  1.0000
  C   C21       1.0  0.5484446739129254  0.22063048743142843  0.7040832338962844  1.0000
  C   C22       1.0  0.5478366940380468  0.23580787556331023  0.6347186553060881  1.0000
  C   C23       1.0  0.5981765112384138  0.8166825510388521  0.15351866076676393  1.0000
  C   C24       1.0  0.47393910614280793  0.18178643817039125  0.5481505402469578  1.0000
  C   C25       1.0  0.5657259608072424  0.20507930281319628  0.47578645026997896  1.0000
  C   C26       1.0  0.5699072081595277  0.1862263460120985  0.4003861671817575  1.0000
  C   C27       1.0  0.4874045355693113  0.14531107916621983  0.3172729098390974  1.0000
  C   C28       1.0  0.4011865573294743  0.13451925935296316  0.31430020040227186  1.0000
  C   C29       1.0  0.3970499687580116  0.1532625290886713  0.3897015403037826  1.0000
  C   C30       1.0  0.4788433886696808  0.1841150103743701  0.471944145969985  1.0000
  C   C31       1.0  0.24950504259813744  0.5068217300240931  0.6234053208424227  1.0000
  C   C32       1.0  0.31024727679476183  0.5846372127891756  0.6983564675630589  1.0000
  C   C33       1.0  0.3276260007185386  0.6669710532531924  0.6944250831948865  1.0000
  C   C34       1.0  0.40443364628737305  0.07551932758533299  0.7617219348920514  1.0000
  C   C35       1.0  0.2896534116929459  0.6662651391412524  0.6109834730440936  1.0000
  C   C36       1.0  0.22890171666531242  0.5884532785634846  0.5360944826406566  1.0000
  C   C37       1.0  0.20348125172212403  0.5073452512569788  0.5408275054796263  1.0000
  C   C38       1.0  0.09944146445874931  0.4139252406404593  0.3782163972561605  1.0000
  C   C39       1.0  0.016944713442633492  0.34577989891803185  0.3071503134363596  1.0000
  C   C40       1.0  0.954929371327509  0.28987745596388953  0.3189562312083325  1.0000
  C   C41       1.0  0.9808110809952097  0.303285325977015  0.4048971555226401  1.0000
  C   C42       1.0  0.0632162183184022  0.37109797068138306  0.4756971733317314  1.0000
  C   C43       1.0  0.12381396886537742  0.42918653159526327  0.4642836117473905  1.0000
  C   C44       1.0  0.5319278695293689  0.6587546689180853  0.13829660344410383  1.0000
  C   C45       1.0  0.4433782648880181  0.7522681444606292  0.07813154254466072  1.0000
  C   C46       1.0  0.46949668058897487  0.33936757787675026  0.09694057432691489  1.0000
  C   C47       1.0  0.3760377954896369  0.43172500287621307  0.07953219042160233  1.0000
  C   C48       1.0  0.381875757217088  0.35079349397259557  0.07160436847345143  1.0000
  C   C49       1.0  0.5503489693742907  0.41397685129366835  0.1363541274494438  1.0000
  C   C50       1.0  0.5466404639443923  0.4976054211053765  0.14445476455196612  1.0000
  C   C51       1.0  0.4571820086346179  0.5069343771174387  0.11275828812603798  1.0000
  C   C52       1.0  0.4524553540904747  0.5881218628520486  0.11135690661014759  1.0000
  C   C53       1.0  0.6209239041292562  0.6498945121766584  0.17387457825504518  1.0000
  C   C54       1.0  0.6281004176845002  0.5722856445948709  0.17738933222226178  1.0000
  C   C55       1.0  0.014810998432743454  0.862031522697606  0.84341621500257  1.0000
  C   C56       1.0  0.5591369650531844  0.1415284699552615  0.8379416380312746  1.0000
  C   C57       1.0  0.7462644522601705  0.8502569789910905  0.9022125929599979  1.0000
  C   C58       1.0  0.8717255886897491  0.7925047691860881  0.9383239730470905  1.0000
  C   C59       1.0  0.7984883763322372  0.8066741594473116  0.9470025496864521  1.0000
  C   C60       1.0  0.7645624087312086  0.8695341132520228  0.842222688207805  1.0000
  C   C61       1.0  0.8406459976066857  0.8576750376679386  0.8334035741671855  1.0000
  C   C62       1.0  0.8983192469321679  0.8218893639301685  0.8853358655445476  1.0000
  C   C63       1.0  0.9833371978190755  0.8247228695224679  0.8878690950307088  1.0000
  C   C64       1.0  0.9514707280227838  0.8896482241877662  0.7852288068902451  1.0000
  C   C65       1.0  0.8671190877838129  0.8869672703675774  0.7803486429597369  1.0000
  C   C66       1.0  0.38319228720904147  0.8351520219859127  0.7770994378795066  1.0000
  C   C67       1.0  0.6623399801403169  0.8749874836859418  0.9896987278337194  1.0000
  C   C68       1.0  0.6858063466682014  0.8848700357273744  0.9282618207469258  1.0000
  C   C69       1.0  0.9208763631029909  0.9480189588475411  0.6786875821406396  1.0000
  N   N1        1.0  0.6158948205837761  0.9780798089534173  0.9589299300469775  1.0000
  N   N2        1.0  0.44861212551739266  0.006020080203420305  0.10644057639882475  1.0000
  N   N3        1.0  0.7330082112402749  0.09809843639786209  0.16583876633330868  1.0000
  N   N4        1.0  0.2537972527108605  0.9317451682869732  0.8767839205087852  1.0000
  N   N5        1.0  0.26254127986398845  0.88825550505895  0.929370322885319  1.0000
  N   N6        1.0  0.7279826428301278  0.14489603464029696  0.1165860222648191  1.0000
  N   N7        1.0  0.43248476155237375  0.10656840422350912  0.995242756672873  1.0000
  N   N8        1.0  0.5439900773995276  0.0459207449857146  0.1528737085827672  1.0000
  N   N9        1.0  0.4114866896677683  0.8446074770412437  0.9057061695860256  1.0000
  N   N10       1.0  0.5626230905532807  0.8722865773133746  0.12443078271609644  1.0000
  N   N11       1.0  0.4367478490115317  0.06201217945159952  0.8345063020786229  1.0000
  N   N12       1.0  0.46613143813156893  0.8319936037358744  0.07746043763184206  1.0000
  N   N13       1.0  0.5332285326006032  0.1028672381235722  0.8819977079615458  1.0000
  N   N14       1.0  0.40648903186973234  0.8907383327212274  0.8568399339362714  1.0000
  N   N15       1.0  0.6211814855445397  0.9315475998170729  0.007544312064851419  1.0000
  N   N16       1.0  0.5281590007682837  0.14402412758842334  0.042941081962020164  1.0000
  O   O1        1.0  0.9817143772734269  0.9203567487409784  0.7376390562636315  1.0000
