data_image0
_chemical_formula_structural       Cd4H28C32S8N12O4
_chemical_formula_sum              "Cd4 H28 C32 S8 N12 O4"
_cell_length_a       7.930164159069802
_cell_length_b       8.158678540982347
_cell_length_c       18.15766234992914
_cell_angle_alpha    93.65274645210707
_cell_angle_beta     89.99952196868324
_cell_angle_gamma    90.00007823172477

_space_group_name_H-M_alt    "P 1"
_space_group_IT_number       1

loop_
  _space_group_symop_operation_xyz
  'x, y, z'

loop_
  _atom_site_type_symbol
  _atom_site_label
  _atom_site_symmetry_multiplicity
  _atom_site_fract_x
  _atom_site_fract_y
  _atom_site_fract_z
  _atom_site_occupancy
  Cd  Cd1       1.0  0.32854976746742176  0.6742277190956614  0.002028888368620597  1.0000
  Cd  Cd2       1.0  0.8285470496541195  0.3257753089720339  0.4979696130227325  1.0000
  Cd  Cd3       1.0  0.6714484296822649  0.3257756673226169  0.9979700248083108  1.0000
  Cd  Cd4       1.0  0.1714498864709029  0.6742255812892776  0.5020308688615387  1.0000
  H   H1        1.0  0.3027651993247388  0.251517678288856  0.7089931447376474  1.0000
  H   H2        1.0  0.8027657632962288  0.7484861205834504  0.7910079057295151  1.0000
  H   H3        1.0  0.6972367808315879  0.7484819838629164  0.2910072960125732  1.0000
  H   H4        1.0  0.19723243383054267  0.2515123001440855  0.20899304422093226  1.0000
  H   H5        1.0  0.09489377390389109  0.0500483050885734  0.7540287929468761  1.0000
  H   H6        1.0  0.5948929576909733  0.9499515995846863  0.7459745382397502  1.0000
  H   H7        1.0  0.9051119892691445  0.9499464313072321  0.245972033615125  1.0000
  H   H8        1.0  0.40511280549012696  0.050050518791842094  0.2540259847534473  1.0000
  H   H9        1.0  0.04923892657861019  0.0407938360814981  0.891199044229815  1.0000
  H   H10       1.0  0.5492356977837219  0.9592047898462396  0.6088049615661647  1.0000
  H   H11       1.0  0.9507655755878802  0.959204584648617  0.108801905709214  1.0000
  H   H12       1.0  0.4507650213594019  0.0407948589939338  0.39119602950463433  1.0000
  H   H13       1.0  0.2219421078545381  0.23162233538946708  0.976828392763686  1.0000
  H   H14       1.0  0.7219389854359476  0.7683789278758936  0.5231734186079322  1.0000
  H   H15       1.0  0.778059872308461  0.7683810244081996  0.0231716210429838  1.0000
  H   H16       1.0  0.278060472698769  0.23161949285215394  0.47682753134023415  1.0000
  H   H17       1.0  0.45904488051994724  0.5958859970765573  0.8197815227421829  1.0000
  H   H18       1.0  0.9590458161032129  0.4041191842849371  0.6802179019973311  1.0000
  H   H19       1.0  0.5409520556218013  0.40411738934120217  0.18021739043703633  1.0000
  H   H20       1.0  0.0409498590229873  0.5958780482631949  0.3197813558778861  1.0000
  H   H21       1.0  0.5016903647650109  0.4743912664061014  0.7356848185258117  1.0000
  H   H22       1.0  0.0016929116131053  0.5256148091234107  0.7643146534172446  1.0000
  H   H23       1.0  0.4983053103635271  0.5256121067000661  0.26431464497398593  1.0000
  H   H24       1.0  0.9983078075329459  0.4743787124698  0.23568558171067625  1.0000
  H   H25       1.0  0.619099485629583  0.4467137599653482  0.8181792613230457  1.0000
  H   H26       1.0  0.1190998629935294  0.5532924248537867  0.6818192349218677  1.0000
  H   H27       1.0  0.38089997252898666  0.5532920826766626  0.18181973410143124  1.0000
  H   H28       1.0  0.8808970731344132  0.4467023381605628  0.3181804910195325  1.0000
  C   C1        1.0  0.4170107817754669  0.05684312978683441  0.0840271301558602  1.0000
  C   C2        1.0  0.9170193208901195  0.9431426439271603  0.41597597814703857  1.0000
  C   C3        1.0  0.5829748052585373  0.9431478956437471  0.9159746737045255  1.0000
  C   C4        1.0  0.08296626616387928  0.05685947444112568  0.5840245448827092  1.0000
  C   C5        1.0  0.04588884763983  0.4256225609539541  0.08281870850451162  1.0000
  C   C6        1.0  0.5458829761953793  0.5743827321996802  0.4171792482933584  1.0000
  C   C7        1.0  0.9541106105470335  0.5743747647732602  0.9171766971357872  1.0000
  C   C8        1.0  0.4541202649760265  0.4256218557101121  0.5828208066359438  1.0000
  C   C9        1.0  0.3695673941615566  0.3489929969586996  0.8169325692046956  1.0000
  C   C10       1.0  0.869568621118745  0.6510108698343089  0.6830676889126297  1.0000
  C   C11       1.0  0.6304320639903408  0.65100914803741  0.18306685316333227  1.0000
  C   C12       1.0  0.1304295760027614  0.3489875375821469  0.31693381135611537  1.0000
  C   C13       1.0  0.2793615863904932  0.24403705292412772  0.7677972610033025  1.0000
  C   C14       1.0  0.7793620223586545  0.7559654853934814  0.7322043834508636  1.0000
  C   C15       1.0  0.7206391327631535  0.7559626225381989  0.23220262943090833  1.0000
  C   C16       1.0  0.220636174762852  0.24403292202297408  0.26779711681788143  1.0000
  C   C17       1.0  0.1637873664794611  0.13198223306480367  0.7930869579952784  1.0000
  C   C18       1.0  0.6637871811248033  0.8680189693504302  0.7069156143891606  1.0000
  C   C19       1.0  0.83621713568656  0.8680149595536973  0.20691395081883715  1.0000
  C   C20       1.0  0.33621479902673473  0.13198190760186893  0.2930854178042709  1.0000
  C   C21       1.0  0.13901161505467033  0.12542953548977917  0.8689159739061126  1.0000
  C   C22       1.0  0.6390103643898398  0.8745716466713774  0.6310866882450199  1.0000
  C   C23       1.0  0.8609916261048127  0.8745713414630314  0.1310850582850307  1.0000
  C   C24       1.0  0.360990354763345  0.1254268006793424  0.3689131610642705  1.0000
  C   C25       1.0  0.2304771779546257  0.22855599676683616  0.9170586752154865  1.0000
  C   C26       1.0  0.7304754408738175  0.771445260165244  0.5829436555485898  1.0000
  C   C27       1.0  0.7695248021978429  0.7714473364086769  0.08294243922777163  1.0000
  C   C28       1.0  0.269525278257845  0.2285519058295549  0.4170583539089706  1.0000
  C   C29       1.0  0.49397494404080783  0.4735082029087393  0.7957711563958727  1.0000
  C   C30       1.0  0.9939755926696064  0.5264982351188222  0.7042281829143209  1.0000
  C   C31       1.0  0.5060232531093477  0.5264964116211458  0.2042277979059719  1.0000
  C   C32       1.0  0.0060213434540159  0.47349897080766806  0.2957721755952036  1.0000
  S   S1        1.0  0.2962216882080852  0.9104145189675846  0.1115137282584087  1.0000
  S   S2        1.0  0.7962144245569931  0.0895859732032136  0.3884870092920565  1.0000
  S   S3        1.0  0.7037765089138901  0.08958511656047818  0.8884878131352569  1.0000
  S   S4        1.0  0.20377746755823267  0.9104174265235584  0.6115113535780026  1.0000
  S   S5        1.0  0.9049338293394199  0.2893349370337504  0.10287858281999723  1.0000
  S   S6        1.0  0.40493157815200215  0.7106656839421743  0.3971201098926614  1.0000
  S   S7        1.0  0.0950694118722097  0.7106648449182343  0.8971169050632783  1.0000
  S   S8        1.0  0.5950716629960197  0.2893327101652616  0.6028819406852437  1.0000
  N   N1        1.0  0.502014314445816  0.16634991579727645  0.0660582886990397  1.0000
  N   N2        1.0  0.0020064886030298004  0.8336602672465785  0.4339394412451086  1.0000
  N   N3        1.0  0.49798136070517535  0.8336571948880261  0.9339390969023217  1.0000
  N   N4        1.0  0.9979765764188215  0.1663405830758293  0.5660626916191732  1.0000
  N   N5        1.0  0.15063843921710426  0.5234061015802068  0.0707458866188659  1.0000
  N   N6        1.0  0.6506397663966864  0.4765992239626015  0.42925389192197383  1.0000
  N   N7        1.0  0.8493711070347131  0.47659490848595715  0.9292496423779045  1.0000
  N   N8        1.0  0.3493823898943448  0.5234065920665358  0.570746204097972  1.0000
  N   N9        1.0  0.34253319198211324  0.3362956410061457  0.8907944839742046  1.0000
  N   N10       1.0  0.8425320636757834  0.6637082036860206  0.6092058720947264  1.0000
  N   N11       1.0  0.6574687881804167  0.6637064906799207  0.109205488707552  1.0000
  N   N12       1.0  0.15746739446466046  0.33629145846471437  0.3907945686600628  1.0000
  O   O1        1.0  0.43233548466726285  0.43192001970825794  0.9384640134152846  1.0000
  O   O2        1.0  0.9323351324320227  0.5680839117067434  0.5615354669721813  1.0000
  O   O3        1.0  0.5676652344930488  0.5680833533999702  0.061535450075375295  1.0000
  O   O4        1.0  0.06766684771331911  0.4319144957112613  0.4384660332897071  1.0000
