data_image0
_chemical_formula_structural       Zn4H26C42N6O14
_chemical_formula_sum              "Zn4 H26 C42 N6 O14"
_cell_length_a       10.074887933486902
_cell_length_b       10.704829700931617
_cell_length_c       11.138562827419568
_cell_angle_alpha    80.35412756385071
_cell_angle_beta     65.52789588534647
_cell_angle_gamma    63.42334246430534

_space_group_name_H-M_alt    "P 1"
_space_group_IT_number       1

loop_
  _space_group_symop_operation_xyz
  'x, y, z'

loop_
  _atom_site_type_symbol
  _atom_site_label
  _atom_site_symmetry_multiplicity
  _atom_site_fract_x
  _atom_site_fract_y
  _atom_site_fract_z
  _atom_site_occupancy
  Zn  Zn1       1.0  0.8117045548377748  0.5630704981032723  0.5703011968680302  1.0000
  Zn  Zn2       1.0  0.18829650008998305  0.4369299071329067  0.42969971086341036  1.0000
  Zn  Zn3       1.0  0.07114062871046664  0.31057940737372997  0.7175039638237237  1.0000
  Zn  Zn4       1.0  0.9288609386985486  0.6894199425468058  0.2824960331947326  1.0000
  H   H1        1.0  0.5638922962400771  0.9665718419259904  0.5970365225258976  1.0000
  H   H2        1.0  0.4361060559598117  0.0334296379725885  0.40296609508966724  1.0000
  H   H3        1.0  0.5953541852302779  0.3601117452217935  0.5628126556593217  1.0000
  H   H4        1.0  0.40464912481748894  0.6398885981096426  0.43718384469008265  1.0000
  H   H5        1.0  0.9408975616983641  0.9913946483708358  0.6652277188937391  1.0000
  H   H6        1.0  0.059104501973557405  0.0086036568735537  0.3347722694644589  1.0000
  H   H7        1.0  0.28632638267843913  0.5231474844652411  0.6801548088095972  1.0000
  H   H8        1.0  0.7136740733889158  0.4768518857681768  0.3198464898471515  1.0000
  H   H9        1.0  0.4403135722145849  0.5413359458028424  0.79866206773621  1.0000
  H   H10       1.0  0.5596853086849053  0.45866446814061107  0.20133873711365177  1.0000
  H   H11       1.0  0.4140186060379137  0.42717317586625814  0.020858111306822035  1.0000
  H   H12       1.0  0.5859786672570099  0.5728283030662169  0.9791440038415902  1.0000
  H   H13       1.0  0.23718303666004212  0.30247508261158623  0.11166405425296236  1.0000
  H   H14       1.0  0.7628142528532323  0.6975263856813994  0.8883371588427242  1.0000
  H   H15       1.0  0.7801327587201786  0.18493042618930386  0.8623813216759901  1.0000
  H   H16       1.0  0.21986564213474952  0.8150710217907998  0.1376185897814041  1.0000
  H   H17       1.0  0.6149767394284994  0.08039991957938498  0.04140181063032605  1.0000
  H   H18       1.0  0.3850221576893419  0.9196004837245723  0.9585980921668099  1.0000
  H   H19       1.0  0.639398687091479  0.031411374623509396  0.25835284371100203  1.0000
  H   H20       1.0  0.36060120255217526  0.9685869393281619  0.7416470417656101  1.0000
  H   H21       1.0  0.8192585372757009  0.09544711766218231  0.30854428658486927  1.0000
  H   H22       1.0  0.18073977720008855  0.9045522399995246  0.691455105084849  1.0000
  H   H23       1.0  0.03391384410772252  0.2299665822600758  0.18817457235000756  1.0000
  H   H24       1.0  0.9660855330546743  0.7700327870072312  0.8118262238395888  1.0000
  H   H25       1.0  0.008570766485199584  0.5684733897651595  0.6537189243779338  1.0000
  H   H26       1.0  0.9914292419742953  0.43152699322592264  0.34627967678090255  1.0000
  C   C1        1.0  0.8199952695439453  0.8084062317334854  0.6551739604386458  1.0000
  C   C2        1.0  0.18000523517845576  0.1915931065814505  0.34482463205993963  1.0000
  C   C3        1.0  0.7591184149045278  0.962431218550513  0.6323160216990332  1.0000
  C   C4        1.0  0.24088265624158117  0.03756917604616921  0.36768398397968133  1.0000
  C   C5        1.0  0.6219723398158052  0.0287534943459704  0.6020994092695208  1.0000
  C   C6        1.0  0.3780270373465912  0.9712458749213366  0.39790138692007576  1.0000
  C   C7        1.0  0.5623540346404354  0.17136511136962443  0.5762562801350344  1.0000
  C   C8        1.0  0.4376475327685797  0.8286342385509186  0.42374371688342916  1.0000
  C   C9        1.0  0.407470707888301  0.2426105849228506  0.5555035122646859  1.0000
  C   C10       1.0  0.5925302768786624  0.757387719355428  0.4444959736263598  1.0000
  C   C11       1.0  0.6405195539961  0.24866331163445218  0.5817956503013023  1.0000
  C   C12       1.0  0.3594826771467012  0.7513370307308733  0.41820034758094965  1.0000
  C   C13       1.0  0.7740737131805774  0.1846914506730002  0.6174135210957135  1.0000
  C   C14       1.0  0.22592631149726852  0.8153089216785928  0.38258417801040423  1.0000
  C   C15       1.0  0.8428782549821394  0.27418848569767823  0.6374298702522767  1.0000
  C   C16       1.0  0.15712332864521994  0.7258108535833613  0.36256922471345393  1.0000
  C   C17       1.0  0.8349987629594652  0.0410461253597845  0.6404953679782894  1.0000
  C   C18       1.0  0.16500119684498327  0.95895428954978  0.3595059393387246  1.0000
  C   C19       1.0  0.27859332833865125  0.47536131088202177  0.7760719801826216  1.0000
  C   C20       1.0  0.7214055525608389  0.5246391030614319  0.22392882466723318  1.0000
  C   C21       1.0  0.36400230672836653  0.4858049398703913  0.8430171291211226  1.0000
  C   C22       1.0  0.6359954628294701  0.5141954943859375  0.15698497736702421  1.0000
  C   C23       1.0  0.3497048035366533  0.4220966477591617  0.9648760419368688  1.0000
  C   C24       1.0  0.6502924859766213  0.577904820533817  0.035125171158817595  1.0000
  C   C25       1.0  0.25150642466227424  0.35097525248774275  0.015821664472035587  1.0000
  C   C26       1.0  0.7484908648510001  0.6490262158052432  0.9841795486236512  1.0000
  C   C27       1.0  0.1707808518125375  0.345483313400031  0.9416556900582908  1.0000
  C   C28       1.0  0.8292180290869526  0.6545171005434226  0.05834511479157118  1.0000
  C   C29       1.0  0.0620928307507  0.27662996861127453  0.9854631924471494  1.0000
  C   C30       1.0  0.9379076577533495  0.7233693803431506  0.014536302104154785  1.0000
  C   C31       1.0  0.9025806946094547  0.175138282510396  0.11104397261039631  1.0000
  C   C32       1.0  0.09741770624547301  0.8248631654697077  0.8889559388469979  1.0000
  C   C33       1.0  0.8935973759961162  0.20026152977078476  0.9847485624298287  1.0000
  C   C34       1.0  0.10640248121084302  0.7997368054598721  0.01525312715223489  1.0000
  C   C35       1.0  0.7891439863972848  0.16644809812866154  0.9580776524900971  1.0000
  C   C36       1.0  0.21085540698346258  0.8335512604991493  0.041922241646773384  1.0000
  C   C37       1.0  0.6978704168308242  0.10736879273279949  0.05899429796970424  1.0000
  C   C38       1.0  0.3021284802870171  0.8926316105711577  0.9410056048274317  1.0000
  C   C39       1.0  0.709595560190408  0.0812283998745471  0.18340581179494123  1.0000
  C   C40       1.0  0.2904049283136489  0.9187709490798781  0.8165936827563629  1.0000
  C   C41       1.0  0.8114738852728041  0.11518213750750311  0.21206529094730087  1.0000
  C   C42       1.0  0.1885266032312531  0.8848172114469289  0.7879342036040031  1.0000
  N   N1        1.0  0.9956663883259508  0.26279477760287057  0.9086833254872677  1.0000
  N   N2        1.0  0.0043330050547966065  0.7372045810249402  0.09131656864961005  1.0000
  N   N3        1.0  0.010395616986919333  0.22362998416956256  0.10681663954984093  1.0000
  N   N4        1.0  0.9896048715171374  0.7763693647848697  0.8931828550014632  1.0000
  N   N5        1.0  0.18487192468436578  0.40665849135356064  0.82325072836035  1.0000
  N   N6        1.0  0.8151279487409372  0.5933398332376  0.17675005916898812  1.0000
  O   O1        1.0  0.7355978463074924  0.7498599378390906  0.6515410468831817  1.0000
  O   O2        1.0  0.2644020271178178  0.25013838675207717  0.3484597406461561  1.0000
  O   O3        1.0  0.9488564962631544  0.7445744255369604  0.6776962469427165  1.0000
  O   O4        1.0  0.05114292955428822  0.2554249118118718  0.3223018430887095  1.0000
  O   O5        1.0  0.38637687569386275  0.34988442473193254  0.4840318157630747  1.0000
  O   O6        1.0  0.613624724151848  0.6501149039096177  0.5159663771499297  1.0000
  O   O7        1.0  0.3056153498107221  0.19023816359840143  0.6169111803705292  1.0000
  O   O8        1.0  0.6943868326770402  0.809762210685406  0.38308752366989307  1.0000
  O   O9        1.0  0.9800239692859805  0.21449424181381005  0.6455216124908465  1.0000
  O   O10       1.0  0.019977598123034623  0.7855051081067258  0.35447838452761726  1.0000
  O   O11       1.0  0.7525188703866378  0.40534017649745374  0.6506362164936024  1.0000
  O   O12       1.0  0.24748209816198136  0.5946581384203286  0.34936417145016935  1.0000
  O   O13       1.0  0.018337586479987088  0.4838004157559084  0.61830105210899  1.0000
  O   O14       1.0  0.9816635171028169  0.5161999575617883  0.3816971494642803  1.0000
