data_image0
_chemical_formula_structural       Cd6H40C24N22Cl6O4
_chemical_formula_sum              "Cd6 H40 C24 N22 Cl6 O4"
_cell_length_a       8.436121319
_cell_length_b       8.438124144181225
_cell_length_c       16.688
_cell_angle_alpha    90.0
_cell_angle_beta     90.0
_cell_angle_gamma    90.78211285686776

_space_group_name_H-M_alt    "P 1"
_space_group_IT_number       1

loop_
  _space_group_symop_operation_xyz
  'x, y, z'

loop_
  _atom_site_type_symbol
  _atom_site_label
  _atom_site_symmetry_multiplicity
  _atom_site_fract_x
  _atom_site_fract_y
  _atom_site_fract_z
  _atom_site_occupancy
  Cd  Cd1       1.0  0.9401449397799125  0.05987789040333521  0.3162661792905084  1.0000
  Cd  Cd2       1.0  0.059856175996969796  0.9401235319647157  0.8162667785234916  1.0000
  Cd  Cd3       1.0  0.3041923048799404  0.6958047669414  0.1775461409395973  1.0000
  Cd  Cd4       1.0  0.6958076255180713  0.3041966554266509  0.6775461409395973  1.0000
  Cd  Cd5       1.0  0.6174210153735584  0.3825175666048395  0.2821806088207097  1.0000
  Cd  Cd6       1.0  0.38258125341829435  0.6174814853473336  0.7821806088207097  1.0000
  H   H1        1.0  0.6723355056327733  0.7605787513503159  0.2620469798657723  1.0000
  H   H2        1.0  0.3276655777802091  0.23942030060185  0.7620457813998058  1.0000
  H   H3        1.0  0.23949660445008897  0.3276803655759295  0.2620385906040283  1.0000
  H   H4        1.0  0.7605044789628934  0.6723186863762365  0.7620391898370116  1.0000
  H   H5        1.0  0.3463563227227979  0.1039581441568345  0.1902732502396915  1.0000
  H   H6        1.0  0.6536459460690551  0.8960409077953315  0.6902732502396915  1.0000
  H   H7        1.0  0.895993198271199  0.653559215081053  0.1902912272291459  1.0000
  H   H8        1.0  0.1040067159448554  0.3464410220790555  0.6902930249280883  1.0000
  H   H9        1.0  0.5637048605235577  0.4362940065262606  0.48921200862895386  1.0000
  H   H10       1.0  0.43629381976776216  0.5637026750100205  0.989212607861937  1.0000
  H   H11       1.0  0.9081576501502582  0.0918393929568566  0.5327648609779487  1.0000
  H   H12       1.0  0.09184228024774647  0.9081620294111943  0.0327642617449655  1.0000
  H   H13       1.0  0.3940536948977423  0.1663889724657679  0.5677738494726725  1.0000
  H   H14       1.0  0.6059450177574843  0.8336100794863981  0.06777504793863898  1.0000
  H   H15       1.0  0.833572278996833  0.6059778570689005  0.5677846356663494  1.0000
  H   H16       1.0  0.16642289370371793  0.394022380091215  0.0677840364333662  1.0000
  H   H17       1.0  0.2471817494669394  0.0198403809376657  0.592491011505274  1.0000
  H   H18       1.0  0.7528181323852152  0.9801574858065578  0.0924910115052739  1.0000
  H   H19       1.0  0.980177760803194  0.7528049724632098  0.5924934084371998  1.0000
  H   H20       1.0  0.019821000397890004  0.2471976351127836  0.0924910115052739  1.0000
  H   H21       1.0  0.20450892062804368  0.1694041414684833  0.5198118408437225  1.0000
  H   H22       1.0  0.7954910097699681  0.8305972808995676  0.0198112416107392  1.0000
  H   H23       1.0  0.8305669778453717  0.7954795695983137  0.5198208293384496  1.0000
  H   H24       1.0  0.16943407320369627  0.2045171119379745  0.0198202301054664  1.0000
  H   H25       1.0  0.4518956351712973  0.8053997600671465  0.5459473873441993  1.0000
  H   H26       1.0  0.5481019406509162  0.1946028475088468  0.0459515819750749  1.0000
  H   H27       1.0  0.19460830960870368  0.548089930799037  0.5459425934803477  1.0000
  H   H28       1.0  0.8053915884254012  0.451909121153129  0.0459395973154386  1.0000
  H   H29       1.0  0.5893503616060087  0.9567685922925903  0.5152432885906038  1.0000
  H   H30       1.0  0.41064484345844926  0.043234015283403  0.0152462847555128  1.0000
  H   H31       1.0  0.0431849853791775  0.4106923297858529  0.5152366970278024  1.0000
  H   H32       1.0  0.9568172672307184  0.5893055369583777  0.0152343000958766  1.0000
  H   H33       1.0  0.5130520026516052  0.8172293205294423  0.4436553211888778  1.0000
  H   H34       1.0  0.4869444039736877  0.1827744722544935  0.9436583173537869  1.0000
  H   H35       1.0  0.18276866787380897  0.4869628312255543  0.4436505273250262  1.0000
  H   H36       1.0  0.8172336009180442  0.5130362207266117  0.9436475311601169  1.0000
  H   H37       1.0  0.3404041297931569  0.9150895698281971  0.3630848513902194  1.0000
  H   H38       1.0  0.6595911076352152  0.0849154081636811  0.8630878475551285  1.0000
  H   H39       1.0  0.0849067212203707  0.6596025903738365  0.3630830536912768  1.0000
  H   H40       1.0  0.9150967167684028  0.340395276370387  0.8630812559923271  1.0000
  C   C1        1.0  0.6177012142004372  0.8730846151799412  0.2491640699904139  1.0000
  C   C2        1.0  0.3822998530305881  0.1269132515642895  0.7491628715244474  1.0000
  C   C3        1.0  0.1269544729387064  0.3822983031356912  0.2491622722914641  1.0000
  C   C4        1.0  0.8730454412773553  0.6177019340244172  0.7491634707574306  1.0000
  C   C5        1.0  0.45213503099522256  0.0481502578239912  0.21324244966442754  1.0000
  C   C6        1.0  0.5478672539785876  0.9518499793361173  0.7132424496644276  1.0000
  C   C7        1.0  0.9518279913596214  0.5478042956851823  0.213252037392138  1.0000
  C   C8        1.0  0.048173108235310694  0.4521959414749261  0.7132526366251213  1.0000
  C   C9        1.0  0.6533063548975874  0.3466875453308447  0.48090783796740055  1.0000
  C   C10       1.0  0.3466911885607189  0.6533126918292638  0.9809078379674004  1.0000
  C   C11       1.0  0.8282118814988093  0.17178166859876853  0.5025107861936746  1.0000
  C   C12       1.0  0.1717880327172452  0.8282185685613399  0.0025113854266507  1.0000
  C   C13       1.0  0.28985071751596786  0.9999587548821651  0.4061990651965459  1.0000
  C   C14       1.0  0.7101456081995536  3.91118620655e-05  0.9062032598274214  1.0000
  C   C15       1.0  3.647706086699795e-05  0.7101694871901714  0.4062068552253136  1.0000
  C   C16       1.0  0.9999598972005188  0.2898319351778795  0.9062014621284789  1.0000
  C   C17       1.0  0.2967288121281512  0.0929866742440524  0.5438057286673086  1.0000
  C   C18       1.0  0.7032710859059462  0.9070123777081136  0.0438081255992344  1.0000
  C   C19       1.0  0.9069989548942203  0.7032715769717015  0.5438147171620358  1.0000
  C   C20       1.0  0.09299738700325828  0.2967274749804645  0.0438141179290525  1.0000
  C   C21       1.0  0.48439261985225807  0.8869977712030703  0.4970427852348962  1.0000
  C   C22       1.0  0.5156037544091275  0.1130036511649735  0.9970469798657716  1.0000
  C   C23       1.0  0.11298431654073225  0.5156199740386853  0.4970367929050781  1.0000
  C   C24       1.0  0.8870155653114152  0.4843778927055382  0.9970325982742095  1.0000
  N   N1        1.0  0.6838819055207637  0.0125952047923903  0.2664327660594452  1.0000
  N   N2        1.0  0.3161191778922117  0.9874038471597828  0.766432166826462  1.0000
  N   N3        1.0  0.9874228334193161  0.3161020691971927  0.2664225790987516  1.0000
  N   N4        1.0  0.0125770807967385  0.6838981679629157  0.7664231783317348  1.0000
  N   N5        1.0  0.5772002247812792  0.1254649274599942  0.24350191754554368  1.0000
  N   N6        1.0  0.4228008748136531  0.8745353097001143  0.7435013183125605  1.0000
  N   N7        1.0  0.8745099755916356  0.422747079756995  0.2435007190795773  1.0000
  N   N8        1.0  0.1254923093821745  0.5772531574031134  0.7435019175455435  1.0000
  N   N9        1.0  0.47223698289270283  0.8893729279174778  0.2159186241610769  1.0000
  N   N10       1.0  0.5277653020811072  0.1106273092426306  0.7159186241610769  1.0000
  N   N11       1.0  0.1106390960129602  0.5277351696148429  0.2159282118887802  1.0000
  N   N12       1.0  0.8893620035819723  0.4722650675452655  0.71592821188878  1.0000
  N   N13       1.0  0.7026530266682656  0.2973260049908291  0.4093797938638559  1.0000
  N   N14       1.0  0.2973456698050114  0.7026718617533945  0.9093803930968392  1.0000
  N   N15       1.0  0.8152569612530413  0.1847241393179573  0.4233712847555111  1.0000
  N   N16       1.0  0.18474413834188397  0.8152760978421512  0.9233712847555109  1.0000
  N   N17       1.0  0.7288937498885985  0.2711056497050492  0.5413356903163944  1.0000
  N   N18       1.0  0.27110614814550615  0.7288934022471167  0.0413356903163944  1.0000
  N   N19       1.0  0.35413632638471876  0.9928498776501372  0.4793696069031625  1.0000
  N   N20       1.0  0.6458624348163652  0.0071527299258562  0.9793714046021124  1.0000
  N   N21       1.0  0.007137375104107899  0.6458707711657254  0.47936780920422  1.0000
  N   N22       1.0  0.9928660628846656  0.3541270955785052  0.9793696069031625  1.0000
  Cl  Cl1       1.0  0.0697534400237103  0.9301784521291196  0.19178990891659  1.0000
  Cl  Cl2       1.0  0.9302500465109276  0.0698229702389312  0.6917905081495661  1.0000
  Cl  Cl3       1.0  0.4276582486750229  0.5723783971404686  0.3451731783317342  1.0000
  Cl  Cl4       1.0  0.572340447798247  0.427619469603755  0.84517557526366  1.0000
  Cl  Cl5       1.0  0.5191652427560456  0.4808187132577615  0.1396015100671164  1.0000
  Cl  Cl6       1.0  0.480835889202794  0.5191838943182319  0.6396003116011499  1.0000
  O   O1        1.0  0.18178601651283796  0.0936693540182532  0.3872435282837969  1.0000
  O   O2        1.0  0.8182057133247725  0.9063391795974454  0.8872459252157228  1.0000
  O   O3        1.0  0.9063687839318958  0.8182545253986788  0.3872627037392107  1.0000
  O   O4        1.0  0.09364175014817279  0.1817421561376023  0.8872597075743016  1.0000
