data_image0
_chemical_formula_structural       Hg2H44C60N12Cl4O4
_chemical_formula_sum              "Hg2 H44 C60 N12 Cl4 O4"
_cell_length_a       6.751898514627359
_cell_length_b       13.913758404377363
_cell_length_c       15.2631
_cell_angle_alpha    101.3448468278705
_cell_angle_beta     102.91610476781283
_cell_angle_gamma    89.9721937341823

_space_group_name_H-M_alt    "P 1"
_space_group_IT_number       1

loop_
  _space_group_symop_operation_xyz
  'x, y, z'

loop_
  _atom_site_type_symbol
  _atom_site_label
  _atom_site_symmetry_multiplicity
  _atom_site_fract_x
  _atom_site_fract_y
  _atom_site_fract_z
  _atom_site_occupancy
  Hg  Hg1       1.0  6.921370499999999e-08  7.337959218e-07  1.3843037289999996e-07  1.0000
  Hg  Hg2       1.0  1.7740945779003998e-06  0.4999990035051383  0.9999995381051361  1.0000
  H   H1        1.0  0.6851894333929919  0.3764607906611771  0.18403922448061386  1.0000
  H   H2        1.0  0.5020510929651464  0.12357857161979519  0.816102842652043  1.0000
  H   H3        1.0  0.31481049881586637  0.6235386839409429  0.8159631642648648  1.0000
  H   H4        1.0  0.49795346699031023  0.8764216367782467  0.1838975145709583  1.0000
  H   H5        1.0  0.9086784765917456  0.2803115106935863  0.09032820029231198  1.0000
  H   H6        1.0  0.8199303972997427  0.2198247126494053  0.9099445557411981  1.0000
  H   H7        1.0  0.09132007453354869  0.7196894315003844  0.9096730047152092  1.0000
  H   H8        1.0  0.18007423186941904  0.7801762295445585  0.09005462956238117  1.0000
  H   H9        1.0  0.613100055357414  0.0204450220442425  0.0966596902104868  1.0000
  H   H10       1.0  0.5170344834938092  0.4795811319100948  0.9034777125256355  1.0000
  H   H11       1.0  0.3869029850870831  0.9795551863537992  0.9033418271133937  1.0000
  H   H12       1.0  0.482967037439721  0.520419076487947  0.09652103384974002  1.0000
  H   H13       1.0  0.10354151536828479  0.9794260382711144  0.247451738461848  1.0000
  H   H14       1.0  0.856338363123484  0.5207265369802485  0.7521524594801362  1.0000
  H   H15       1.0  0.8964597979241373  0.020571968739154994  0.7525492133219912  1.0000
  H   H16       1.0  0.14366453889360287  0.4792722038259427  0.24784681545830267  1.0000
  H   H17       1.0  0.8276520931322224  0.9381346078120103  0.3195590203734184  1.0000
  H   H18       1.0  0.5073334321709168  0.5620091618882626  0.6801558918017887  1.0000
  H   H19       1.0  0.1723477006492331  0.0618633991982591  0.6804424363364062  1.0000
  H   H20       1.0  0.492669677487278  0.43799178030570113  0.3198444536026699  1.0000
  H   H21       1.0  0.6602662753806781  0.0713579846634218  0.4079020936330906  1.0000
  H   H22       1.0  0.2507154258969493  0.4287342109241052  0.5921811042145819  1.0000
  H   H23       1.0  0.3397321373172133  0.9286414899386912  0.5920975241638828  1.0000
  H   H24       1.0  0.7492861642502788  0.5712667312698656  0.40781974611586946  1.0000
  H   H25       1.0  0.6232455187923378  0.24428579978761886  0.46402737329619  1.0000
  H   H26       1.0  0.15734831151663536  0.255724210656382  0.5360782392382077  1.0000
  H   H27       1.0  0.3767498548836201  0.7557136748145012  0.5359706336531502  1.0000
  H   H28       1.0  0.8426503088223569  0.7442774653335036  0.4639231041996936  1.0000
  H   H29       1.0  0.729366673120637  0.4188184265983566  0.48240435156374417  1.0000
  H   H30       1.0  0.24560473365220048  0.0812260722540827  0.5175939018234814  1.0000
  H   H31       1.0  0.2706317395772544  0.5811810480037565  0.5175946110583283  1.0000
  H   H32       1.0  0.754393886686799  0.9187756037358099  0.48240547608971696  1.0000
  H   H33       1.0  0.010053538003951694  0.4625622030366401  0.4110369254297339  1.0000
  H   H34       1.0  0.5985798854045967  0.0375725527145008  0.5888994371836133  1.0000
  H   H35       1.0  0.9899464634186046  0.5374380053614018  0.588962981046528  1.0000
  H   H36       1.0  0.4014186657206977  0.9624283894794701  0.41109849194941717  1.0000
  H   H37       1.0  0.18112791084609364  0.336168056455115  0.3268399687790122  1.0000
  H   H38       1.0  0.8543382984596447  0.1640378775006894  0.673102682141838  1.0000
  H   H39       1.0  0.8188705018517979  0.6638314181470051  0.6731596490179541  1.0000
  H   H40       1.0  0.14566163374921356  0.8359615971014305  0.3268964307291497  1.0000
  H   H41       1.0  0.3036921932227514  0.2308485288209141  0.267613677939785  1.0000
  H   H42       1.0  0.03604178966863  0.2692304584399707  0.7321864802177486  1.0000
  H   H43       1.0  0.696307600558704  0.7691494781893553  0.7323864684202519  1.0000
  H   H44       1.0  0.9639582809676313  0.7307704837539929  0.2678129095139922  1.0000
  C   C1        1.0  0.6691342428997443  0.29658857188751847  0.16621826899871184  1.0000
  C   C2        1.0  0.5037812306467941  0.2034441862301364  0.8339082300402723  1.0000
  C   C3        1.0  0.3308657585228119  0.7034116365105234  0.8337836030022459  1.0000
  C   C4        1.0  0.4962232600949648  0.7965552883719766  0.16609198875235617  1.0000
  C   C5        1.0  0.7926683649714548  0.2432269322687759  0.11313252523767396  1.0000
  C   C6        1.0  0.6807478847014322  0.2568461846247132  0.8870640670561442  1.0000
  C   C7        1.0  0.20733163645110858  0.7567732761292659  0.8868693467632836  1.0000
  C   C8        1.0  0.3192551557430647  0.7431540237733287  0.11293679509284256  1.0000
  C   C9        1.0  0.6311921295642192  0.1002123080007209  0.11671655356787618  1.0000
  C   C10       1.0  0.5152216224161847  0.3998211839128629  0.8834233957014134  1.0000
  C   C11       1.0  0.3688108416665726  0.8997871666013992  0.8832854805005322  1.0000
  C   C12       1.0  0.4847799677310434  0.6001797582811079  0.1165754891043349  1.0000
  C   C13       1.0  0.5108165862975156  0.15356881104798958  0.1707105601395966  1.0000
  C   C14       1.0  0.3405685638318232  0.346428724865298  0.8293652397259378  1.0000
  C   C15       1.0  0.4891847962086046  0.8464299297582087  0.8292911852495237  1.0000
  C   C16       1.0  0.6594299180797663  0.653571483532744  0.1706338613265146  1.0000
  C   C17       1.0  0.3536120957206919  0.0995966532201891  0.19984041561566804  1.0000
  C   C18       1.0  0.15398888909554384  0.4004559173874256  0.8001847682995517  1.0000
  C   C19       1.0  0.6463908062964023  0.9004020875860022  0.8001608248474668  1.0000
  C   C20       1.0  0.8460111123270124  0.5995442910106161  0.19981448300180915  1.0000
  C   C21       1.0  0.0991559134837132  0.1342927259112372  0.2960637076957156  1.0000
  C   C22       1.0  0.8027836028814122  0.3658523029828444  0.7037454981160989  1.0000
  C   C23       1.0  0.9008424992141784  0.8657067486908829  0.7039372204510527  1.0000
  C   C24       1.0  0.19721950677678277  0.6341486392111192  0.2962548472883667  1.0000
  C   C25       1.0  0.0340353741748984  0.0373245296920643  0.287532991550485  1.0000
  C   C26       1.0  0.7462732320686527  0.4628351751205031  0.7121624326078049  1.0000
  C   C27       1.0  0.9659661467586316  0.9626756787059776  0.712468375524487  1.0000
  C   C28       1.0  0.2537282196511725  0.537164299481617  0.28783748568699247  1.0000
  C   C29       1.0  0.8763210049319098  0.014861568855863497  0.32805856456778315  1.0000
  C   C30       1.0  0.5474989732413604  0.4852819924463674  0.6717181602073692  1.0000
  C   C31       1.0  0.1236773385522838  0.9851371719503348  0.671942225148605  1.0000
  C   C32       1.0  0.45250254769216974  0.5147182159516746  0.328281896517808  1.0000
  C   C33       1.0  0.7825975406496113  0.088112013208189  0.37648711405822155  1.0000
  C   C34       1.0  0.4048825967073099  0.4119867865426627  0.6234914414480386  1.0000
  C   C35       1.0  0.21740094126197818  0.91188819518986  0.6235126421691248  1.0000
  C   C36       1.0  0.5951174739289513  0.5880141556513081  0.3765092586334973  1.0000
  C   C37       1.0  0.8431969889338831  0.1879097265116485  0.3858735657355438  1.0000
  C   C38       1.0  0.4561689534061841  0.3121854042595799  0.6141403271148745  1.0000
  C   C39       1.0  0.1567999042530346  0.8120897480904716  0.6141252466376129  1.0000
  C   C40       1.0  0.5438264894834717  0.687814804138462  0.38585847343974666  1.0000
  C   C41       1.0  0.7462119580062064  0.2642780697465312  0.4344024470581047  1.0000
  C   C42       1.0  0.310337091187435  0.23577890363662138  0.5656771856025385  1.0000
  C   C43       1.0  0.2537848659670132  0.73572067105966  0.5655955717097781  1.0000
  C   C44       1.0  0.6896598712131876  0.7642213047614204  0.43432242037589214  1.0000
  C   C45       1.0  0.8054790993095082  0.3614209093956973  0.4443702228503241  1.0000
  C   C46       1.0  0.3599057566684393  0.138661013048889  0.555677607087304  1.0000
  C   C47       1.0  0.19451779387741647  0.6385785652064229  0.5556285895228327  1.0000
  C   C48       1.0  0.6400912749458882  0.8613399291450747  0.44432148214660566  1.0000
  C   C49       1.0  0.9637804573210998  0.3859744548203707  0.40470947250123857  1.0000
  C   C50       1.0  0.5583887575978466  0.11414122223673219  0.5952948291346727  1.0000
  C   C51       1.0  0.03621940567405348  0.6140242859858205  0.5952888467644682  1.0000
  C   C52       1.0  0.4416082048027761  0.8858589861613096  0.404702811319062  1.0000
  C   C53       1.0  0.060519971624657394  0.31343946149429047  0.3565330386980036  1.0000
  C   C54       1.0  0.703576695254469  0.1867173081345754  0.6434575229417872  1.0000
  C   C55       1.0  0.9394768523485623  0.6865592793119006  0.6434662904196812  1.0000
  C   C56       1.0  0.2964217174434225  0.8132821664675376  0.3565401293304902  1.0000
  C   C57       1.0  0.0044803278732387965  0.2127369778161068  0.3456688617668959  1.0000
  C   C58       1.0  0.6581375890428234  0.2873904399757876  0.6542762776499983  1.0000
  C   C59       1.0  0.9955180848246526  0.7872624967860133  0.6543307560300703  1.0000
  C   C60       1.0  0.34186241237974  0.7126097684222543  0.3457236288262635  1.0000
  N   N1        1.0  0.5299857708979586  0.2517793237670816  0.19635902540645836  1.0000
  N   N2        1.0  0.3341074647327247  0.248222614921751  0.8036814766261811  1.0000
  N   N3        1.0  0.4700141613108996  0.7482201508350386  0.8036427081641193  1.0000
  N   N4        1.0  0.6658940562008057  0.7517775934762909  0.19631858009899614  1.0000
  N   N5        1.0  0.7741739880488083  0.1450501741622077  0.08894777409815902  1.0000
  N   N6        1.0  0.6863273149900804  0.355016338567971  0.9112364047143868  1.0000
  N   N7        1.0  0.22582753288471477  0.8549500342358343  0.9110542481517143  1.0000
  N   N8        1.0  0.3136758638818122  0.6449853374219217  0.08876276877065696  1.0000
  N   N9        1.0  0.2552129761299469  0.15895927590825915  0.2568211016918696  1.0000
  N   N10       1.0  0.998416236614986  0.3411255817200214  0.7429926654301581  1.0000
  N   N11       1.0  0.7447868868652064  0.841039464897932  0.7431798382734414  1.0000
  N   N12       1.0  0.0015867346158060973  0.6588738928820987  0.25700740311355463  1.0000
  Cl  Cl1       1.0  0.1645225064243405  0.1227288359393981  0.9536438440344099  1.0000
  Cl  Cl2       1.0  0.21098124815547686  0.3770008644615004  0.04633374606369498  1.0000
  Cl  Cl3       1.0  0.8354821919585261  0.8772728400504874  0.046358100399139325  1.0000
  Cl  Cl4       1.0  0.7890217230753152  0.6229986101406197  0.9536676328298128  1.0000
  O   O1        1.0  0.31946727555448706  0.009641344650035  0.17184074381064107  1.0000
  O   O2        1.0  0.14780553574144048  0.4903752699572834  0.828298297976005  1.0000
  O   O3        1.0  0.680534106951633  0.9903573961561563  0.8281603464035712  1.0000
  O   O4        1.0  0.8521958467646868  0.5096234708489078  0.17170279223821439  1.0000
