data_image0
_chemical_formula_structural       Cd2H40C32N4O12
_chemical_formula_sum              "Cd2 H40 C32 N4 O12"
_cell_length_a       8.851050244000467
_cell_length_b       9.718942413699896
_cell_length_c       10.060854137181963
_cell_angle_alpha    105.03250432107808
_cell_angle_beta     89.99996905650897
_cell_angle_gamma    89.99998810501667

_space_group_name_H-M_alt    "P 1"
_space_group_IT_number       1

loop_
  _space_group_symop_operation_xyz
  'x, y, z'

loop_
  _atom_site_type_symbol
  _atom_site_label
  _atom_site_symmetry_multiplicity
  _atom_site_fract_x
  _atom_site_fract_y
  _atom_site_fract_z
  _atom_site_occupancy
  Cd  Cd1       1.0  0.5000003412023872  0.5000002242494117  0.5000001055680982  1.0000
  Cd  Cd2       1.0  0.0  0.0  0.0  1.0000
  H   H1        1.0  0.37818550446976223  0.3211255429612124  0.2862808793075757  1.0000
  H   H2        1.0  0.8781872236752408  0.1788713639201518  0.21371923273694185  1.0000
  H   H3        1.0  0.621812918316252  0.6788727830417898  0.7137198092450133  1.0000
  H   H4        1.0  0.12181345872973993  0.8211280192332068  0.7862807191195457  1.0000
  H   H5        1.0  0.5499210767177162  0.31571453386282405  0.2226681689974086  1.0000
  H   H6        1.0  0.049922783122887913  0.18428459974853684  0.2773306533760404  1.0000
  H   H7        1.0  0.4500773460687172  0.6842848410962219  0.7773307868845121  1.0000
  H   H8        1.0  0.9500778992821993  0.8157158405555761  0.7226685617849639  1.0000
  H   H9        1.0  0.7857244824669467  0.7319977632431856  0.8816455214940785  1.0000
  H   H10       1.0  0.2857217487221392  0.7680040400444523  0.6183541784394676  1.0000
  H   H11       1.0  0.21427958936652663  0.2680037342110992  0.1183529569705044  1.0000
  H   H12       1.0  0.7142789336826356  0.23199640845437128  0.3816460326967358  1.0000
  H   H13       1.0  0.690463480275291  0.509989503237918  0.9319114305363952  1.0000
  H   H14       1.0  0.19046185751599862  0.9900112591356632  0.5680870674566875  1.0000
  H   H15       1.0  0.3095372021299029  0.4900119942169495  0.06808704792914003  1.0000
  H   H16       1.0  0.8095376950795556  0.009988124017894498  0.43191288440010567  1.0000
  H   H17       1.0  0.7942107424875433  0.439266322092159  0.13882747497673617  1.0000
  H   H18       1.0  0.29421129517214695  0.06073379319718698  0.36117146995506727  1.0000
  H   H19       1.0  0.20578881010842312  0.5607341100174423  0.8611707442093957  1.0000
  H   H20       1.0  0.7057893872328268  0.9392655899561786  0.6388284819014131  1.0000
  H   H21       1.0  0.06581236845607212  0.8212251238142585  0.22226996096147644  1.0000
  H   H22       1.0  0.5658140482841107  0.6787718143669678  0.2777293068484141  1.0000
  H   H23       1.0  0.9341860543301481  0.1787721368432854  0.7777304683113966  1.0000
  H   H24       1.0  0.43418550431174213  0.32122756059189317  0.7222696490331869  1.0000
  H   H25       1.0  0.13906469432326676  0.5865495248489978  0.30158631242491646  1.0000
  H   H26       1.0  0.6390652405586011  0.9134505842803264  0.1984136922272981  1.0000
  H   H27       1.0  0.8609348582720816  0.4134509236500179  0.6984138987116066  1.0000
  H   H28       1.0  0.3609343120372587  0.08654879067853466  0.8015852636543099  1.0000
  H   H29       1.0  0.9876623055731956  0.4710029609844142  0.3091159369339067  1.0000
  H   H30       1.0  0.4876629701874223  0.028997096243678286  0.19088389570394773  1.0000
  H   H31       1.0  0.012337247022152602  0.5289974875146016  0.6908842742026164  1.0000
  H   H32       1.0  0.512337712217864  0.971002278714984  0.8091150601773406  1.0000
  H   H33       1.0  0.06393793747580652  0.6622809323697608  0.5308080780124199  1.0000
  H   H34       1.0  0.5639372042077115  0.8377188243818169  0.9691922234636862  1.0000
  H   H35       1.0  0.9360627449291672  0.3377184507836049  0.4691918738440605  1.0000
  H   H36       1.0  0.43606234838784275  0.1622805587717409  0.030807728393107005  1.0000
  H   H37       1.0  0.9794699752026265  0.7894434842527429  0.46030256541243375  1.0000
  H   H38       1.0  0.47946843255911636  0.7105565082902814  0.0396972487255951  1.0000
  H   H39       1.0  0.020531837011269302  0.21055697244059252  0.5396986416986491  1.0000
  H   H40       1.0  0.5205311200367434  0.28944286666857266  0.9603017071560057  1.0000
  C   C1        1.0  0.8251491583917315  0.699675985575112  0.9714397624086856  1.0000
  C   C2        1.0  0.32514534286230673  0.8003258124047078  0.5285609114355339  1.0000
  C   C3        1.0  0.17485491344123724  0.3003265854193273  0.028559971310812702  1.0000
  C   C4        1.0  0.6748553395426741  0.1996735707486579  0.47143904042094675  1.0000
  C   C5        1.0  0.7737182865728587  0.5751549204396865  0.00010585203025222578  1.0000
  C   C6        1.0  0.27371641263495416  0.9248451507667498  0.49989507323619614  1.0000
  C   C7        1.0  0.22628352564134255  0.42484552805893827  0.9998943591056315  1.0000
  C   C8        1.0  0.7262831399602875  0.0751542405815186  0.5001058745957961  1.0000
  C   C9        1.0  0.8313792095522461  0.53698010849309  0.11444632972581562  1.0000
  C   C10       1.0  0.33137626762747635  0.9630209837263664  0.3855518346239606  1.0000
  C   C11       1.0  0.16862147285325343  0.46302138076707433  0.8855511527645277  1.0000
  C   C12       1.0  0.6686221551583388  0.0369784076220867  0.6144491132083515  1.0000
  C   C13       1.0  0.9404362890227702  0.6235946586904789  0.1967594162980077  1.0000
  C   C14       1.0  0.4404401960348353  0.8764021593787419  0.3032406378205366  1.0000
  C   C15       1.0  0.059559874144902415  0.37640259377275237  0.8032400170003056  1.0000
  C   C16       1.0  0.5595593565605129  0.12359828912027379  0.6967595733159795  1.0000
  C   C17       1.0  0.9822234172553409  0.7485494140726843  0.1617028675320427  1.0000
  C   C18       1.0  0.48222168165140294  0.7514473896856727  0.33829716320106223  1.0000
  C   C19       1.0  0.017778394959158603  0.25144784658428415  0.8382975617398782  1.0000
  C   C20       1.0  0.517777870944258  0.24855305061863214  0.6617020519602618  1.0000
  C   C21       1.0  0.015836376607104807  0.5822497669810147  0.3147488385991437  1.0000
  C   C22       1.0  0.5158358001706703  0.9177503925481288  0.18525223099581467  1.0000
  C   C23       1.0  0.9841643057970588  0.4177506979072163  0.685253364487444  1.0000
  C   C24       1.0  0.4841637524246851  0.0822500559508867  0.8147479801407014  1.0000
  C   C25       1.0  0.9763517147130544  0.6756050062398058  0.45780434393843433  1.0000
  C   C26       1.0  0.47635127482338663  0.8243960609111695  0.04219672719939643  1.0000
  C   C27       1.0  0.023648967691720202  0.32439544225901773  0.5421958671977689  1.0000
  C   C28       1.0  0.5236482777719688  0.17560438758783897  0.9578034839371196  1.0000
  C   C29       1.0  0.8255390884625273  0.6453548498573055  0.5174156442492617  1.0000
  C   C30       1.0  0.3255395005331821  0.8546469561829467  0.9825860253507341  1.0000
  C   C31       1.0  0.17446046413211752  0.35464773752732276  0.4825860814218926  1.0000
  C   C32       1.0  0.674460052062365  0.1453524269706108  0.017413926506058906  1.0000
  N   N1        1.0  0.92601768747042  0.7860138603498682  0.051997388523524514  1.0000
  N   N2        1.0  0.42601476292841073  0.7139840361989584  0.44800392892150837  1.0000
  N   N3        1.0  0.07398525455299422  0.21398447384706287  0.9480042960029916  1.0000
  N   N4        1.0  0.573985919476364  0.2860164122998654  0.5519962822146949  1.0000
  O   O1        1.0  0.46457638183419925  0.3786270334128403  0.2667444042368956  1.0000
  O   O2        1.0  0.9645769720942854  0.12137196637659287  0.2332551820417663  1.0000
  O   O3        1.0  0.5354231707613551  0.6213723497407172  0.7332555476199045  1.0000
  O   O4        1.0  0.03542258050106991  0.8786284821224157  0.7667450290947571  1.0000
  O   O5        1.0  0.7442956557240025  0.5462016425273005  0.44528778272871955  1.0000
  O   O6        1.0  0.24429517912256668  0.9538027165271855  0.054716188073584235  1.0000
  O   O7        1.0  0.25570502667925876  0.45380202659199376  0.5547161941722221  1.0000
  O   O8        1.0  0.7557055032825206  0.046197723776934686  0.9452830270874271  1.0000
  O   O9        1.0  0.7929666369533735  0.7216140753871443  0.6382778237235839  1.0000
  O   O10       1.0  0.29296488089202205  0.778389864305545  0.8617233866911034  1.0000
  O   O11       1.0  0.2070340454504987  0.27838957734274317  0.3617241612269736  1.0000
  O   O12       1.0  0.7070346717039444  0.22161056780406335  0.1382748324950285  1.0000
