data_image0
_chemical_formula_structural       Ca2H16C12N4O12
_chemical_formula_sum              "Ca2 H16 C12 N4 O12"
_cell_length_a       5.156760457231999
_cell_length_b       7.059596971511281
_cell_length_c       12.76273995617403
_cell_angle_alpha    90.001182893374
_cell_angle_beta     90.00065325916141
_cell_angle_gamma    106.98049061930418

_space_group_name_H-M_alt    "P 1"
_space_group_IT_number       1

loop_
  _space_group_symop_operation_xyz
  'x, y, z'

loop_
  _atom_site_type_symbol
  _atom_site_label
  _atom_site_symmetry_multiplicity
  _atom_site_fract_x
  _atom_site_fract_y
  _atom_site_fract_z
  _atom_site_occupancy
  Ca  Ca1       1.0  0.9999959111847192  0.49999873436861725  0.9999997511337355  1.0000
  Ca  Ca2       1.0  1.1460210700167288e-06  0.9999958886800329  0.5000003182882153  1.0000
  H   H1        1.0  0.005761774262033755  0.9088455073336237  0.8656148680721145  1.0000
  H   H2        1.0  0.9942222757412295  0.5911785032173142  0.3656043588108275  1.0000
  H   H3        1.0  0.9942354359092533  0.09116608476960407  0.13438543317787582  1.0000
  H   H4        1.0  0.005785820789924435  0.40883600010662496  0.6343959424814329  1.0000
  H   H5        1.0  0.8121415736813233  0.07445637210364003  0.8802294586335861  1.0000
  H   H6        1.0  0.18783778022667263  0.42555004045450323  0.38021515087663005  1.0000
  H   H7        1.0  0.18785188506213757  0.9255507870741865  0.11977240964355931  1.0000
  H   H8        1.0  0.8121507160806944  0.5744497236159135  0.6197843667536135  1.0000
  H   H9        1.0  0.3232280990296985  0.739455123318706  0.7825352865776766  1.0000
  H   H10       1.0  0.6767558255048486  0.7605456968880305  0.2825276126516556  1.0000
  H   H11       1.0  0.6767640301749296  0.2605535271697974  0.2174704993590808  1.0000
  H   H12       1.0  0.323234000377802  0.2394525759082597  0.7174695543805996  1.0000
  H   H13       1.0  0.3932601045351518  0.7820105789107714  0.6460109374759  1.0000
  H   H14       1.0  0.6067296844592321  0.7179852922285478  0.1460024431955702  1.0000
  H   H15       1.0  0.606732262076875  0.21798916493961681  0.3539940648789255  1.0000
  H   H16       1.0  0.39325881182990946  0.2820144718235938  0.8539962909038578  1.0000
  C   C1        1.0  0.6200153493120625  0.7906791463861327  0.9432392288306845  1.0000
  C   C2        1.0  0.37996262490430155  0.7093247889629026  0.4432389789074165  1.0000
  C   C3        1.0  0.3799661308307449  0.20931768613388607  0.05676107229700021  1.0000
  C   C4        1.0  0.6200604656623412  0.2906836986870545  0.5567644565081552  1.0000
  C   C5        1.0  0.7986177978376362  0.9200133683423176  0.8601508706252474  1.0000
  C   C6        1.0  0.20139997487284947  0.5799938822470097  0.3601443696585065  1.0000
  C   C7        1.0  0.2013827958196543  0.07999226911254452  0.1398517811905222  1.0000
  C   C8        1.0  0.7986046075832149  0.4200072814585809  0.6398543644865528  1.0000
  C   C9        1.0  0.7114260561237274  0.8908973562352998  0.7465495001044431  1.0000
  C   C10       1.0  0.28852244273434025  0.609085635892619  0.24653199030410633  1.0000
  C   C11       1.0  0.28857453751533774  0.10910828120128707  0.2534523681805112  1.0000
  C   C12       1.0  0.7114694370043537  0.39090817347459955  0.7534675272994775  1.0000
  N   N1        1.0  0.45777398159928856  0.7908145584299647  0.7230251660177985  1.0000
  N   N2        1.0  0.5422415312107562  0.70920111577302  0.22302253715521658  1.0000
  N   N3        1.0  0.542207985343957  0.209188208500116  0.2769774857378877  1.0000
  N   N4        1.0  0.45775966764994547  0.2908060024712854  0.7769691452391854  1.0000
  O   O1        1.0  0.7388578895836845  0.7197721228606399  0.014366451110532802  1.0000
  O   O2        1.0  0.26116593685809164  0.7802352063918648  0.5143547203655103  1.0000
  O   O3        1.0  0.2611556442895094  0.2802319623858551  0.985638551318843  1.0000
  O   O4        1.0  0.7388709364623693  0.2197643031279455  0.4856361785371207  1.0000
  O   O5        1.0  0.3657290628446788  0.7631076849947576  0.9396248318548575  1.0000
  O   O6        1.0  0.6342904602049588  0.7368795357054626  0.4396166853037329  1.0000
  O   O7        1.0  0.6342913564581779  0.23688003738921282  0.060373902249146696  1.0000
  O   O8        1.0  0.36571508368408706  0.2631097489511944  0.5603749969973393  1.0000
  O   O9        1.0  0.8876660324066068  0.9648425252270839  0.6773912093701355  1.0000
  O   O10       1.0  0.1123490433086474  0.5351561691016613  0.1773955259090698  1.0000
  O   O11       1.0  0.1123240309928093  0.03514684104074921  0.3226098752650586  1.0000
  O   O12       1.0  0.8876411387489043  0.4648287438014195  0.8226032081081343  1.0000
