data_image0
_chemical_formula_structural       Zn2H29C52Br3N2O8
_chemical_formula_sum              "Zn2 H29 C52 Br3 N2 O8"
_cell_length_a       13.614853610588495
_cell_length_b       18.314291407966586
_cell_length_c       19.64669018864207
_cell_angle_alpha    87.40852278012689
_cell_angle_beta     88.0164238076838
_cell_angle_gamma    68.17583375654917

_space_group_name_H-M_alt    "P 1"
_space_group_IT_number       1

loop_
  _space_group_symop_operation_xyz
  'x, y, z'

loop_
  _atom_site_type_symbol
  _atom_site_label
  _atom_site_symmetry_multiplicity
  _atom_site_fract_x
  _atom_site_fract_y
  _atom_site_fract_z
  _atom_site_occupancy
  Zn  Zn1       1.0  0.48066246085313935  0.5819277373031256  0.49849187697492436  1.0000
  Zn  Zn2       1.0  0.5118885487122142  0.4195311075636424  0.5085305907506097  1.0000
  H   H1        1.0  0.8465571537608272  0.3158570380760892  0.5591293959881016  1.0000
  H   H2        1.0  0.5404169448567232  0.3722117419697568  0.1618458925782704  1.0000
  H   H3        1.0  0.4621090031655727  0.6228867727746489  0.15654869199070734  1.0000
  H   H4        1.0  0.4571093302768788  0.6206292878740315  0.2836534152029841  1.0000
  H   H5        1.0  0.3687889556261724  0.6066687807269204  0.0638594186115213  1.0000
  H   H6        1.0  0.37346855662924866  0.6093561772421409  0.9382459974894177  1.0000
  H   H7        1.0  0.6495990347834207  0.3951765372277691  0.9411502509344275  1.0000
  H   H8        1.0  0.6438282755771924  0.39194528999018985  0.06683311186399982  1.0000
  H   H9        1.0  0.5650922074677923  0.3780307834906296  0.8473671873100986  1.0000
  H   H10       1.0  0.5636558886370723  0.3816678048542597  0.7204588990462  1.0000
  H   H11       1.0  0.46046896545478705  0.6331653117713286  0.716536120276601  1.0000
  H   H12       1.0  0.16769105500117823  0.3491925767640538  0.6022718756534218  1.0000
  H   H13       1.0  0.4639813902455502  0.6308335672390655  0.8434502922315306  1.0000
  H   H14       1.0  0.6329544260235592  0.6489811527628716  0.5424368483216071  1.0000
  H   H15       1.0  0.6546024962973008  0.7792548817743351  0.5377795023171786  1.0000
  H   H16       1.0  0.36810048702097486  0.8720684769884741  0.4211933736174558  1.0000
  H   H17       1.0  0.355740830734902  0.9646658866695008  0.519590234612167  1.0000
  H   H18       1.0  0.34997212334658206  0.10078357875783439  0.5258762455684478  1.0000
  H   H19       1.0  0.6690549149811035  0.025572831301708704  0.4437599099758103  1.0000
  H   H20       1.0  0.5879846500114995  0.16118123076108054  0.3964272787514247  1.0000
  H   H21       1.0  0.42994836369512524  0.16869777994003238  0.5922141902192878  1.0000
  H   H22       1.0  0.8063669892538031  0.5408230757504313  0.46847976222672844  1.0000
  H   H23       1.0  0.16937834224023618  0.6705593566015436  0.42305114302180163  1.0000
  H   H24       1.0  0.9946161391703114  0.690722394749514  0.3732803338277222  1.0000
  H   H25       1.0  0.24489766182377085  0.4480731177644942  0.5724250480621721  1.0000
  H   H26       1.0  0.3583305268366459  0.7377963444030159  0.4318012710134695  1.0000
  H   H27       1.0  0.031491439105863564  0.29759996551373297  0.5916102367872043  1.0000
  H   H28       1.0  0.5814685963062799  0.29686681701500117  0.41647270365898953  1.0000
  H   H29       1.0  0.5354797659681267  0.3712243865052685  0.288832581160186  1.0000
  C   C1        1.0  0.5062439902749533  0.5090471932420326  0.6348520971059701  1.0000
  C   C2        1.0  0.01794541532701294  0.5295208549387026  0.4779319381902739  1.0000
  C   C3        1.0  0.12142660566961883  0.5174848482889801  0.5035716268172763  1.0000
  C   C4        1.0  0.9671091866271551  0.47512333360842257  0.5022976652880617  1.0000
  C   C5        1.0  0.026511532985402726  0.40658621912361065  0.5426209181346096  1.0000
  C   C6        1.0  0.12697347146645657  0.39874902254474154  0.5675480870632725  1.0000
  C   C7        1.0  0.17003025764677915  0.4534369307204499  0.5511118042887446  1.0000
  C   C8        1.0  0.8602180301664221  0.48665194882828894  0.4918239374445222  1.0000
  C   C9        1.0  0.8812003690693617  0.3593825256594839  0.5448742613645834  1.0000
  C   C10       1.0  0.17597542284139672  0.5679573279786538  0.4823661775903503  1.0000
  C   C11       1.0  0.5201460035175957  0.42600305027090707  0.2592647755194335  1.0000
  C   C12       1.0  0.2895357679258054  0.5515676993995555  0.4993963579854111  1.0000
  C   C13       1.0  0.5234926536143902  0.4267981498378576  0.18836564953960533  1.0000
  C   C14       1.0  0.5021924630071554  0.49763013656001215  0.1500828437235526  1.0000
  C   C15       1.0  0.47721519105935784  0.5675993145152631  0.18539076302455024  1.0000
  C   C16       1.0  0.47468133695814874  0.5667198157669803  0.2561986387521174  1.0000
  C   C17       1.0  0.4961161428328823  0.4959066113483244  0.2939676079350946  1.0000
  C   C18       1.0  0.4315252951020768  0.5606574594552  0.0370650915023205  1.0000
  C   C19       1.0  0.4343677509516084  0.5622704313849383  0.9662075365067014  1.0000
  C   C20       1.0  0.5120253212811293  0.5025778345890187  0.9299692445499446  1.0000
  C   C21       1.0  0.5866094376603714  0.4410883730327128  0.967840396855614  1.0000
  C   C22       1.0  0.5833525233864807  0.4392511627945694  0.0387473241485665  1.0000
  C   C23       1.0  0.4935738026077346  0.49589283948712637  0.37025927157601773  1.0000
  C   C24       1.0  0.5057661629464647  0.49901988968568417  0.074897438607394  1.0000
  C   C25       1.0  0.5433921521561801  0.4341950459564643  0.8189815933124224  1.0000
  C   C26       1.0  0.5419473958993494  0.4358134934303806  0.7481952381751783  1.0000
  C   C27       1.0  0.5111365039146635  0.5076140324167967  0.7109332753189364  1.0000
  C   C28       1.0  0.4832688032131145  0.5776772639703651  0.7459528725152965  1.0000
  C   C29       1.0  0.4844770027566697  0.5759745956309742  0.8167947302559144  1.0000
  C   C30       1.0  0.5138082173940148  0.5042692937320866  0.8547584418897501  1.0000
  C   C31       1.0  0.5764134441522657  0.7005220596170502  0.5164323134516451  1.0000
  C   C32       1.0  0.587941107786463  0.7728723397420724  0.513183429779076  1.0000
  C   C33       1.0  0.5120712548039851  0.8370385896637343  0.47930158011592294  1.0000
  C   C34       1.0  0.7031269369089018  0.4475533691775553  0.501909040337928  1.0000
  C   C35       1.0  0.42817064290485274  0.8244135105607382  0.44902364055264604  1.0000
  C   C36       1.0  0.42233660447008253  0.7502169554764606  0.4542849964181528  1.0000
  C   C37       1.0  0.42426603930325507  0.9784696363875938  0.5027927160442118  1.0000
  C   C38       1.0  0.42147259531032694  0.05470757495523769  0.5070392288068248  1.0000
  C   C39       1.0  0.5097011229334854  0.0728275781234018  0.4860438876979671  1.0000
  C   C40       1.0  0.5995521289282593  0.012957966840446004  0.46013299610349634  1.0000
  C   C41       1.0  0.6019917317053823  0.9363703604398596  0.4570942119362726  1.0000
  C   C42       1.0  0.5147244962337825  0.9171120784758883  0.47885605708795953  1.0000
  C   C43       1.0  0.553367256439856  0.1899265654089177  0.4435766416696438  1.0000
  C   C44       1.0  0.550367369955872  0.26508701494879017  0.4541441218197378  1.0000
  C   C45       1.0  0.9829547578568666  0.3493638018338601  0.5616725996444316  1.0000
  C   C46       1.0  0.46546868807649844  0.2695749559512635  0.5581446191223023  1.0000
  C   C47       1.0  0.4637078573482469  0.1946644921263072  0.5514032231123311  1.0000
  C   C48       1.0  0.5089327347997143  0.15294762406240636  0.49303511962575197  1.0000
  C   C49       1.0  0.8180548825724472  0.43044657857904417  0.5119378921579525  1.0000
  C   C50       1.0  0.12756362497061957  0.6318525360873579  0.438392327069728  1.0000
  C   C51       1.0  0.02945346758964711  0.6434565282669951  0.4110612774534276  1.0000
  C   C52       1.0  0.97733632856054  0.5928039221890913  0.4290283230391765  1.0000
  Br  Br1       1.0  0.7263719204294221  0.8590085903979201  0.41992698855138144  1.0000
  Br  Br2       1.0  0.4082063185605093  0.32162887420517444  0.6397370281759791  1.0000
  Br  Br3       1.0  0.852252105661833  0.6148606531419462  0.37639877987610504  1.0000
  N   N1        1.0  0.4947719073782438  0.6895989855798206  0.48777288799687574  1.0000
  N   N2        1.0  0.5071938509366661  0.3050808524608541  0.510917253984978  1.0000
  O   O1        1.0  0.4856938803137112  0.5749952402002875  0.6029132331076144  1.0000
  O   O2        1.0  0.5225235551611506  0.4435009950139417  0.6077852832989521  1.0000
  O   O3        1.0  0.31767917937558116  0.6103194603003956  0.5018837819196449  1.0000
  O   O4        1.0  0.35081490414940236  0.4795977773677435  0.5064627373634353  1.0000
  O   O5        1.0  0.47291590736591627  0.5620858303721263  0.3972202166555476  1.0000
  O   O6        1.0  0.5119814228084678  0.43027274386766123  0.4024869129987536  1.0000
  O   O7        1.0  0.6432232692376234  0.5198178111793723  0.49479584215698946  1.0000
  O   O8        1.0  0.6734756900691751  0.3891834940150432  0.5026877163468201  1.0000
