data_image0
_chemical_formula_structural       Li4H28C16N8O20
_chemical_formula_sum              "Li4 H28 C16 N8 O20"
_cell_length_a       6.334023540125905
_cell_length_b       7.133323561835944
_cell_length_c       16.54235647219447
_cell_angle_alpha    89.99973816020254
_cell_angle_beta     89.99960215131226
_cell_angle_gamma    107.26072521885732

_space_group_name_H-M_alt    "P 1"
_space_group_IT_number       1

loop_
  _space_group_symop_operation_xyz
  'x, y, z'

loop_
  _atom_site_type_symbol
  _atom_site_label
  _atom_site_symmetry_multiplicity
  _atom_site_fract_x
  _atom_site_fract_y
  _atom_site_fract_z
  _atom_site_occupancy
  Li  Li1       1.0  0.26551075626721843  0.48571124525574305  0.5803469400125536  1.0000
  Li  Li2       1.0  0.7344974983194206  0.014284517523094594  0.08034729553299509  1.0000
  Li  Li3       1.0  0.7344927260419923  0.5142898374433853  0.4196527365090573  1.0000
  Li  Li4       1.0  0.2655059839826492  0.9857165651710671  0.9196529854974074  1.0000
  H   H1        1.0  0.2143886730430894  0.9787067423674287  0.7619880988907397  1.0000
  H   H2        1.0  0.7856165552237756  0.5212919372216759  0.2619876996648429  1.0000
  H   H3        1.0  0.785612159647613  0.021295828150115898  0.23801157763287506  1.0000
  H   H4        1.0  0.2143843492258455  0.47870621951438597  0.738011976863177  1.0000
  H   H5        1.0  0.7608819819738531  0.7504882028555288  0.5825742305505556  1.0000
  H   H6        1.0  0.23912540862449566  0.7495119686817304  0.0825730050901896  1.0000
  H   H7        1.0  0.23911469743079294  0.2495114516287344  0.4174260504903557  1.0000
  H   H8        1.0  0.760871772014568  0.2504891537613858  0.9174260669309575  1.0000
  H   H9        1.0  0.5646805796201592  0.6541197163680224  0.8284948132269888  1.0000
  H   H10       1.0  0.43532092885966006  0.845880825435891  0.3284989144111207  1.0000
  H   H11       1.0  0.43532182846843875  0.3458828441998633  0.1715066768209255  1.0000
  H   H12       1.0  0.564679903838183  0.1541217450866199  0.6715001576036953  1.0000
  H   H13       1.0  0.47289612050117574  0.2649085582501911  0.5139669877464427  1.0000
  H   H14       1.0  0.5271010990773632  0.23508837544208205  0.0139668394803536  1.0000
  H   H15       1.0  0.5271037097492554  0.7350910763695352  0.4860326887814992  1.0000
  H   H16       1.0  0.4728993041592701  0.7649083133500482  0.9860322325410351  1.0000
  H   H17       1.0  0.24031390246641143  0.14835956444773052  0.5527835302644277  1.0000
  H   H18       1.0  0.7596846201791221  0.35162936147908397  0.052781921107346384  1.0000
  H   H19       1.0  0.7596859277768787  0.8516400701670219  0.4472167507723057  1.0000
  H   H20       1.0  0.24031420763105163  0.6483673372428241  0.9472177554249227  1.0000
  H   H21       1.0  0.223203919704261  0.797707974007693  0.5404563513479272  1.0000
  H   H22       1.0  0.776801386923161  0.7022884961284532  0.0404550015604954  1.0000
  H   H23       1.0  0.776794836339839  0.20229313849072378  0.4595439296887349  1.0000
  H   H24       1.0  0.223197440887013  0.2977082025934549  0.9595446749717735  1.0000
  H   H25       1.0  0.17921471033052686  0.6813476845739287  0.4548472018803195  1.0000
  H   H26       1.0  0.8207875367191663  0.8186478140499743  0.9548475243818046  1.0000
  H   H27       1.0  0.8207866953392298  0.31865194011104586  0.5451524746455334  1.0000
  H   H28       1.0  0.17921494313550576  0.1813503327413954  0.04515336116172361  1.0000
  C   C1        1.0  0.00896830019785713  0.8727428842378018  0.6635847247680785  1.0000
  C   C2        1.0  0.9910492067130292  0.6272588216293825  0.1635877945309048  1.0000
  C   C3        1.0  0.9910336066706054  0.1272582083811713  0.3364167652820029  1.0000
  C   C4        1.0  0.008950122317273226  0.3727393450414311  0.8364118819991972  1.0000
  C   C5        1.0  0.6316031899074659  0.6853232015573311  0.7005147396292414  1.0000
  C   C6        1.0  0.3683986927145924  0.814680932344636  0.2005178734460316  1.0000
  C   C7        1.0  0.3683997194084015  0.314680826964434  0.2994861459077142  1.0000
  C   C8        1.0  0.6315973419592068  0.1853260817586388  0.7994818030794235  1.0000
  C   C9        1.0  0.6884494668377813  0.7158838250301828  0.782593628208694  1.0000
  C   C10       1.0  0.31155462984148136  0.7841218753671484  0.2825939530249073  1.0000
  C   C11       1.0  0.3115487879790493  0.2841158195143549  0.21740725733892668  1.0000
  C   C12       1.0  0.6884409753639815  0.21587925700077185  0.7174063280159189  1.0000
  C   C13       1.0  0.9018854070059843  0.8256741390147725  0.8051867486334103  1.0000
  C   C14       1.0  0.09811400262653792  0.674328273897352  0.3051842380856016  1.0000
  C   C15       1.0  0.09811657162855172  0.17432253982769202  0.19481413691228505  1.0000
  C   C16       1.0  0.9018869018088014  0.3256698828287696  0.6948166474600157  1.0000
  N   N1        1.0  0.05505897257267378  0.8998656954010256  0.7437261804643782  1.0000
  N   N2        1.0  0.9449482626039301  0.6001332745338601  0.2437239875940165  1.0000
  N   N3        1.0  0.944941358883611  0.10013540715767279  0.2562747050789937  1.0000
  N   N4        1.0  0.05505163940542704  0.39986194630438376  0.7562756889383309  1.0000
  N   N5        1.0  0.798450279426902  0.7672391574264309  0.6440829335340297  1.0000
  N   N6        1.0  0.201563964478794  0.7327658348290457  0.1440818421538239  1.0000
  N   N7        1.0  0.20154955080925427  0.2327604771833549  0.3559179520115094  1.0000
  N   N8        1.0  0.798435865778778  0.2672337997956546  0.8559172298653194  1.0000
  O   O1        1.0  0.15496684999089896  0.9412531335968594  0.6105841520037529  1.0000
  O   O2        1.0  0.845056062486613  0.5587523597841012  0.11058230926165889  1.0000
  O   O3        1.0  0.8450329802523981  0.0587465010178931  0.3894161290329805  1.0000
  O   O4        1.0  0.1549442689768128  0.4412487427795638  0.8894179717729145  1.0000
  O   O5        1.0  0.44210186369532073  0.5901254511288628  0.6734989861330403  1.0000
  O   O6        1.0  0.5579031633292787  0.909886466721332  0.1735014216930253  1.0000
  O   O7        1.0  0.5578989689596696  0.40987711936383414  0.3265037129345528  1.0000
  O   O8        1.0  0.442090221718871  0.09012203519539237  0.8264988593432321  1.0000
  O   O9        1.0  0.9733595321977901  0.8657048121202421  0.8774332725251597  1.0000
  O   O10       1.0  0.026646047572626296  0.6342963632204076  0.3774316382566667  1.0000
  O   O11       1.0  0.026643520643077113  0.13429038884353156  0.1225670085118225  1.0000
  O   O12       1.0  0.973351204811081  0.36570034543127866  0.6225686427864829  1.0000
  O   O13       1.0  0.3154712145571565  0.2672576011654114  0.5208924474252825  1.0000
  O   O14       1.0  0.6845264143722929  0.23273627282305395  0.0208924898553065  1.0000
  O   O15       1.0  0.6845301911054592  0.7327420235145894  0.4791078336093761  1.0000
  O   O16       1.0  0.31547499130460477  0.7672633518668945  0.9791065821617551  1.0000
  O   O17       1.0  0.26859684550944973  0.7007259645023964  0.5066595121988513  1.0000
  O   O18       1.0  0.7314024566942051  0.7992696330934237  0.0066611076875986  1.0000
  O   O19       1.0  0.7314050613733015  0.299275128126517  0.493340768833633  1.0000
  O   O20       1.0  0.2685947956895022  0.20072707555826946  0.9933391733555582  1.0000
