data_image0
_chemical_formula_structural       K4H58C40N4O2
_chemical_formula_sum              "K4 H58 C40 N4 O2"
_cell_length_a       9.357466563377201
_cell_length_b       10.295423107853889
_cell_length_c       11.910782016260702
_cell_angle_alpha    74.58426857336251
_cell_angle_beta     69.77349136853955
_cell_angle_gamma    80.65097235926714

_space_group_name_H-M_alt    "P 1"
_space_group_IT_number       1

loop_
  _space_group_symop_operation_xyz
  'x, y, z'

loop_
  _atom_site_type_symbol
  _atom_site_label
  _atom_site_symmetry_multiplicity
  _atom_site_fract_x
  _atom_site_fract_y
  _atom_site_fract_z
  _atom_site_occupancy
  K   K1        1.0  0.009648867992311197  0.36783133389387507  0.9041959680864197  1.0000
  K   K2        1.0  0.9903521756680577  0.6321668228749502  0.09580278209804037  1.0000
  K   K3        1.0  0.8237172470041114  0.6117715745266847  0.6376894687224706  1.0000
  K   K4        1.0  0.1762953476216254  0.38822455959041235  0.3623091664754697  1.0000
  H   H1        1.0  0.14241548825505387  0.4972699434941747  0.6453869626723332  1.0000
  H   H2        1.0  0.8575851141076639  0.502733267648118  0.35460991150461774  1.0000
  H   H3        1.0  0.4135751242120874  0.438514703125911  0.5491588841180217  1.0000
  H   H4        1.0  0.5864262268536109  0.5614925434895355  0.450841904988799  1.0000
  H   H5        1.0  0.5043062664843774  0.2145719567022795  0.4925072323599694  1.0000
  H   H6        1.0  0.49570206917202597  0.7854332639337611  0.5074963455484891  1.0000
  H   H7        1.0  0.30985511526297665  0.05089274933756369  0.5367928415544228  1.0000
  H   H8        1.0  0.6901555254177865  0.949112477815767  0.46320591915424814  1.0000
  H   H9        1.0  0.03893824314786799  0.10512386174676183  0.6343412009877127  1.0000
  H   H10       1.0  0.96106737234642  0.8948742995631066  0.36565380408217174  1.0000
  H   H11       1.0  0.8468708962600219  0.14424796883787389  0.7681232790402744  1.0000
  H   H12       1.0  0.15313698058457698  0.8557501892823894  0.23187363944124684  1.0000
  H   H13       1.0  0.7021684133185317  0.27222022963951525  0.9295055883486186  1.0000
  H   H14       1.0  0.29783596304182686  0.7277789396504132  0.0704911977217294  1.0000
  H   H15       1.0  0.5784050635990142  0.20694241013182338  0.877313059330362  1.0000
  H   H16       1.0  0.42159913951783784  0.7930587816355085  0.12268247154112541  1.0000
  H   H17       1.0  0.611332950916932  0.381261903375723  0.8271500064276792  1.0000
  H   H18       1.0  0.38867238014545075  0.6187392861901272  0.17284690181283935  1.0000
  H   H19       1.0  0.8429422219751501  0.23715694214581626  0.5507655397092748  1.0000
  H   H20       1.0  0.15706083135915344  0.76284424696955  0.4492319790988902  1.0000
  H   H21       1.0  0.6923067059037321  0.35780148232469605  0.6029620821222892  1.0000
  H   H22       1.0  0.3076974024024893  0.6422007188612966  0.39703408313940974  1.0000
  H   H23       1.0  0.6626898499614314  0.1826456801108023  0.6532297536436785  1.0000
  H   H24       1.0  0.33731548110094417  0.8173555094550479  0.34676715459684004  1.0000
  H   H25       1.0  0.8109709729974953  0.5867604606254276  0.9674390150129142  1.0000
  H   H26       1.0  0.1890247501259736  0.41323365612920054  0.032559565356244595  1.0000
  H   H27       1.0  0.5833003269586143  0.7136355162780036  0.9262122947580167  1.0000
  H   H28       1.0  0.41669712140688375  0.2863646610791406  0.07378695740547413  1.0000
  H   H29       1.0  0.6050970432216687  0.91262911919425  0.7465064806730057  1.0000
  H   H30       1.0  0.39490018822627343  0.08737307093340968  0.2534982469030497  1.0000
  H   H31       1.0  0.865442122922005  0.9738834981858133  0.6067652976837011  1.0000
  H   H32       1.0  0.13455283625711437  0.026118692704720597  0.3932391991335678  1.0000
  H   H33       1.0  0.09527086076671758  0.8499104470159655  0.6448015330231626  1.0000
  H   H34       1.0  0.9047233387909156  0.1500877059746912  0.35520073151709414  1.0000
  H   H35       1.0  0.25745514201337727  0.6876413195669571  0.6642742345881203  1.0000
  H   H36       1.0  0.742542206082227  0.3123598659954894  0.33572649329201454  1.0000
  H   H37       1.0  0.341943902666081  0.4594834591148428  0.7736781471765112  1.0000
  H   H38       1.0  0.6580535347809047  0.5405167158155776  0.22632278763983765  1.0000
  H   H39       1.0  0.3715567174901722  0.5371658828173125  0.8802469927426984  1.0000
  H   H40       1.0  0.6284395026599084  0.4628353049466156  0.11975235776839814  1.0000
  H   H41       1.0  0.48215466918065175  0.5779286808072754  0.7218699318823099  1.0000
  H   H42       1.0  0.5178403063762359  0.4220735137233475  0.2781320409556828  1.0000
  H   H43       1.0  0.20645835158681797  0.8840260844059882  0.772823673070164  1.0000
  H   H44       1.0  0.7935367187807074  0.11597510070597392  0.22717766537761716  1.0000
  H   H45       1.0  0.4031120043140107  0.8306296778535228  0.7135766952014819  1.0000
  H   H46       1.0  0.5968832447562775  0.1693694859943946  0.286425057118727  1.0000
  H   H47       1.0  0.3041573099684455  0.7792297718718615  0.8728719362534251  1.0000
  H   H48       1.0  0.6958378497504684  0.22077040260808198  0.12712960913057708  1.0000
  H   H49       1.0  0.06006043321639249  0.0332416239475677  0.0941874337401387  1.0000
  H   H50       1.0  0.9399369094199558  0.9667595604015204  0.9058141354664216  1.0000
  H   H51       1.0  0.14868783542677025  0.9119214189012295  0.0031131751313040385  1.0000
  H   H52       1.0  0.851307721915738  0.0880736914983444  0.9968969768716252  1.0000
  H   H53       1.0  0.36545299100705353  0.010685925610459897  0.8614677823341382  1.0000
  H   H54       1.0  0.6345426209280162  0.9893091969227328  0.13853395640451543  1.0000
  H   H55       1.0  0.3316417479276338  0.12143920805461052  0.9636302040636906  1.0000
  H   H56       1.0  0.6683512397923508  0.8785599589829189  0.036369634844888275  1.0000
  H   H57       1.0  0.3521812245606881  0.18961857159431622  0.8033267399348601  1.0000
  H   H58       1.0  0.6478098537552553  0.8103765548913626  0.19667285463337697  1.0000
  C   C1        1.0  0.1774910185913114  0.3986834503360228  0.6217651128419704  1.0000
  C   C2        1.0  0.822506334963542  0.601317736439782  0.378234773711732  1.0000
  C   C3        1.0  0.3316564396932478  0.36530615981887843  0.5668965062483409  1.0000
  C   C4        1.0  0.6683474462361544  0.6346980529242643  0.43310597575234777  1.0000
  C   C5        1.0  0.38325842335438404  0.24010080534002048  0.5348472981463389  1.0000
  C   C6        1.0  0.6167465120876726  0.7599044182603764  0.465154671634302  1.0000
  C   C7        1.0  0.27334597540587413  0.1490787732027528  0.5608685797713306  1.0000
  C   C8        1.0  0.7266601316557626  0.8509264579030642  0.43912803676692397  1.0000
  C   C9        1.0  0.11843561269822088  0.1803629449151316  0.6156568784604985  1.0000
  C   C10       1.0  0.8815699809590426  0.8196352115412892  0.3843414919150945  1.0000
  C   C11       1.0  0.061684143046186087  0.3071279358610752  0.6513830103751772  1.0000
  C   C12       1.0  0.9383210986648081  0.692874264336794  0.3486136909291206  1.0000
  C   C13       1.0  0.8012625823931643  0.24980436821593344  0.7401145835150302  1.0000
  C   C14       1.0  0.1987405548332646  0.7501958090540555  0.25988398355578113  1.0000
  C   C15       1.0  0.6657410492618326  0.2789803923910057  0.8494921680786618  1.0000
  C   C16       1.0  0.3342632486656569  0.7210197899576656  0.150502728402607  1.0000
  C   C17       1.0  0.7465511648230887  0.2567327336425649  0.6306601646777922  1.0000
  C   C18       1.0  0.2534541662392868  0.7432684559232781  0.36933674356272655  1.0000
  C   C19       1.0  0.8252081260976779  0.6719151847749599  0.88773814667492  1.0000
  C   C20       1.0  0.1747895903219572  0.32808196068612716  0.11226172629722705  1.0000
  C   C21       1.0  0.6955228119566215  0.744407604655585  0.8646998947637813  1.0000
  C   C22       1.0  0.30447359781473443  0.25559156427102175  0.13529818696689944  1.0000
  C   C23       1.0  0.7066537600663452  0.8552491327961463  0.7640480688139064  1.0000
  C   C24       1.0  0.29334491105531413  0.14475003294085556  0.23595192632841128  1.0000
  C   C25       1.0  0.8533032084478405  0.8893161372763743  0.6866352344133377  1.0000
  C   C26       1.0  0.1466978024569912  0.11068201221227984  0.3133685637296892  1.0000
  C   C27       1.0  0.9847147400146596  0.817909983089585  0.7079257832116566  1.0000
  C   C28       1.0  0.015284082513481696  0.18208715531656597  0.29207883243523713  1.0000
  C   C29       1.0  0.9780305919874481  0.7059408129775021  0.8122838085117791  1.0000
  C   C30       1.0  0.021965025406878197  0.29405431076905597  0.1877170889004418  1.0000
  C   C31       1.0  0.24954980335362356  0.6701184364988251  0.7625709642751987  1.0000
  C   C32       1.0  0.7504463219858196  0.3298837606837637  0.2374290206261094  1.0000
  C   C33       1.0  0.3677976573611375  0.5540859653384304  0.786030284357153  1.0000
  C   C34       1.0  0.6321996013830856  0.44591623085603516  0.21397023658676775  1.0000
  C   C35       1.0  0.2927662443998287  0.7991560744248359  0.7806889598315863  1.0000
  C   C36       1.0  0.7072289153190782  0.20084410005510733  0.2193125855524087  1.0000
  C   C37       1.0  0.0762603759409828  0.007700932793348199  0.005896847802354404  1.0000
  C   C38       1.0  0.9237361797775917  0.9922962075890496  0.9941066957593278  1.0000
  C   C39       1.0  0.3082098451930264  0.10750226938108648  0.8831468856002544  1.0000
  C   C40       1.0  0.6917855934985367  0.8924948756295169  0.11685359793953856  1.0000
  N   N1        1.0  0.9156550177617575  0.3451423859506875  0.7100662190049718  1.0000
  N   N2        1.0  0.08434822519382121  0.6548567843273573  0.2899300310227702  1.0000
  N   N3        1.0  0.09780212293539142  0.632633472468882  0.8427926430672557  1.0000
  N   N4        1.0  0.9021932318640467  0.36736468438710557  0.15720679220989112  1.0000
  O   O1        1.0  0.1477863734609102  0.11155874117369544  0.9048333917687118  1.0000
  O   O2        1.0  0.8522092330149036  0.8884363801461389  0.09516918829636736  1.0000
