data_image0
_chemical_formula_structural       Cd2H32C40N16O4
_chemical_formula_sum              "Cd2 H32 C40 N16 O4"
_cell_length_a       9.275661442840969
_cell_length_b       9.275703454829989
_cell_length_c       11.829948258965706
_cell_angle_alpha    78.63856299789175
_cell_angle_beta     78.63818548941731
_cell_angle_gamma    84.09095197522917

_space_group_name_H-M_alt    "P 1"
_space_group_IT_number       1

loop_
  _space_group_symop_operation_xyz
  'x, y, z'

loop_
  _atom_site_type_symbol
  _atom_site_label
  _atom_site_symmetry_multiplicity
  _atom_site_fract_x
  _atom_site_fract_y
  _atom_site_fract_z
  _atom_site_occupancy
  Cd  Cd1       1.0  0.30459155521057824  0.6954115584080827  0.24999900497365957  1.0000
  Cd  Cd2       1.0  0.6954100054392286  0.3045884030393609  0.7499993672879269  1.0000
  H   H1        1.0  0.24887710052946946  0.13682041981393672  0.8701221671396411  1.0000
  H   H2        1.0  0.8631753821636465  0.7511241116744786  0.6298762868112533  1.0000
  H   H3        1.0  0.7511268031027567  0.8631785313223972  0.1298793675245165  1.0000
  H   H4        1.0  0.1368231469366563  0.24887247505928672  0.370122294658465  1.0000
  H   H5        1.0  0.0267229650807153  0.2667673572365104  0.9701612982383452  1.0000
  H   H6        1.0  0.7332299649225931  0.9732801811981207  0.5298381869124568  1.0000
  H   H7        1.0  0.9732809489708533  0.7332304102729383  0.029835356864424383  1.0000
  H   H8        1.0  0.2667650204489219  0.026719682813251204  0.47016212933178275  1.0000
  H   H9        1.0  0.8327120886398162  0.2779905541958528  0.14865986710738346  1.0000
  H   H10       1.0  0.7220119706552097  0.1672944378406314  0.3513432610303865  1.0000
  H   H11       1.0  0.1672908875681003  0.722006161099145  0.8513413428711373  1.0000
  H   H12       1.0  0.27798068856686337  0.832707647367535  0.6486604543000638  1.0000
  H   H13       1.0  0.49562806881905896  0.04098423930731341  0.8574910163910233  1.0000
  H   H14       1.0  0.9590114533072267  0.5043760004899411  0.6425054057170811  1.0000
  H   H15       1.0  0.5043722365797337  0.959017934589049  0.1425088891928822  1.0000
  H   H16       1.0  0.040986642163922206  0.49562612275520485  0.35749402657611273  1.0000
  H   H17       1.0  0.37385648352367434  0.9536403714549168  0.7975259440518698  1.0000
  H   H18       1.0  0.04635603670466541  0.6261440562774183  0.7024723122535264  1.0000
  H   H19       1.0  0.6261462434076747  0.04635967665041821  0.2024764491916926  1.0000
  H   H20       1.0  0.9536432627196803  0.37385699725751215  0.29752794338765653  1.0000
  H   H21       1.0  0.6538204291668351  0.8027559086753157  0.8840845493483797  1.0000
  H   H22       1.0  0.19723919994414268  0.34617993000817654  0.615909645687104  1.0000
  H   H23       1.0  0.34618207253343775  0.19724630224286702  0.11591498856253678  1.0000
  H   H24       1.0  0.802754963805512  0.6538166099407405  0.38409135305597897  1.0000
  H   H25       1.0  0.6290977707446714  0.8588852133496943  0.7357700649809829  1.0000
  H   H26       1.0  0.14111120265032887  0.37090463098682147  0.7642237517926772  1.0000
  H   H27       1.0  0.3709047309556084  0.14111699756848858  0.2642294729299408  1.0000
  H   H28       1.0  0.8588838748974723  0.6290941311740424  0.2357767306723489  1.0000
  H   H29       1.0  0.5278932872141765  0.7143970574502774  0.8288128966104368  1.0000
  H   H30       1.0  0.2856020366307561  0.47210549062616997  0.671184364926944  1.0000
  H   H31       1.0  0.4721092008599399  0.2856051398385162  0.17118580033678646  1.0000
  H   H32       1.0  0.7143966664028056  0.527890076033458  0.3288194285457209  1.0000
  C   C1        1.0  0.2593877269532713  0.9631170338832007  0.022914334890259538  1.0000
  C   C2        1.0  0.036885231670012814  0.7406157975934491  0.4770835720208808  1.0000
  C   C3        1.0  0.7406138745750183  0.03688296845243141  0.9770865602624068  1.0000
  C   C4        1.0  0.9631152957530272  0.25938301623378385  0.5229134683705894  1.0000
  C   C5        1.0  0.1991365969549577  0.09455708411470451  0.960192558324742  1.0000
  C   C6        1.0  0.9054405431360453  0.800862832009301  0.5398084410753938  1.0000
  C   C7        1.0  0.8008683639495332  0.9054418446443576  0.03980626961183729  1.0000
  C   C8        1.0  0.0945570857922746  0.19913154614192052  0.4601914976360746  1.0000
  C   C9        1.0  0.0771511434326371  0.16663819440988456  0.016344696204605186  1.0000
  C   C10       1.0  0.8333613372367381  0.9228544106927928  0.4836528560241362  1.0000
  C   C11       1.0  0.9228478930889779  0.8333661783059939  0.9836559017379329  1.0000
  C   C12       1.0  0.1666350741122216  0.07714102353924092  0.5163454183756571  1.0000
  C   C13       1.0  0.013545921150921502  0.11013270869175781  0.1337621021827005  1.0000
  C   C14       1.0  0.8898670427021854  0.9864576582405037  0.36623998143197406  1.0000
  C   C15       1.0  0.9864578630526919  0.8898673170363055  0.866237584333291  1.0000
  C   C16       1.0  0.1101278777453487  0.0135433348801826  0.6337618505188799  1.0000
  C   C17       1.0  0.0828112539312826  0.9791800732981244  0.190125077484673  1.0000
  C   C18       1.0  0.020820399115564183  0.9171917837953177  0.30987446298141913  1.0000
  C   C19       1.0  0.9171890787198295  0.0208221278570306  0.8098765100266264  1.0000
  C   C20       1.0  0.9791800770096588  0.08280817277061203  0.6901249340803586  1.0000
  C   C21       1.0  0.8834728805591184  0.17749228396883154  0.1939793081818592  1.0000
  C   C22       1.0  0.8225099799237796  0.11653222284445525  0.3060220822032846  1.0000
  C   C23       1.0  0.11652882677162069  0.822506630145682  0.8060225941552873  1.0000
  C   C24       1.0  0.1774923237977433  0.8834721781453682  0.6939762823023727  1.0000
  C   C25       1.0  0.45226956766038023  0.935194364510643  0.8582291895045769  1.0000
  C   C26       1.0  0.0648010454518229  0.547735059627165  0.6417666597841033  1.0000
  C   C27       1.0  0.5477340321906395  0.0648078649184498  0.1417701645698486  1.0000
  C   C28       1.0  0.9351957538898219  0.4522692351787114  0.3582317829403294  1.0000
  C   C29       1.0  0.572754910644207  0.8203440231257559  0.8257710098032264  1.0000
  C   C30       1.0  0.17965185031860642  0.4272481899398528  0.6742228193830115  1.0000
  C   C31       1.0  0.4272476832323663  0.179657085941912  0.17422869432846974  1.0000
  C   C32       1.0  0.8203442332036487  0.5727516925824362  0.3257773130247372  1.0000
  C   C33       1.0  0.22218707409010832  0.5282764005431274  0.053651692612923796  1.0000
  C   C34       1.0  0.47172707833061617  0.7778212540377041  0.44635028990477826  1.0000
  C   C35       1.0  0.777819560517237  0.47173040085593243  0.9463531727784512  1.0000
  C   C36       1.0  0.5282651681009654  0.22218400042806513  0.5536445171263793  1.0000
  C   C37       1.0  0.3691497021993584  0.4173647967055772  0.9088502297817483  1.0000
  C   C38       1.0  0.5826268551024257  0.6308519021591863  0.5911449590024133  1.0000
  C   C39       1.0  0.6308523978820659  0.5826285400093739  0.09114829884083522  1.0000
  C   C40       1.0  0.4173631709821776  0.3691544852822517  0.4088542542994276  1.0000
  N   N1        1.0  0.20453717058979487  0.9102110603744795  0.134569436568121  1.0000
  N   N2        1.0  0.08979157986208013  0.7954674695504098  0.3654324564207484  1.0000
  N   N3        1.0  0.7954687041128423  0.08979009059652301  0.8654288750904015  1.0000
  N   N4        1.0  0.9102090942418998  0.20453029694387945  0.6345681140462816  1.0000
  N   N5        1.0  0.17966807035223548  0.5684088702807842  0.1440657354220249  1.0000
  N   N6        1.0  0.43159317243109296  0.8203406574657423  0.35593067666722067  1.0000
  N   N7        1.0  0.8203371502481573  0.43158554204104155  0.8559270296881252  1.0000
  N   N8        1.0  0.5684129002502941  0.17965830343362646  0.644068808396561  1.0000
  N   N9        1.0  0.2528121720540711  0.49301994099855057  0.9507381492086749  1.0000
  N   N10       1.0  0.5069816069015828  0.7471948389754602  0.5492600043590058  1.0000
  N   N11       1.0  0.7471974443561179  0.5069757426232118  0.049259601080578364  1.0000
  N   N12       1.0  0.49302046116952875  0.2528129084541036  0.4507403843753934  1.0000
  N   N13       1.0  0.468128930585607  0.34831210082624864  0.8613455169564402  1.0000
  N   N14       1.0  0.6516721487300501  0.531861526151829  0.6386540565500949  1.0000
  N   N15       1.0  0.5318691047195543  0.6516767135547995  0.13865188900415854  1.0000
  N   N16       1.0  0.34831638079178623  0.46813716583175596  0.3613500518249779  1.0000
  O   O1        1.0  0.3747777620176294  0.8807369340615737  0.9762217248370532  1.0000
  O   O2        1.0  0.11926160353326759  0.6252274117357288  0.5237786416428989  1.0000
  O   O3        1.0  0.6252269359841308  0.11926531387842941  0.023777445400881378  1.0000
  O   O4        1.0  0.8807344150650066  0.37477359989586745  0.47622300647145716  1.0000
