data_image0
_chemical_formula_structural       Cd4H56C72N8Cl8
_chemical_formula_sum              "Cd4 H56 C72 N8 Cl8"
_cell_length_a       7.428683388
_cell_length_b       14.969850688
_cell_length_c       15.0737
_cell_angle_alpha    90.0
_cell_angle_beta     90.0
_cell_angle_gamma    90.0

_space_group_name_H-M_alt    "P 1"
_space_group_IT_number       1

loop_
  _space_group_symop_operation_xyz
  'x, y, z'

loop_
  _atom_site_type_symbol
  _atom_site_label
  _atom_site_symmetry_multiplicity
  _atom_site_fract_x
  _atom_site_fract_y
  _atom_site_fract_z
  _atom_site_occupancy
  Cd  Cd1       1.0  0.21841151591154775  0.500000311025147  0.0  1.0000
  Cd  Cd2       1.0  0.2815869099198736  6.68009335e-07  0.4999993365928716  1.0000
  Cd  Cd3       1.0  0.7181649454354184  0.5000009790344819  0.9999986731857504  1.0000
  Cd  Cd4       1.0  0.7818370627266231  6.68009335e-07  0.5000006634071283  1.0000
  H   H1        1.0  0.19449341485382374  0.5033403576990949  0.2013095656673514  1.0000
  H   H2        1.0  0.19449745325449894  0.4966569243045242  0.7986904343326484  1.0000
  H   H3        1.0  0.30550231871047356  0.0033413826926179  0.2986891075183918  1.0000
  H   H4        1.0  0.3055036648440321  0.9966565673203291  0.7013102290744795  1.0000
  H   H5        1.0  0.6944918406852449  0.7019014564001509  0.0020539084630825993  1.0000
  H   H6        1.0  0.6944837638838945  0.2981031737061527  0.9979427745012825  1.0000
  H   H7        1.0  0.8055128597439136  0.798097472647285  0.5020578889058454  1.0000
  H   H8        1.0  0.8055128597439136  0.20190114537500384  0.4979441013155394  1.0000
  H   H9        1.0  0.1329576115190889  0.4198071264022474  0.3407059978638287  1.0000
  H   H10       1.0  0.13296299605331538  0.5801894875920368  0.6592933387290427  1.0000
  H   H11       1.0  0.367039468178774  0.9198074374273943  0.15929201191479336  1.0000
  H   H12       1.0  0.3670354297780988  0.0801898445762248  0.8407086514923348  1.0000
  H   H13       1.0  0.6319693214525228  0.8421079316512703  0.9190882132455869  1.0000
  H   H14       1.0  0.6319679753189644  0.1578953624363635  0.0809071429045289  1.0000
  H   H15       1.0  0.8680313405759605  0.6578909973961656  0.4190902034669647  1.0000
  H   H16       1.0  0.8680340328430771  0.3421076206261233  0.5809104599401633  1.0000
  H   H17       1.0  0.10670127647119897  0.251433369540365  0.33446864406217697  1.0000
  H   H18       1.0  0.10670127647119897  0.7485632444539192  0.6655293657164449  1.0000
  H   H19       1.0  0.3932944570930985  0.751433680565512  0.16553069253070155  1.0000
  H   H20       1.0  0.3932917648259887  0.2485636014381072  0.8344712976906761  1.0000
  H   H21       1.0  0.6059350984416978  0.8357271064853506  0.7519049735632279  1.0000
  H   H22       1.0  0.6059404829759316  0.16427284755560828  0.24809038258688784  1.0000
  H   H23       1.0  0.8940655635867854  0.6642731585807553  0.2519076271917341  1.0000
  H   H24       1.0  0.8940642174532272  0.3357267954602036  0.7480930362153939  1.0000
  H   H25       1.0  0.11463673379533647  0.1139189719084541  0.2433251291985385  1.0000
  H   H26       1.0  0.11462596472687639  0.8860769740764949  0.7566715537658266  1.0000
  H   H27       1.0  0.3853603459025193  0.6139199509429358  0.2566735439872119  1.0000
  H   H28       1.0  0.3853684227038698  0.3860773310606831  0.7433304364555509  1.0000
  H   H29       1.0  0.6148532332631402  0.7442706164685546  0.6155117854276  1.0000
  H   H30       1.0  0.6148693868658412  0.2557266655350645  0.3844848975367724  1.0000
  H   H31       1.0  0.8851433903646679  0.7557289805882161  0.11551775609173379  1.0000
  H   H32       1.0  0.8851393519639925  0.2442709734527426  0.8844875511652716  1.0000
  H   H33       1.0  0.15453209405241344  0.041099274322967  0.0960659957409291  1.0000
  H   H34       1.0  0.15452401725106304  0.9589013477273198  0.9039280335949369  1.0000
  H   H35       1.0  0.3454676779125663  0.541098917338779  0.4039320140376929  1.0000
  H   H36       1.0  0.3454757547139096  0.4589030407301848  0.596072629812191  1.0000
  H   H37       1.0  0.6550285893002721  0.5960867737413764  0.5429648991289469  1.0000
  H   H38       1.0  0.6550312815673891  0.4039125122902476  0.4570331106496751  1.0000
  H   H39       1.0  0.8449720727282113  0.9039141593340645  0.04296954297883099  1.0000
  H   H40       1.0  0.8449639959268678  0.0960851266975595  0.9570337740568036  1.0000
  H   H41       1.0  0.21653904413243197  0.1345003395133375  0.9619111432495016  1.0000
  H   H42       1.0  0.21653769799887354  0.8655022865649542  0.038084212900614  1.0000
  H   H43       1.0  0.283462073966099  0.6344999825291495  0.5380875299362486  1.0000
  H   H44       1.0  0.2834647662332159  0.3655033115584772  0.4619157870993859  1.0000
  H   H45       1.0  0.7167609281344693  0.4608843564171679  0.6355864850700212  1.0000
  H   H46       1.0  0.7167582358673525  0.539116933642461  0.3644121881157218  1.0000
  H   H47       1.0  0.7832383877604556  0.039117958635984  0.135591792327034  1.0000
  H   H48       1.0  0.7832343493597802  0.9608833314236449  0.8644101978943437  1.0000
  H   H49       1.0  0.24053522093651475  0.2989849460280709  0.9746001313546129  1.0000
  H   H50       1.0  0.24053387480295635  0.7010176800502208  0.025398541831137295  1.0000
  H   H51       1.0  0.2594658971620162  0.7989845890438829  0.5253998686453869  1.0000
  H   H52       1.0  0.2594658971620162  0.2010193730530787  0.4746027849831193  1.0000
  H   H53       1.0  0.7406130686478531  0.473402183341804  0.7989511533332914  1.0000
  H   H54       1.0  0.740618453182087  0.5265991067178248  0.2010475198524588  1.0000
  H   H55       1.0  0.7593849011135134  0.026596791664673  0.2989571239974254  1.0000
  H   H56       1.0  0.7593849011135134  0.973402494366951  0.7010461930382019  1.0000
  C   C1        1.0  0.18502201914006378  0.43067229823260783  0.20029455276408464  1.0000
  C   C2        1.0  0.18502201914006378  0.5693263197896741  0.7997061106430436  1.0000
  C   C3        1.0  0.3149764066913575  0.9306726092577549  0.2997047838287869  1.0000
  C   C4        1.0  0.3149790989584673  0.0693266767738621  0.7002958795783414  1.0000
  C   C5        1.0  0.6848642934787605  0.7007905568763917  0.9298685790482748  1.0000
  C   C6        1.0  0.684862947345202  0.29921073318323  0.07012744050896907  1.0000
  C   C7        1.0  0.8151390608168398  0.7992097081897072  0.4298725594910308  1.0000
  C   C8        1.0  0.8151390608168398  0.2007909138605797  0.5701300941374683  1.0000
  C   C9        1.0  0.1508544571720805  0.3828929305617378  0.2790761392358903  1.0000
  C   C10       1.0  0.1508544571720805  0.6171036834325463  0.7209231973569885  1.0000
  C   C11       1.0  0.3491426225257754  0.8828939095962196  0.22092253394986017  1.0000
  C   C12       1.0  0.34914531479289207  0.1171040404167343  0.7790787928643894  1.0000
  C   C13       1.0  0.6502484690359791  0.7800825969066594  0.8824495644732195  1.0000
  C   C14       1.0  0.6502484690359791  0.21991936116230446  0.1175457916768963  1.0000
  C   C15       1.0  0.849752192992504  0.7199170001501114  0.3824515546945975  1.0000
  C   C16       1.0  0.8497548852596208  0.2800829538908474  0.6175477818982742  1.0000
  C   C17       1.0  0.1356673783712452  0.2913355711353915  0.2755660521305288  1.0000
  C   C18       1.0  0.1356673783712452  0.7086610428588924  0.7244359380908489  1.0000
  C   C19       1.0  0.3643283551930523  0.7913352141512036  0.22443461127659245  1.0000
  C   C20       1.0  0.3643283551930523  0.2086620678524156  0.7755647253162792  1.0000
  C   C21       1.0  0.6351623502519885  0.7764786865454665  0.7915243105541447  1.0000
  C   C22       1.0  0.6351717731868973  0.22352126749549225  0.2084743626316055  1.0000
  C   C23       1.0  0.864835619509378  0.7235222465299742  0.2915269641826511  1.0000
  C   C24       1.0  0.8648369656429364  0.2764790435296547  0.7084770162601117  1.0000
  C   C25       1.0  0.1569551344567301  0.24748810640909363  0.19289623649137155  1.0000
  C   C26       1.0  0.1569497499224966  0.7525091755945252  0.8071017732872503  1.0000
  C   C27       1.0  0.3430419452411328  0.7474884174342407  0.3071037635086283  1.0000
  C   C28       1.0  0.3430459836418079  0.2525102005880484  0.6928988901198778  1.0000
  C   C29       1.0  0.6569360605518924  0.6932767878786734  0.748046597716552  1.0000
  C   C30       1.0  0.6569468296203522  0.3067231661622856  0.2519507486549415  1.0000
  C   C31       1.0  0.8430632553430326  0.8067228091780976  0.24804925134505845  1.0000
  C   C32       1.0  0.8430605630759158  0.1932771448628614  0.7519514120620698  1.0000
  C   C33       1.0  0.14419648059444504  0.153296786175666  0.18413926242395454  1.0000
  C   C34       1.0  0.14418840379309467  0.8467004958279529  0.8158567571332822  1.0000
  C   C35       1.0  0.35579925296985937  0.653297097200813  0.315858083947539  1.0000
  C   C36       1.0  0.3558059836376515  0.3467008528121411  0.6841452330880954  1.0000
  C   C37       1.0  0.6443429811172336  0.684574630274362  0.6544962417986324  1.0000
  C   C38       1.0  0.644355096319259  0.3154226517292571  0.3455011045728681  1.0000
  C   C39       1.0  0.8556576809112497  0.8154263028010786  0.1545015490556381  1.0000
  C   C40       1.0  0.8556522963770163  0.184575655267885  0.8455017679799894  1.0000
  C   C41       1.0  0.1661546111917858  0.1134800897754928  0.10234448078441007  1.0000
  C   C42       1.0  0.16614788052399376  0.886518528246796  0.8976515387728268  1.0000
  C   C43       1.0  0.3338438146396356  0.6134817368193095  0.3976541924013332  1.0000
  C   C44       1.0  0.33385054530742037  0.3865195532403192  0.6023484612271728  1.0000
  C   C45       1.0  0.6665151469502886  0.6022772162468752  0.6148689439221968  1.0000
  C   C46       1.0  0.6665205314845224  0.3977200657567437  0.3851290658564252  1.0000
  C   C47       1.0  0.8334895534788699  0.8977217128005606  0.1148729243649527  1.0000
  C   C48       1.0  0.8334814766775196  0.1022769052217285  0.885129065856425  1.0000
  C   C49       1.0  0.20120389064022245  0.1663229682040779  0.0265276607601308  1.0000
  C   C50       1.0  0.2011971599724376  0.8336796578742209  0.9734683587971132  1.0000
  C   C51       1.0  0.2987972274583085  0.6663226112198899  0.4734710124256124  1.0000
  C   C52       1.0  0.2988026119925421  0.3336800148584089  0.5265316412028866  1.0000
  C   C53       1.0  0.7014809661181403  0.525879660664252  0.6672800971228057  1.0000
  C   C54       1.0  0.7014863506523668  0.47411895735803  0.332717249248688  1.0000
  C   C55       1.0  0.7985196959103432  0.9741199363925117  0.16728407756556143  1.0000
  C   C56       1.0  0.7985143113761166  0.0258800176484399  0.8327165858415668  1.0000
  C   C57       1.0  0.2134685134867382  0.2580960946455662  0.0327053079204163  1.0000
  C   C58       1.0  0.21346447508606295  0.7419038593953928  0.9672920384510773  1.0000
  C   C59       1.0  0.2865326046117928  0.7580977416893758  0.4672940286724553  1.0000
  C   C60       1.0  0.286536643012468  0.24190555239825065  0.5327086249560509  1.0000
  C   C61       1.0  0.7136809745538739  0.5320012982082716  0.7584481580501148  1.0000
  C   C62       1.0  0.713691743622334  0.46799865583268735  0.24154985172850724  1.0000
  C   C63       1.0  0.7863156490739414  0.9680003028765043  0.258452801899999  1.0000
  C   C64       1.0  0.7863129568068244  0.0320016551924596  0.7415498517285073  1.0000
  C   C65       1.0  0.19158980476932183  0.3009488934723592  0.11577383124249248  1.0000
  C   C66       1.0  0.19158980476932183  0.6990490565405949  0.8842255053503789  1.0000
  C   C67       1.0  0.3084045826614242  0.8009498725068411  0.3842248419432507  1.0000
  C   C68       1.0  0.3084086210620995  0.1990500815341179  0.6157751580567492  1.0000
  C   C69       1.0  0.6916770754155619  0.6155999944199309  0.801091968129924  1.0000
  C   C70       1.0  0.6916905367511388  0.384401295639698  0.1989086952772041  1.0000
  C   C71       1.0  0.8083235866129213  0.8843996026368401  0.30109594857268  1.0000
  C   C72       1.0  0.8083182020786877  0.11560035140411877  0.6989093586843325  1.0000
  N   N1        1.0  0.20358789317135964  0.3922971659769203  0.1215288880633167  1.0000
  N   N2        1.0  0.20358789317135964  0.6077021200547037  0.8784717753438114  1.0000
  N   N3        1.0  0.2964105326600545  0.8922968089927252  0.3784704485295548  1.0000
  N   N4        1.0  0.2964118787936129  0.1077031450482266  0.6215295514704449  1.0000
  N   N5        1.0  0.7036361259444204  0.6214404000340039  0.8918347850892585  1.0000
  N   N6        1.0  0.7036442027457708  0.378560890025625  0.1081632246893562  1.0000
  N   N7        1.0  0.796364536084063  0.878560533041437  0.3918367753106437  1.0000
  N   N8        1.0  0.796361843816946  0.1214407570181919  0.608163224689356  1.0000
  Cl  Cl1       1.0  0.46605701430117097  0.4140308496843161  0.9096207301458816  1.0000
  Cl  Cl2       1.0  0.46605970656828777  0.5859697723659777  0.09037926985411807  1.0000
  Cl  Cl3       1.0  0.033942757663801594  0.9140304927001279  0.5903792698541181  1.0000
  Cl  Cl4       1.0  0.033942757663801594  0.0859701293501658  0.4096207301458819  1.0000
  Cl  Cl5       1.0  0.9658346742290858  0.4089292623945227  0.9150162203042383  1.0000
  Cl  Cl6       1.0  0.9658346742290858  0.5910720276651062  0.08498245288151197  1.0000
  Cl  Cl7       1.0  0.5341646416658391  0.09107171663995929  0.4150168837113668  1.0000
  Cl  Cl8       1.0  0.5341646416658391  0.9089289054103347  0.584982452881512  1.0000
