data_image0
_chemical_formula_structural       Ni6H84C96N24O24
_chemical_formula_sum              "Ni6 H84 C96 N24 O24"
_cell_length_a       13.393573543728074
_cell_length_b       16.667728032773702
_cell_length_c       18.921056708271646
_cell_angle_alpha    89.99984172224676
_cell_angle_beta     89.99949784234903
_cell_angle_gamma    109.4428533750538

_space_group_name_H-M_alt    "P 1"
_space_group_IT_number       1

loop_
  _space_group_symop_operation_xyz
  'x, y, z'

loop_
  _atom_site_type_symbol
  _atom_site_label
  _atom_site_symmetry_multiplicity
  _atom_site_fract_x
  _atom_site_fract_y
  _atom_site_fract_z
  _atom_site_occupancy
  Ni  Ni1       1.0  0.45149181777325953  0.5373754611154026  0.7612175978880487  1.0000
  Ni  Ni2       1.0  0.048509141450544746  0.9626231213773621  0.2612134718205255  1.0000
  Ni  Ni3       1.0  0.5485066929020164  0.4626253996423911  0.23878673897684166  1.0000
  Ni  Ni4       1.0  0.9514915682028048  0.037375833053403085  0.7387813518292033  1.0000
  Ni  Ni5       1.0  0.9999950535320324  0.49999603671890475  1.0746164633999994e-06  1.0000
  Ni  Ni6       1.0  0.5000005501176616  5.669209600001026e-07  0.5000001371728331  1.0000
  H   H1        1.0  0.7712583650962729  0.5771398647534909  0.8912008509023508  1.0000
  H   H2        1.0  0.7287314697253464  0.9228606198313543  0.3912015288400141  1.0000
  H   H3        1.0  0.22872538762064928  0.4228578041366191  0.10879820089468238  1.0000
  H   H4        1.0  0.2712782857764822  0.07714215797219738  0.6087980513826352  1.0000
  H   H5        1.0  0.7349430942224159  0.7790158772416685  0.7634768766370854  1.0000
  H   H6        1.0  0.7650552233462591  0.7209868133299364  0.2634788821720875  1.0000
  H   H7        1.0  0.2650572148142204  0.22098752910589775  0.2365216465903899  1.0000
  H   H8        1.0  0.2349480731984173  0.2790165953976569  0.7365169984876657  1.0000
  H   H9        1.0  0.026814517389944174  0.8163632377212051  0.8730833489936245  1.0000
  H   H10       1.0  0.4731888407387076  0.6836300823215921  0.3730889242489184  1.0000
  H   H11       1.0  0.9731834802132936  0.1836255379829339  0.1269135887237098  1.0000
  H   H12       1.0  0.5268234182111585  0.31637333349033275  0.6269143555472212  1.0000
  H   H13       1.0  0.13268318578023755  0.39879558887007954  0.9415083597367867  1.0000
  H   H14       1.0  0.367312420430757  0.10120576778825809  0.4415110871717829  1.0000
  H   H15       1.0  0.867305711617078  0.6011982678894013  0.05849069204910509  1.0000
  H   H16       1.0  0.6326805159107708  0.898790636323433  0.5584863790634742  1.0000
  H   H17       1.0  0.1445843295185583  0.3192850928098919  0.8334298901401382  1.0000
  H   H18       1.0  0.35541880374165663  0.18071133008491091  0.3334309106927122  1.0000
  H   H19       1.0  0.8554168641168758  0.6807132259560119  0.16656863309083286  1.0000
  H   H20       1.0  0.6445745749074661  0.8192825302397964  0.6665654985208818  1.0000
  H   H21       1.0  0.8972751350289413  0.40237516179873006  0.744125382453916  1.0000
  H   H22       1.0  0.602722075164749  0.09762730335911128  0.24412551550988582  1.0000
  H   H23       1.0  0.10271240631461613  0.5976136055839872  0.25587842594774207  1.0000
  H   H24       1.0  0.39727432007826746  0.9023792800622059  0.7558724792140126  1.0000
  H   H25       1.0  0.9025328009544041  0.4835822139532482  0.854486967865725  1.0000
  H   H26       1.0  0.5974629594774968  0.016420084939980498  0.3544868032726143  1.0000
  H   H27       1.0  0.0974517946212147  0.5164084592023245  0.14551578351922959  1.0000
  H   H28       1.0  0.40253765415213383  0.983585865800627  0.6455090773922691  1.0000
  H   H29       1.0  0.5103670631193752  0.6755471700165289  0.6627116504771564  1.0000
  H   H30       1.0  0.9896433704143844  0.8244492652837324  0.16270885269552343  1.0000
  H   H31       1.0  0.48964173691670254  0.3244460664800073  0.33729268636546555  1.0000
  H   H32       1.0  0.01036779540432782  0.175549697424259  0.8372912560391654  1.0000
  H   H33       1.0  0.45504361074377914  0.7159759026993768  0.5465649809330202  1.0000
  H   H34       1.0  0.04496951683003666  0.784018523351598  0.0465639559207673  1.0000
  H   H35       1.0  0.5449734883221994  0.2840211566023214  0.4534372418326099  1.0000
  H   H36       1.0  0.9550387575125612  0.21597344067036772  0.9534366813430708  1.0000
  H   H37       1.0  0.18289849519251788  0.48560160231661337  0.5570887663761397  1.0000
  H   H38       1.0  0.31711653285952923  0.0143917477826747  0.0570899003664707  1.0000
  H   H39       1.0  0.817112754069484  0.5144011766798398  0.44290869979509045  1.0000
  H   H40       1.0  0.6828923089248491  0.9856033968705731  0.9429096798683217  1.0000
  H   H41       1.0  0.24779650066705028  0.45746485109164337  0.6743336388208405  1.0000
  H   H42       1.0  0.25221279416714987  0.042530823527307894  0.17433193152073298  1.0000
  H   H43       1.0  0.752203683227208  0.5425328308338067  0.3256659414374283  1.0000
  H   H44       1.0  0.7477957304807106  0.957472589348498  0.825663949122962  1.0000
  H   H45       1.0  0.2854262963633546  0.6219190642019825  0.769849129168044  1.0000
  H   H46       1.0  0.21456297951684894  0.8780749940972326  0.26984947510931784  1.0000
  H   H47       1.0  0.7145662811056611  0.37808369998131036  0.23014780854882844  1.0000
  H   H48       1.0  0.7854282001829062  0.1219207725679539  0.7301527477374847  1.0000
  H   H49       1.0  0.16368578337025497  0.6430084734660324  0.8626265365018569  1.0000
  H   H50       1.0  0.336304902519288  0.8569900007326509  0.36262724336628344  1.0000
  H   H51       1.0  0.8363102238323776  0.35699174927186306  0.1373772718597976  1.0000
  H   H52       1.0  0.6636916304219371  0.14301149450094636  0.6373744509453658  1.0000
  H   H53       1.0  0.3221002207481193  0.5301525526496035  0.0124479845534466  1.0000
  H   H54       1.0  0.17790177830602277  0.9698554689881221  0.5124453341954549  1.0000
  H   H55       1.0  0.6779006556933922  0.46985403431195744  0.9875542382503539  1.0000
  H   H56       1.0  0.8220994027653888  0.030153662383781903  0.4875494894403829  1.0000
  H   H57       1.0  0.43774635496988173  0.5153679895990778  0.9131594979674701  1.0000
  H   H58       1.0  0.062248941675768936  0.9846377538449644  0.4131610473078807  1.0000
  H   H59       1.0  0.5622475784995801  0.4846398639360033  0.0868395537858504  1.0000
  H   H60       1.0  0.9377487261654168  0.0153701026588919  0.5868364188988409  1.0000
  H   H61       1.0  0.04832478502526532  0.2538691964927722  0.722797966867418  1.0000
  H   H62       1.0  0.45167294263440283  0.24613247748093406  0.22279717928149984  1.0000
  H   H63       1.0  0.9516814572668438  0.7461323064523527  0.2772016133675733  1.0000
  H   H64       1.0  0.5483243789393059  0.7538709265077516  0.7771981728848942  1.0000
  H   H65       1.0  0.9578630257709052  0.29442208656471536  0.685197858471227  1.0000
  H   H66       1.0  0.5421303548137856  0.20558016730628734  0.1851944000842565  1.0000
  H   H67       1.0  0.042141197051158624  0.7055781427052639  0.31480225028323616  1.0000
  H   H68       1.0  0.4578642420965765  0.7944238705387008  0.8148057086951114  1.0000
  H   H69       1.0  0.3328370392434295  0.676763740629852  0.4512308766903955  1.0000
  H   H70       1.0  0.16717037604284715  0.823230923468273  0.951228650766801  1.0000
  H   H71       1.0  0.6671749568248444  0.3232390389284562  0.548775045665863  1.0000
  H   H72       1.0  0.832831522736676  0.17676548774312553  0.04877198651117  1.0000
  H   H73       1.0  0.22927673301379065  0.5795443423712214  0.44784619606422643  1.0000
  H   H74       1.0  0.2707394761084886  0.9204516253450664  0.9478441534069049  1.0000
  H   H75       1.0  0.7707336733239032  0.4204654323290242  0.5521560267064132  1.0000
  H   H76       1.0  0.7292669456383366  0.07954669757290131  0.052153312784597  1.0000
  H   H77       1.0  0.13135049373237007  0.6444516064422245  0.9873136447187677  1.0000
  H   H78       1.0  0.3686397926766674  0.8555478704001301  0.4873146850393367  1.0000
  H   H79       1.0  0.8686362047032788  0.3555441566519661  0.0126928062354636  1.0000
  H   H80       1.0  0.6313598111994808  0.14445744349426096  0.5126838381879679  1.0000
  H   H81       1.0  0.18698899209370282  0.5925420646133193  0.0474733225706814  1.0000
  H   H82       1.0  0.3130060587294281  0.9074574287830828  0.547472637584903  1.0000
  H   H83       1.0  0.8130051750935864  0.4074537044222737  0.9525289002669481  1.0000
  H   H84       1.0  0.6869935034312251  0.0925459769699657  0.4525264141565728  1.0000
  C   C1        1.0  0.9750325426073659  0.6566894421037405  0.9304532209870543  1.0000
  C   C2        1.0  0.5249601128882591  0.8433082156397803  0.43045164531428526  1.0000
  C   C3        1.0  0.024955386731463133  0.34330568594125316  0.0695505874056295  1.0000
  C   C4        1.0  0.4750459499409417  0.1566964673286577  0.569551105987621  1.0000
  C   C5        1.0  0.9068261401360829  0.6922744585765911  0.8861989875554812  1.0000
  C   C6        1.0  0.5931685706856697  0.8077177977186237  0.3862018366176869  1.0000
  C   C7        1.0  0.09316754304451541  0.3077219461123306  0.11380270677114622  1.0000
  C   C8        1.0  0.40683411663201957  0.19228052220366723  0.6138046142843194  1.0000
  C   C9        1.0  0.8029039188811566  0.6414167147027214  0.8701331414341951  1.0000
  C   C10       1.0  0.6970857171425777  0.8585826505857811  0.3701352279161653  1.0000
  C   C11       1.0  0.19708330532998994  0.3585803209044656  0.1298664388646671  1.0000
  C   C12       1.0  0.30291639018160776  0.14142330131697628  0.6298669948846295  1.0000
  C   C13       1.0  0.7398440179105422  0.6726012662291083  0.8266991477502402  1.0000
  C   C14       1.0  0.7601520042517222  0.8273977833936994  0.3267009231890228  1.0000
  C   C15       1.0  0.2601487389844764  0.3273983179135769  0.1732993755050884  1.0000
  C   C16       1.0  0.23985234370861971  0.17260817029647774  0.6732986570463453  1.0000
  C   C17       1.0  0.629511672926199  0.6198939421905648  0.8082333519073401  1.0000
  C   C18       1.0  0.8704836677909639  0.8801065130203651  0.3082327353344141  1.0000
  C   C19       1.0  0.3704804622147152  0.3801113657701053  0.1917672853897372  1.0000
  C   C20       1.0  0.12952213219354997  0.11989753371174318  0.6917679019222404  1.0000
  C   C21       1.0  0.7818847200181908  0.7544651367237732  0.7987506909317545  1.0000
  C   C22       1.0  0.7181152490630183  0.745535390986916  0.2987529247204108  1.0000
  C   C23       1.0  0.21811756677710295  0.24553763515952204  0.20124730377871458  1.0000
  C   C24       1.0  0.281889320059321  0.25446929081360997  0.7012450699807147  1.0000
  C   C25       1.0  0.8845516876041585  0.8063579839424972  0.8154819358825378  1.0000
  C   C26       1.0  0.6154484641012418  0.6936398782975673  0.315488626665001  1.0000
  C   C27       1.0  0.11544920145879442  0.19363779043997909  0.1845165873524834  1.0000
  C   C28       1.0  0.3845540855182464  0.30636352981243686  0.6845141246492545  1.0000
  C   C29       1.0  0.922512407037651  0.8942622315378088  0.785999214718828  1.0000
  C   C30       1.0  0.5774899588239109  0.6057364825329401  0.2860021254767346  1.0000
  C   C31       1.0  0.07749458211404202  0.10573927199415319  0.2140019510489992  1.0000
  C   C32       1.0  0.42251202334149  0.3942637449400124  0.7140032684016901  1.0000
  C   C33       1.0  0.9469191708490643  0.7754889894197275  0.8598017169296952  1.0000
  C   C34       1.0  0.5530791999383313  0.7245040974301064  0.3598076582431914  1.0000
  C   C35       1.0  0.05308163478699872  0.2245029686819677  0.1401973348219627  1.0000
  C   C36       1.0  0.44692528569561324  0.27549676806081885  0.6401987926501815  1.0000
  C   C37       1.0  0.0817033139345682  0.3978673969250294  0.89650733100531  1.0000
  C   C38       1.0  0.41829642038106846  0.10213174553378217  0.3965129141425763  1.0000
  C   C39       1.0  0.9182896223987529  0.6021290071828177  0.1034911922533581  1.0000
  C   C40       1.0  0.5816985354223051  0.8978659322492176  0.6034850805966272  1.0000
  C   C41       1.0  0.08715631943596953  0.35258494636288157  0.8363400112369206  1.0000
  C   C42       1.0  0.41283201065452607  0.14740826347888716  0.3363423461101576  1.0000
  C   C43       1.0  0.912840267817579  0.6474076444214417  0.1636606260620326  1.0000
  C   C44       1.0  0.5871577170661697  0.8525894101654999  0.6636530060865695  1.0000
  C   C45       1.0  0.017986365526020644  0.349701185504415  0.779184328489599  1.0000
  C   C46       1.0  0.48200671100457265  0.15029816732806717  0.2791883455350046  1.0000
  C   C47       1.0  0.9820084651390744  0.6502907678583865  0.22081419476869257  1.0000
  C   C48       1.0  0.5179885493917952  0.8497020548479667  0.7208070066416141  1.0000
  C   C49       1.0  0.9511392522168973  0.3994360121041751  0.7865086885666911  1.0000
  C   C50       1.0  0.54885830999001  0.10056678169296869  0.2865091452360531  1.0000
  C   C51       1.0  0.048853558974038036  0.6005546675815552  0.21349089172278474  1.0000
  C   C52       1.0  0.45114252477291233  0.8994378971445444  0.7134888494765406  1.0000
  C   C53       1.0  0.9527256013922382  0.4441477939159668  0.848326529481426  1.0000
  C   C54       1.0  0.5472682768584463  0.0558551842276529  0.3483297477926399  1.0000
  C   C55       1.0  0.04726052965084195  0.5558447885699991  0.1516746363613564  1.0000
  C   C56       1.0  0.4527290863938519  0.9441501278850879  0.651669832464961  1.0000
  C   C57       1.0  0.43714419189013404  0.63630110960365  0.6379770468542532  1.0000
  C   C58       1.0  0.06287165204407341  0.8636882027521153  0.1379794166723869  1.0000
  C   C59       1.0  0.5628663230353084  0.3636908561807459  0.3620278184963581  1.0000
  C   C60       1.0  0.9371458058985171  0.1363024964799067  0.8620228060999223  1.0000
  C   C61       1.0  0.4069861729449826  0.6581284136917843  0.5731725926610878  1.0000
  C   C62       1.0  0.09303322182162785  0.841863916054592  0.07317641615932759  1.0000
  C   C63       1.0  0.5930274129153831  0.34186737075340556  0.4268291016051862  1.0000
  C   C64       1.0  0.9069867395854061  0.15812742119348397  0.9268273921396356  1.0000
  C   C65       1.0  0.3139133375244827  0.6040540019698923  0.5407207401589886  1.0000
  C   C66       1.0  0.18610436192890503  0.8959404701130822  0.0407254453729209  1.0000
  C   C67       1.0  0.6861003317914722  0.3959455987695221  0.45927672600869573  1.0000
  C   C68       1.0  0.8139082559057796  0.10405658563300342  0.9592767774064795  1.0000
  C   C69       1.0  0.25563369891574445  0.5303031988620147  0.5787817799463753  1.0000
  C   C70       1.0  0.24437430975444127  0.9696960775409094  0.0787801332997731  1.0000
  C   C71       1.0  0.7443723222553801  0.4696995759919743  0.4212141007057895  1.0000
  C   C72       1.0  0.7556311856903902  0.030305424823140505  0.9212162758672663  1.0000
  C   C73       1.0  0.2913252382900353  0.5142179587012093  0.6442357510167156  1.0000
  C   C74       1.0  0.2086783248773685  0.9857833831733841  0.1442316416873126  1.0000
  C   C75       1.0  0.708674987311511  0.4857816313617461  0.3557643577508003  1.0000
  C   C76       1.0  0.7913274334326559  0.014218755436601798  0.8557642389664295  1.0000
  C   C77       1.0  0.2911358338457434  0.6032175935935482  0.8245210281457531  1.0000
  C   C78       1.0  0.20885776742228057  0.8967849757545993  0.3245208348871884  1.0000
  C   C79       1.0  0.7088618339790428  0.396790262902627  0.1754785521077977  1.0000
  C   C80       1.0  0.791140384425596  0.10322224509592809  0.6754771598305351  1.0000
  C   C81       1.0  0.22357040462333094  0.6145291148422486  0.8759100007044863  1.0000
  C   C82       1.0  0.27642486094308794  0.8854718107075995  0.37590942015476964  1.0000
  C   C83       1.0  0.776427359196461  0.38547174533062634  0.12409222211586977  1.0000
  C   C84       1.0  0.7235725023133099  0.1145335014070668  0.6240896315911257  1.0000
  C   C85       1.0  0.23231371960040556  0.58801057715484  0.9455921609455941  1.0000
  C   C86       1.0  0.2676822212216622  0.9119904791206893  0.4455915692464885  1.0000
  C   C87       1.0  0.7676817201850525  0.4119864649632987  0.054409533374858696  1.0000
  C   C88       1.0  0.7323148374704542  0.0880122886143795  0.5544064254800389  1.0000
  C   C89       1.0  0.3111193336451026  0.5517675155517596  0.959511376124226  1.0000
  C   C90       1.0  0.18887090020283642  0.9482327991126596  0.4595117083110054  1.0000
  C   C91       1.0  0.6888718877742548  0.44823015925668835  0.0404897896966929  1.0000
  C   C92       1.0  0.8111247064528017  0.05177187557470829  0.540486814929352  1.0000
  C   C93       1.0  0.37556618035337413  0.5430765424052025  0.9047161519790805  1.0000
  C   C94       1.0  0.12442157004126406  0.9569197158118784  0.4047179157452021  1.0000
  C   C95       1.0  0.6244238519069967  0.4569236756072357  0.0952834283072619  1.0000
  C   C96       1.0  0.8755691673672955  0.04307859464798009  0.5952832500764274  1.0000
  N   N1        1.0  0.015030941668619837  0.4429907931466913  0.9042940435640078  1.0000
  N   N2        1.0  0.48496748266605044  0.057010835900790396  0.4042961565057936  1.0000
  N   N3        1.0  0.9849564619767293  0.5570030624237317  0.0957060652498924  1.0000
  N   N4        1.0  0.515033268657689  0.9429900266501859  0.5957039522585532  1.0000
  N   N5        1.0  0.017550609042892518  0.3027323800513599  0.7203287949251447  1.0000
  N   N6        1.0  0.48244338086387023  0.19726740077508964  0.22032793783699134  1.0000
  N   N7        1.0  0.9824518154752157  0.6972653036557405  0.27966972830282794  1.0000
  N   N8        1.0  0.5175539406975318  0.8027360032078336  0.7796689998645334  1.0000
  N   N9        1.0  0.38128711617257954  0.5658297253375082  0.6743769628946339  1.0000
  N   N10       1.0  0.1187195884905635  0.9341656759110039  0.1743714182106757  1.0000
  N   N11       1.0  0.618713993990859  0.43416477712649026  0.3256279024817559  1.0000
  N   N12       1.0  0.8812873172670521  0.0658320113555604  0.8256260479801156  1.0000
  N   N13       1.0  0.2830453420847263  0.6246760888073338  0.4766858026664594  1.0000
  N   N14       1.0  0.21697134577369334  0.8753164897404276  0.9766879001656363  1.0000
  N   N15       1.0  0.7169691575013033  0.37532732879200387  0.5233148345642533  1.0000
  N   N16       1.0  0.7830417143767932  0.12467802222251118  0.0233122085686759  1.0000
  N   N17       1.0  0.3664353998225351  0.567928985672637  0.8378335214826008  1.0000
  N   N18       1.0  0.13355821600077897  0.9320722149731537  0.3378342328948705  1.0000
  N   N19       1.0  0.6335634988931246  0.43207823576857857  0.16216500174454038  1.0000
  N   N20       1.0  0.8664360763411948  0.06792927849032541  0.6621653473768276  1.0000
  N   N21       1.0  0.16153024167734745  0.594865388510179  0.9970736383837249  1.0000
  N   N22       1.0  0.3384637110752991  0.9051378366122547  0.4970721002273494  1.0000
  N   N23       1.0  0.838461242594896  0.4051329225384349  0.0029285844590277  1.0000
  N   N24       1.0  0.6615361556742416  0.09486811353190917  0.5029248374632473  1.0000
  O   O1        1.0  0.9347656597391847  0.5777725012628281  0.9468066503915012  1.0000
  O   O2        1.0  0.565222523628485  0.9222256702621293  0.4468025204208246  1.0000
  O   O3        1.0  0.06522279533823645  0.42222389927787407  0.0531950439511846  1.0000
  O   O4        1.0  0.4347805517664939  0.077779010360878  0.5531933602380548  1.0000
  O   O5        1.0  0.06687463067468272  0.7050128593488553  0.9483455434002152  1.0000
  O   O6        1.0  0.4331146833092703  0.794983083401952  0.44834369328185625  1.0000
  O   O7        1.0  0.9331129940916656  0.2949797243127108  0.0516582649965187  1.0000
  O   O8        1.0  0.5668903281083715  0.2050190546058133  0.5516548299327296  1.0000
  O   O9        1.0  0.5865213003947857  0.5457088215445436  0.8330350435438163  1.0000
  O   O10       1.0  0.9134645135446108  0.9542946262426426  0.3330339815765413  1.0000
  O   O11       1.0  0.41346595291861393  0.4543009347869216  0.166966650786236  1.0000
  O   O12       1.0  0.0865474408573803  0.04570624519737271  0.6669661271533939  1.0000
  O   O13       1.0  0.5779084119908262  0.6515601582755012  0.7648014365013651  1.0000
  O   O14       1.0  0.9220954594198859  0.8484469793401034  0.264802165942946  1.0000
  O   O15       1.0  0.42209246447939125  0.3484464286995106  0.23519708672047562  1.0000
  O   O16       1.0  0.07789808606660391  0.15155451353845706  0.735195300284218  1.0000
  O   O17       1.0  0.8631668940681507  0.9125541233241279  0.7393418324839658  1.0000
  O   O18       1.0  0.6368322820459512  0.5874481070972165  0.2393438949979867  1.0000
  O   O19       1.0  0.1368358767461402  0.08744801291160088  0.2606551052023747  1.0000
  O   O20       1.0  0.3631684275376871  0.4125508473008779  0.7606599133507785  1.0000
  O   O21       1.0  0.0068178101716113385  0.9501770995134035  0.8073850133841913  1.0000
  O   O22       1.0  0.49318471487035964  0.5498230571515991  0.3073897360055469  1.0000
  O   O23       1.0  0.9931886532496962  0.0498231315266935  0.1926172094102228  1.0000
  O   O24       1.0  0.506816036412367  0.45017780538015717  0.6926156578758835  1.0000
