data_image0
_chemical_formula_structural       Zn2H22C28N14O12
_chemical_formula_sum              "Zn2 H22 C28 N14 O12"
_cell_length_a       9.279258291095648
_cell_length_b       9.753035333233843
_cell_length_c       11.14993390493497
_cell_angle_alpha    87.28487932455835
_cell_angle_beta     83.69857173598703
_cell_angle_gamma    65.72666729856162

_space_group_name_H-M_alt    "P 1"
_space_group_IT_number       1

loop_
  _space_group_symop_operation_xyz
  'x, y, z'

loop_
  _atom_site_type_symbol
  _atom_site_label
  _atom_site_symmetry_multiplicity
  _atom_site_fract_x
  _atom_site_fract_y
  _atom_site_fract_z
  _atom_site_occupancy
  Zn  Zn1       1.0  0.6203687628305803  0.9988325448527035  0.30870424315325096  1.0000
  Zn  Zn2       1.0  0.37962542458313925  0.001185173933492899  0.6912983947468874  1.0000
  H   H1        1.0  0.9031928825187308  0.21648168729098669  0.8500249919045472  1.0000
  H   H2        1.0  0.09682701080173936  0.7834955031707197  0.14996661999745695  1.0000
  H   H3        1.0  0.8204913402015211  0.3480880158729748  0.970912933610897  1.0000
  H   H4        1.0  0.1795448815055423  0.651896310484233  0.02907851204435728  1.0000
  H   H5        1.0  0.5443476935151709  0.4007184471685649  0.9163176645081917  1.0000
  H   H6        1.0  0.4556743672082815  0.59927829124225  0.08368612707845809  1.0000
  H   H7        1.0  0.6612346556612964  0.44397438982520754  0.7961869646545097  1.0000
  H   H8        1.0  0.33879302993005234  0.5560119686158629  0.20380070656617727  1.0000
  H   H9        1.0  0.8280179592643508  0.817324627576454  0.051204436348406476  1.0000
  H   H10       1.0  0.17197563239600563  0.18267284249143498  0.9488092300369855  1.0000
  H   H11       1.0  0.6528650046123802  0.27088815987826115  0.15463894666027037  1.0000
  H   H12       1.0  0.34714795468489973  0.7291092177477978  0.845346849380533  1.0000
  H   H13       1.0  0.7239989084419778  0.008573566862032998  0.5687315789395058  1.0000
  H   H14       1.0  0.27599721465552574  0.9914179391289792  0.4312624359471187  1.0000
  H   H15       1.0  0.3980152743903036  0.25358026247389626  0.855731689915835  1.0000
  H   H16       1.0  0.6019866831435368  0.7464273801534844  0.1442698530988409  1.0000
  H   H17       1.0  0.11398031312567987  0.49148143982352377  0.2699877013197423  1.0000
  H   H18       1.0  0.8859830576291544  0.5085301332601732  0.7300236184500334  1.0000
  H   H19       1.0  0.9690145546967982  0.7833824276432966  0.5790893272063328  1.0000
  H   H20       1.0  0.030978051116726107  0.21663645785828584  0.42091698708473047  1.0000
  H   H21       1.0  0.4091575447726684  0.3849592864060155  0.5621822814688568  1.0000
  H   H22       1.0  0.5908292249460844  0.6150435401169007  0.4378209854543016  1.0000
  C   C1        1.0  0.7995027283970018  0.2691812259627184  0.9155842783581318  1.0000
  C   C2        1.0  0.20051911645597906  0.7307892909412319  0.08441289162304598  1.0000
  C   C3        1.0  0.6500041159576144  0.3522148288497036  0.8514301420668601  1.0000
  C   C4        1.0  0.35000307137590175  0.6477688362959741  0.14855695727584356  1.0000
  C   C5        1.0  0.7984809071966056  0.9370022915529006  0.048440953640422876  1.0000
  C   C6        1.0  0.20152509095144214  0.06299626207242431  0.9515553146154402  1.0000
  C   C7        1.0  0.7093788113353199  0.16601876079180766  0.10501498698935312  1.0000
  C   C8        1.0  0.2906320615337493  0.8339809080262344  0.8949744726732047  1.0000
  C   C9        1.0  0.6685935189076772  0.08527609826285952  0.6443496941476494  1.0000
  C   C10       1.0  0.3313988039191927  0.914714359017431  0.35565371323637857  1.0000
  C   C11       1.0  0.5013001293331244  0.2066455172171047  0.7906198942220115  1.0000
  C   C12       1.0  0.498694367198773  0.7933641929130462  0.209378665958134  1.0000
  C   C13       1.0  0.27541524350623103  0.42495053418153367  0.4076511076805004  1.0000
  C   C14       1.0  0.7245629239756965  0.575052071116197  0.5923494110504491  1.0000
  C   C15       1.0  0.13661466329916291  0.519990536356616  0.35725499198575505  1.0000
  C   C16       1.0  0.8633688136304514  0.48000999272666445  0.6427505109877458  1.0000
  C   C17       1.0  0.027132905559327063  0.6504190403598074  0.41617870144470703  1.0000
  C   C18       1.0  0.9728632360403896  0.3495918806163233  0.5838223253183797  1.0000
  C   C19       1.0  0.053041671468200546  0.6838922188270758  0.5300768637361769  1.0000
  C   C20       1.0  0.9469453590864415  0.31611979177894517  0.4699321558898646  1.0000
  C   C21       1.0  0.18981449857663796  0.5860767930173695  0.5803745649817103  1.0000
  C   C22       1.0  0.8101647397071334  0.41392604960929474  0.4196383953256414  1.0000
  C   C23       1.0  0.30328698537390153  0.4583963751865171  0.5207645256382348  1.0000
  C   C24       1.0  0.6966932655510617  0.541604078703081  0.4792403948392021  1.0000
  C   C25       1.0  0.3910489255292974  0.2889195662225533  0.33727478693541  1.0000
  C   C26       1.0  0.6089353874972546  0.7110910738662568  0.6627238052914278  1.0000
  C   C27       1.0  0.8839205920347982  0.7512137123860115  0.35481832240040473  1.0000
  C   C28       1.0  0.11607403740269008  0.24880047329914856  0.6451763929909758  1.0000
  N   N1        1.0  0.7842176498768225  0.1512056730606162  0.993470665214005  1.0000
  N   N2        1.0  0.2157982699456157  0.848782813117559  0.006522506748360996  1.0000
  N   N3        1.0  0.840617260216135  0.005983327685186191  0.9548527342186971  1.0000
  N   N4        1.0  0.15939966627714605  0.9940030493236449  0.045148528650266  1.0000
  N   N5        1.0  0.717013000003135  0.031590872595622  0.143143485843666  1.0000
  N   N6        1.0  0.28298421936382573  0.9684199595471128  0.8568511633032398  1.0000
  N   N7        1.0  0.6220957265384544  0.24935921213299392  0.7767661320600822  1.0000
  N   N8        1.0  0.3779069136944103  0.7506347441490322  0.22323071003240358  1.0000
  N   N9        1.0  0.7301971126895169  0.1733178553921704  0.6841088862158742  1.0000
  N   N10       1.0  0.26980791844611934  0.8266660184833725  0.31589276066325306  1.0000
  N   N11       1.0  0.5269493839879261  0.1025707906140454  0.7077446406695174  1.0000
  N   N12       1.0  0.473038591428377  0.8974366556035707  0.292261846129108  1.0000
  N   N13       1.0  0.21212696852781227  0.6157128338833927  0.702576034266343  1.0000
  N   N14       1.0  0.7878777538213485  0.3842790331166626  0.2974287941807389  1.0000
  O   O1        1.0  0.5000558590111056  0.1895398924310427  0.39734700680210716  1.0000
  O   O2        1.0  0.4999162948367371  0.8104592002252319  0.6026542821002676  1.0000
  O   O3        1.0  0.37619098451084204  0.28000156173335006  0.22817037173992818  1.0000
  O   O4        1.0  0.623806892418678  0.720031974346746  0.7718238726557232  1.0000
  O   O5        1.0  0.79496047118095  0.8776870420596767  0.40837761092494407  1.0000
  O   O6        1.0  0.20504054149123624  0.1223251649561092  0.5916264649171409  1.0000
  O   O7        1.0  0.8587610565824523  0.7106367801121464  0.25703655003639614  1.0000
  O   O8        1.0  0.14122909486066965  0.2893898102345531  0.7429588164941521  1.0000
  O   O9        1.0  0.09675695710752313  0.7060776415292338  0.7658643882670829  1.0000
  O   O10       1.0  0.9032573348225553  0.29392911091424884  0.23413691359692018  1.0000
  O   O11       1.0  0.346806676526093  0.5469009587851802  0.738251993006102  1.0000
  O   O12       1.0  0.653198860100929  0.4530817595506846  0.2617478743381412  1.0000
