data_image0
_chemical_formula_structural       Ag2H50C60N8O8
_chemical_formula_sum              "Ag2 H50 C60 N8 O8"
_cell_length_a       8.422634554851617
_cell_length_b       12.003208421066667
_cell_length_c       14.21082429474854
_cell_angle_alpha    80.55549977033655
_cell_angle_beta     80.05208268844045
_cell_angle_gamma    70.71747156600836

_space_group_name_H-M_alt    "P 1"
_space_group_IT_number       1

loop_
  _space_group_symop_operation_xyz
  'x, y, z'

loop_
  _atom_site_type_symbol
  _atom_site_label
  _atom_site_symmetry_multiplicity
  _atom_site_fract_x
  _atom_site_fract_y
  _atom_site_fract_z
  _atom_site_occupancy
  Ag  Ag1       1.0  0.9540848688843511  0.24374324333108893  0.23511955474594975  1.0000
  Ag  Ag2       1.0  0.04591641855611077  0.756257013991828  0.7648804873375212  1.0000
  H   H1        1.0  0.2410363509687984  0.3442117147114203  0.1003035055867372  1.0000
  H   H2        1.0  0.7589633395249111  0.6557894591841419  0.89969305730736  1.0000
  H   H3        1.0  0.9443735937952911  0.7888418998575162  0.06318306190542701  1.0000
  H   H4        1.0  0.05561888043179415  0.21116187918892138  0.9368209199085914  1.0000
  H   H5        1.0  0.6452163894666965  0.8619312952264624  0.14098645787784397  1.0000
  H   H6        1.0  0.3547716434252877  0.1380689725759581  0.8590128085987702  1.0000
  H   H7        1.0  0.4904791791103663  0.7240087206951172  0.2231213160518167  1.0000
  H   H8        1.0  0.5095112453004944  0.2759888993755339  0.7768759497441808  1.0000
  H   H9        1.0  0.6336048601820823  0.5029482332227814  0.23655945104129478  1.0000
  H   H10       1.0  0.3663948085459979  0.49705026304987854  0.7634388770849869  1.0000
  H   H11       1.0  0.2688041358859366  0.6453575063936654  0.07261645310658342  1.0000
  H   H12       1.0  0.7311987521438328  0.3546418687593943  0.927382840993687  1.0000
  H   H13       1.0  0.22844339778641407  0.6193624680741935  0.9611706496798932  1.0000
  H   H14       1.0  0.7715570793872146  0.3806369001229086  0.03882959221812854  1.0000
  H   H15       1.0  0.4188601772326167  0.4080686998593421  0.9855875459848351  1.0000
  H   H16       1.0  0.5811387011729822  0.5919315677090111  0.014411330310096615  1.0000
  H   H17       1.0  0.45728503622157046  0.4333977743033445  0.09799894956218222  1.0000
  H   H18       1.0  0.5427142370417216  0.5666016047502608  0.9020000049128073  1.0000
  H   H19       1.0  0.1794646124411017  0.9697386037801226  0.0287145650445026  1.0000
  H   H20       1.0  0.8205410813025014  0.030259889814146797  0.9712838594380744  1.0000
  H   H21       1.0  0.23757826616626695  0.07991153999557811  0.14523529386898562  1.0000
  H   H22       1.0  0.7624278242562994  0.9200860822853302  0.8547610952073654  1.0000
  H   H23       1.0  0.4313858658541181  0.16149246187502797  0.20266825724488777  1.0000
  H   H24       1.0  0.5686174194617166  0.8385060476984594  0.7973282969203908  1.0000
  H   H25       1.0  0.12655021553756998  0.18670159750732304  0.4390859749677604  1.0000
  H   H26       1.0  0.8734474740452997  0.8133012954686905  0.5609175984883452  1.0000
  H   H27       1.0  0.009106706923603334  0.9674942663546418  0.2015407856655572  1.0000
  H   H28       1.0  0.9908917735888353  0.0325068610594812  0.7984615350931392  1.0000
  H   H29       1.0  0.08057232609832005  0.7458615208974065  0.23286656247291404  1.0000
  H   H30       1.0  0.9194281698054784  0.2541404962536191  0.767135436836732  1.0000
  H   H31       1.0  0.21966774449486332  0.6345362496690542  0.3745289670910169  1.0000
  H   H32       1.0  0.7803299463021959  0.36546665477455054  0.6254731973075638  1.0000
  H   H33       1.0  0.2899874240189961  0.7378632586619742  0.49251270365637373  1.0000
  H   H34       1.0  0.7100110571005445  0.2621378744859442  0.5074889125735569  1.0000
  H   H35       1.0  0.25016640732493334  0.8996186423402717  0.596324683109721  1.0000
  H   H36       1.0  0.7498336937211719  0.1003842633254948  0.40367723801986705  1.0000
  H   H37       1.0  0.2234979520024751  0.05336671877126521  0.58853424765082  1.0000
  H   H38       1.0  0.7765009445261984  0.9466361920172162  0.41146709058450165  1.0000
  H   H39       1.0  0.5290318320890607  0.8682459373922884  0.4911352200435886  1.0000
  H   H40       1.0  0.4709666707961162  0.1317578733785254  0.5088646309541504  1.0000
  H   H41       1.0  0.5232032152988142  0.9255757071264908  0.5989741682427124  1.0000
  H   H42       1.0  0.4768004817835987  0.07442454568479918  0.40102633510053926  1.0000
  H   H43       1.0  0.5454960573871191  0.2691529470278767  0.24081833098684063  1.0000
  H   H44       1.0  0.45450315057926355  0.7308383991570228  0.7591859191847166  1.0000
  H   H45       1.0  0.872925263246202  0.6063524742423779  0.6692483810569458  1.0000
  H   H46       1.0  0.1270784157131359  0.3936451353487769  0.3307496603459158  1.0000
  H   H47       1.0  0.18660053091290518  0.5296520365209716  0.6329606826415174  1.0000
  H   H48       1.0  0.8134059942560727  0.4703500180882331  0.36703648132309047  1.0000
  H   H49       1.0  0.4416735013805989  0.4242554951127958  0.52795353512699  1.0000
  H   H50       1.0  0.5583289930056665  0.5757447800225961  0.4720442717356975  1.0000
  C   C1        1.0  0.12759518847126838  0.4187812988540998  0.11286670712994615  1.0000
  C   C2        1.0  0.8724025047541633  0.5812216285246805  0.8871326391535777  1.0000
  C   C3        1.0  0.9568291062168588  0.6042982454595888  0.11221693481718385  1.0000
  C   C4        1.0  0.043167359511315354  0.3957019979514271  0.8877850028617831  1.0000
  C   C5        1.0  0.8789437058321216  0.7272771140679455  0.1027859537973725  1.0000
  C   C6        1.0  0.12105517014510533  0.27272313056522524  0.8972157406126089  1.0000
  C   C7        1.0  0.7107503790748455  0.7669198883538684  0.1449383336339096  1.0000
  C   C8        1.0  0.2892444703693259  0.2330786169420591  0.855059071972825  1.0000
  C   C9        1.0  0.6222182885932883  0.6879228496829909  0.1920162420669557  1.0000
  C   C10       1.0  0.3777785550836938  0.3120738734607329  0.8079819027941613  1.0000
  C   C11       1.0  0.6996440184476145  0.5653205799434815  0.19969626769508866  1.0000
  C   C12       1.0  0.3003528457808218  0.434678809355553  0.8003015209913615  1.0000
  C   C13       1.0  0.8695779724847484  0.523942764724751  0.15992169232959708  1.0000
  C   C14       1.0  0.13041689386831487  0.4760583723237204  0.8400795842750526  1.0000
  C   C15       1.0  0.2604404423484327  0.5763439009208896  0.03296616487330792  1.0000
  C   C16       1.0  0.7395584348429836  0.4236563551798723  0.9670341204791487  1.0000
  C   C17       1.0  0.42830267397891214  0.4763560891926062  0.025614615131885926  1.0000
  C   C18       1.0  0.5716953935527584  0.5236432835161223  0.9743851655063553  1.0000
  C   C19       1.0  0.30810581474908366  0.957431999196409  0.9922029684405091  1.0000
  C   C20       1.0  0.6919010847261333  0.0425665007427369  0.007794629878816322  1.0000
  C   C21       1.0  0.4165895761910934  0.0065267959017205985  0.0253541598267759  1.0000
  C   C22       1.0  0.5834137079105518  0.9934717022041826  0.9746438033960279  1.0000
  C   C23       1.0  0.3650404194236998  0.0691300249734184  0.10744727836206641  1.0000
  C   C24       1.0  0.6349648818905821  0.9308693800707674  0.8925482498254098  1.0000
  C   C25       1.0  0.4733442273532802  0.11567653422210358  0.13852338964738212  1.0000
  C   C26       1.0  0.5266594516060581  0.8843210753690514  0.8614746517554794  1.0000
  C   C27       1.0  0.6389966475858059  0.10289787660818923  0.08842406277068456  1.0000
  C   C28       1.0  0.3610058262490058  0.8970997323718847  0.9115741002666697  1.0000
  C   C29       1.0  0.7610513438559893  0.15087300510924  0.12155951721555174  1.0000
  C   C30       1.0  0.23895152240814363  0.8491236924209106  0.8784415421169031  1.0000
  C   C31       1.0  0.13352753286948632  0.10438746252042111  0.4138105769894694  1.0000
  C   C32       1.0  0.8664717585168803  0.8956145597533195  0.5861908394259104  1.0000
  C   C33       1.0  0.10854497583085998  0.9759025106734073  0.3304072080913727  1.0000
  C   C34       1.0  0.8914514892902262  0.024097727003805896  0.66959543411636  1.0000
  C   C35       1.0  0.06992799280442343  0.91749914338331  0.2640264723704676  1.0000
  C   C36       1.0  0.9300704864938324  0.0825019725632146  0.7359772574457466  1.0000
  C   C37       1.0  0.11170948467174933  0.7942710117385869  0.2819180376901188  1.0000
  C   C38       1.0  0.8882873964655718  0.20573100931299135  0.7180836219942464  1.0000
  C   C39       1.0  0.1905267952445514  0.7307228837941367  0.36297347786302236  1.0000
  C   C40       1.0  0.8094748858394141  0.2692764735464479  0.6370280514580318  1.0000
  C   C41       1.0  0.23106550217772795  0.7874471528802972  0.42932357349459965  1.0000
  C   C42       1.0  0.7689321674607899  0.21255307967420825  0.5706796516073993  1.0000
  C   C43       1.0  0.1883899552493561  0.9110988055257965  0.4113498250353659  1.0000
  C   C44       1.0  0.8116097309946967  0.08890232823320329  0.5886516695600649  1.0000
  C   C45       1.0  0.2819055956141626  0.9741618783976023  0.5503423299614811  1.0000
  C   C46       1.0  0.7180933009145178  0.0258410323908791  0.4496590082738409  1.0000
  C   C47       1.0  0.47382725355264205  0.9481121970342914  0.5291135788302483  1.0000
  C   C48       1.0  0.5261728481005576  0.051890714365271214  0.47088763777058074  1.0000
  C   C49       1.0  0.8608198331421376  0.5779504376082514  0.6024290634006207  1.0000
  C   C50       1.0  0.13918226456515734  0.42205070884050133  0.39757077886830683  1.0000
  C   C51       1.0  0.008732702943312628  0.5197397488501919  0.5433605937311017  1.0000
  C   C52       1.0  0.9912690186364583  0.4802649350672256  0.4566409277693922  1.0000
  C   C53       1.0  0.17349932832554066  0.4984633967540971  0.5678089050840712  1.0000
  C   C54       1.0  0.8265027917544856  0.5015404330513462  0.4321884674238987  1.0000
  C   C55       1.0  0.3150599935237539  0.44083623008972955  0.5094836677607475  1.0000
  C   C56       1.0  0.6849421047906291  0.5591649220928119  0.490515469979414  1.0000
  C   C57       1.0  0.2985956104777899  0.4031268861599955  0.42299181854666307  1.0000
  C   C58       1.0  0.7014085062634194  0.59687518442842  0.5770034751006393  1.0000
  C   C59       1.0  0.455590002394665  0.34786517921023835  0.35877544056364746  1.0000
  C   C60       1.0  0.5444132629768105  0.652130669941741  0.6412207652475319  1.0000
  N   N1        1.0  0.9806134990081362  0.4087746139376947  0.15876919406069595  1.0000
  N   N2        1.0  0.019384194217302385  0.5912283134410926  0.8412301522228278  1.0000
  N   N3        1.0  0.12082036405841734  0.5338941701338696  0.08318810014186087  1.0000
  N   N4        1.0  0.8791757279706192  0.466109633680986  0.9168126986536224  1.0000
  N   N5        1.0  0.20156688868773653  0.9960063627971961  0.4629711165454396  1.0000
  N   N6        1.0  0.7984291821827512  0.0039947691285604  0.5370307429534693  1.0000
  N   N7        1.0  0.0758006482961164  0.09675352950547021  0.3345760303294226  1.0000
  N   N8        1.0  0.9241958168249629  0.9032467081717428  0.66542661187831  1.0000
  O   O1        1.0  0.9120926932338307  0.1258467897493531  0.08283543868311233  1.0000
  O   O2        1.0  0.08790900961577115  0.8741552452141406  0.9171643254057573  1.0000
  O   O3        1.0  0.7050033658121749  0.21699541161508054  0.19148600616730962  1.0000
  O   O4        1.0  0.29500658005381564  0.7829825576888395  0.8085252709259765  1.0000
  O   O5        1.0  0.5987728352585505  0.3384953537582192  0.3766444379240923  1.0000
  O   O6        1.0  0.40122882770233326  0.6615013603622373  0.6233546294565715  1.0000
  O   O7        1.0  0.4272373095212386  0.3119338555192003  0.2815967205190475  1.0000
  O   O8        1.0  0.572763941065979  0.6880611096296648  0.7183991022124092  1.0000
