data_image0
_chemical_formula_structural       Hg2H28C28N8Cl4O2
_chemical_formula_sum              "Hg2 H28 C28 N8 Cl4 O2"
_cell_length_a       7.726755743982426
_cell_length_b       10.25354504786709
_cell_length_c       12.423157630793154
_cell_angle_alpha    75.21702742043253
_cell_angle_beta     92.0256707146706
_cell_angle_gamma    65.71266928397284

_space_group_name_H-M_alt    "P 1"
_space_group_IT_number       1

loop_
  _space_group_symop_operation_xyz
  'x, y, z'

loop_
  _atom_site_type_symbol
  _atom_site_label
  _atom_site_symmetry_multiplicity
  _atom_site_fract_x
  _atom_site_fract_y
  _atom_site_fract_z
  _atom_site_occupancy
  Hg  Hg1       1.0  0.6096389801031776  0.15105740209511245  0.0033156511102702966  1.0000
  Hg  Hg2       1.0  0.39035708008202624  0.8489582056108984  0.9966804534494358  1.0000
  H   H1        1.0  0.06706931569167553  0.6463645985546975  0.9936841984780713  1.0000
  H   H2        1.0  0.9329197332325808  0.3536554207483959  0.006320620768633515  1.0000
  H   H3        1.0  0.15890531033437577  0.41486187960821747  0.9349408426442383  1.0000
  H   H4        1.0  0.8410745808561585  0.5851516123660545  0.06507495256289526  1.0000
  H   H5        1.0  0.2335864562624509  0.4155516374731645  0.7420481843442135  1.0000
  H   H6        1.0  0.7664226414799771  0.5844332727323547  0.2579793243429336  1.0000
  H   H7        1.0  0.21355884947293896  0.64601274120578  0.6086150773131038  1.0000
  H   H8        1.0  0.7864744245767951  0.35395410598645327  0.39140180186750945  1.0000
  H   H9        1.0  0.49471692341954576  0.7284029810945185  0.4691086762540095  1.0000
  H   H10       1.0  0.5053086593388089  0.2715952406844336  0.5308879592000153  1.0000
  H   H11       1.0  0.6189389121346167  0.8065889887015983  0.3773738343809754  1.0000
  H   H12       1.0  0.38108488641367444  0.19341802437653394  0.6226241883836182  1.0000
  H   H13       1.0  0.4061352128493496  0.8026489802876213  0.3223994780644333  1.0000
  H   H14       1.0  0.5938912361402658  0.19734259105948126  0.6775993479756652  1.0000
  H   H15       1.0  0.20575830958460276  0.2631199130163677  0.4086196968407877  1.0000
  H   H16       1.0  0.7942520378477977  0.7368731671452267  0.5913835706905674  1.0000
  H   H17       1.0  0.23466918416778523  0.4776281294728619  0.26787428290840143  1.0000
  H   H18       1.0  0.7653233139766017  0.5223720914844349  0.7321290266479679  1.0000
  H   H19       1.0  0.4101780866881414  0.42750270442725474  0.10814676303810697  1.0000
  H   H20       1.0  0.5898121555307297  0.5725019739213478  0.891856415414054  1.0000
  H   H21       1.0  0.5202057067592776  0.979222502605424  0.21133051664548932  1.0000
  H   H22       1.0  0.4797766999527155  0.02078605363528399  0.7886573220252303  1.0000
  H   H23       1.0  0.9677651690111517  0.9028919020264963  0.9392772818369793  1.0000
  H   H24       1.0  0.0322353249671679  0.09712249881421538  0.0607174839146722  1.0000
  H   H25       1.0  0.0055187460787707076  0.001702988972631691  0.813487832607244  1.0000
  H   H26       1.0  0.994484159504296  0.9983060109062549  0.18650001254098922  1.0000
  H   H27       1.0  0.30803911158746194  0.7846924832529324  0.5557046073530644  1.0000
  H   H28       1.0  0.6919534959946886  0.2152982597504617  0.44428134187285206  1.0000
  C   C1        1.0  0.09037182416712848  0.7786960920748313  0.835144999626472  1.0000
  C   C2        1.0  0.9096255586965115  0.2213095302247012  0.16485479563998243  1.0000
  C   C3        1.0  0.10058829110973022  0.6451047898995765  0.9093136510202912  1.0000
  C   C4        1.0  0.8994020597036325  0.354907518296713  0.09069116503652448  1.0000
  C   C5        1.0  0.15307802674749382  0.516474966667104  0.8765766107987788  1.0000
  C   C6        1.0  0.8469135636019516  0.48353053495807063  0.1234368730863267  1.0000
  C   C7        1.0  0.19539177393937726  0.5164640764810783  0.7678002987124587  1.0000
  C   C8        1.0  0.8046034675508978  0.4835292176111704  0.23221493239751823  1.0000
  C   C9        1.0  0.1871567521604831  0.6465130333131056  0.6942954456350208  1.0000
  C   C10       1.0  0.8128407817345646  0.3534726440698748  0.3057141298023396  1.0000
  C   C11       1.0  0.1388116133019113  0.7788506446653823  0.72564056977955  1.0000
  C   C12       1.0  0.8611884925399167  0.2211417711679857  0.27435795417632397  1.0000
  C   C13       1.0  0.13935099229949796  0.9157191197227235  0.6489053734514697  1.0000
  C   C14       1.0  0.8606416254665064  0.08427476308123255  0.35108717220654034  1.0000
  C   C15       1.0  0.47458370020768836  0.8197245807040971  0.39357552570561427  1.0000
  C   C16       1.0  0.5254422456716413  0.18027034513504248  0.6064209905585329  1.0000
  C   C17       1.0  0.35935244796875315  0.9725610683084508  0.4058613833887605  1.0000
  C   C18       1.0  0.6406515418928009  0.02743351466905609  0.5941326823278388  1.0000
  C   C19       1.0  0.36396637441838214  0.10269310168142448  0.3238770636550968  1.0000
  C   C20       1.0  0.6360326060028997  0.8973038073885604  0.6761181056796773  1.0000
  C   C21       1.0  0.28079312150362074  0.24700105666896383  0.33711206130919186  1.0000
  C   C22       1.0  0.7192148872825401  0.7529911058185234  0.662886553271946  1.0000
  C   C23       1.0  0.29652621313192645  0.36459694731586717  0.26006121254696524  1.0000
  C   C24       1.0  0.7034715069789143  0.6354031242615858  0.7399413477709729  1.0000
  C   C25       1.0  0.39253194038229094  0.33833439932245574  0.16927987396822894  1.0000
  C   C26       1.0  0.6074564815689101  0.6616736757424987  0.8307209796037754  1.0000
  C   C27       1.0  0.4542335638266906  0.08633360808308049  0.22927362873218024  1.0000
  C   C28       1.0  0.5457582237656737  0.9136723197355534  0.7707204385304892  1.0000
  N   N1        1.0  0.044789579438010214  0.9016113386585828  0.8741814842230439  1.0000
  N   N2        1.0  0.9552104428248428  0.09839872827426177  0.1258117631138305  1.0000
  N   N3        1.0  0.24018008256692283  0.8913254624968444  0.5603041327212851  1.0000
  N   N4        1.0  0.7598150609193652  0.10866070601080928  0.43968680554049666  1.0000
  N   N5        1.0  0.25382340043839957  0.003712319292304796  0.4834101378841923  1.0000
  N   N6        1.0  0.7461708250690934  0.9962759900826652  0.5165843782742314  1.0000
  N   N7        1.0  0.46682903509967133  0.20147311103002608  0.15453230167717896  1.0000
  N   N8        1.0  0.5331622442979692  0.7985316421987106  0.8454660339475383  1.0000
  Cl  Cl1       1.0  0.7024723000101362  0.27337248721286034  0.8400856497010596  1.0000
  Cl  Cl2       1.0  0.29753195370349794  0.7266373359426053  0.159912500880111  1.0000
  Cl  Cl3       1.0  0.7414548264271801  0.8617583501980942  0.07347793123418715  1.0000
  Cl  Cl4       1.0  0.25853711642277233  0.13825518795081135  0.9265185832884132  1.0000
  O   O1        1.0  0.0625842067596238  0.0420330104853122  0.6622459143146032  1.0000
  O   O2        1.0  0.9374016131148861  0.957950352826785  0.3377367024750555  1.0000
