data_image0
_chemical_formula_structural       Al2Ag2H36C38S2N6O18F6
_chemical_formula_sum              "Al2 Ag2 H36 C38 S2 N6 O18 F6"
_cell_length_a       10.266882487298254
_cell_length_b       12.197945334156437
_cell_length_c       13.420848637288517
_cell_angle_alpha    114.44003887218558
_cell_angle_beta     107.03411541885325
_cell_angle_gamma    93.69982456922183

_space_group_name_H-M_alt    "P 1"
_space_group_IT_number       1

loop_
  _space_group_symop_operation_xyz
  'x, y, z'

loop_
  _atom_site_type_symbol
  _atom_site_label
  _atom_site_symmetry_multiplicity
  _atom_site_fract_x
  _atom_site_fract_y
  _atom_site_fract_z
  _atom_site_occupancy
  Al  Al1       1.0  0.4326570229778284  0.6621642578900263  0.7670851191225838  1.0000
  Al  Al2       1.0  0.5673419426304207  0.3378416004179741  0.2329216496147169  1.0000
  Ag  Ag1       1.0  0.07254588826940277  0.9545733862788169  0.3653164870132955  1.0000
  Ag  Ag2       1.0  0.927447251185626  0.0454075202743809  0.6346830191648466  1.0000
  H   H1        1.0  0.975606328626661  0.6308805280105503  0.5176788701806672  1.0000
  H   H2        1.0  0.024383799932401515  0.3691133551476042  0.48231824236784615  1.0000
  H   H3        1.0  0.986798009218468  0.7749646771797174  0.6322857582833952  1.0000
  H   H4        1.0  0.013198242893984994  0.2250292556654614  0.36771279402726265  1.0000
  H   H5        1.0  0.9887866269836179  0.6413650334115175  0.6578724393151847  1.0000
  H   H6        1.0  0.011201702144170185  0.3586297823459432  0.3421231255199545  1.0000
  H   H7        1.0  0.5754817980039774  0.9233345350673615  0.6557439415097763  1.0000
  H   H8        1.0  0.4245118307630093  0.07665667161006699  0.34424996834773225  1.0000
  H   H9        1.0  0.41368308642439183  0.9632988925997877  0.6032829386114857  1.0000
  H   H10       1.0  0.5863167825204484  0.036697032351988  0.39671051503970756  1.0000
  H   H11       1.0  0.45053726593101107  0.8261167802492223  0.5116347739941746  1.0000
  H   H12       1.0  0.549463840399518  0.17388391808671602  0.4883518675116251  1.0000
  H   H13       1.0  0.32136770676138576  0.40609187642447614  0.8909259621113111  1.0000
  H   H14       1.0  0.6786384151567545  0.5939094953560086  0.10907775299757819  1.0000
  H   H15       1.0  0.3775666895734843  0.28116030551886684  0.7946460891109485  1.0000
  H   H16       1.0  0.6224343723130731  0.7188410662196318  0.20535421642303237  1.0000
  H   H17       1.0  0.20004545172687216  0.2904704519825074  0.7520845349921219  1.0000
  H   H18       1.0  0.7999591968579552  0.7095335990530814  0.24792359931952046  1.0000
  H   H19       1.0  0.26652696054024716  0.41473655795033426  0.39134047261048727  1.0000
  H   H20       1.0  0.7334735520961997  0.5852712483260092  0.6086621907287225  1.0000
  H   H21       1.0  0.27555379847220957  0.26700312225929673  0.38934957605601284  1.0000
  H   H22       1.0  0.7244458351561888  0.7330055283818384  0.6106569356674643  1.0000
  H   H23       1.0  0.42801772300852287  0.3731981727665996  0.4216846360652229  1.0000
  H   H24       1.0  0.5719813306044584  0.6268123265528089  0.5783217098856996  1.0000
  H   H25       1.0  0.8585135634194998  0.6125593734518376  0.8419183246492569  1.0000
  H   H26       1.0  0.1414816224724262  0.38745129956221547  0.15807601259461285  1.0000
  H   H27       1.0  0.8958402939603614  0.6541637867950741  0.993000534000345  1.0000
  H   H28       1.0  0.1041635629899673  0.34584047656663586  0.006995574894276028  1.0000
  H   H29       1.0  0.9395963259183586  0.7680592417276911  0.9531901474171607  1.0000
  H   H30       1.0  0.06039551351410209  0.2319504159173249  0.04680674751142531  1.0000
  H   H31       1.0  0.458984012771097  0.9704438087820577  0.0921432049760896  1.0000
  H   H32       1.0  0.5410273536923924  0.029558457050249787  0.9078657982792112  1.0000
  H   H33       1.0  0.6418009881530722  0.9998083100190414  0.17446111474238526  1.0000
  H   H34       1.0  0.3582064396712639  0.00019933361822669542  0.825555013775997  1.0000
  H   H35       1.0  0.5206428597624038  0.882980580240712  0.16680277261725251  1.0000
  H   H36       1.0  0.47935973547368604  0.1170279987282612  0.833209615124588  1.0000
  C   C1        1.0  0.023150549821451656  0.6881389692199632  0.6129214336093798  1.0000
  C   C2        1.0  0.9768487926874199  0.3118550160446389  0.3870763654002688  1.0000
  C   C3        1.0  0.17892726736745598  0.7114401994287078  0.6503740685634443  1.0000
  C   C4        1.0  0.8210641235370345  0.28855464117226853  0.34962221615276695  1.0000
  C   C5        1.0  0.24944733233746763  0.7776221859156323  0.608404760943188  1.0000
  C   C6        1.0  0.7505583017831154  0.2223681709741996  0.39159309623127586  1.0000
  C   C7        1.0  0.39832198443783545  0.8128419421230787  0.6473139152526104  1.0000
  C   C8        1.0  0.6016802517894106  0.18715574604683383  0.3526859852354322  1.0000
  C   C9        1.0  0.46441168142472816  0.8867989344860161  0.6035846606442021  1.0000
  C   C10       1.0  0.5355873800613509  0.11319790377032748  0.39640895843606233  1.0000
  C   C11       1.0  0.16706314389945476  0.8157352018161674  0.5296365429433011  1.0000
  C   C12       1.0  0.8329386702739612  0.18424313860194272  0.4703572773904201  1.0000
  C   C13       1.0  0.3070985641501379  0.3460387703791099  0.7997624042774805  1.0000
  C   C14       1.0  0.6929056024426927  0.6539626675667661  0.20023641136443632  1.0000
  C   C15       1.0  0.34015305766234855  0.42129920322587805  0.7432366937322642  1.0000
  C   C16       1.0  0.6598380379094947  0.5786984765788858  0.2567561476455965  1.0000
  C   C17       1.0  0.3184299558400027  0.3624198035983142  0.62067704745666  1.0000
  C   C18       1.0  0.6815550326338878  0.6375823985910499  0.37931761432789574  1.0000
  C   C19       1.0  0.3510209941103639  0.4269783968965656  0.5608211103966811  1.0000
  C   C20       1.0  0.6489688269517798  0.5730228699610862  0.439177292164402  1.0000
  C   C21       1.0  0.3269505215984693  0.3644003141580825  0.4331911597832417  1.0000
  C   C22       1.0  0.6730492121989328  0.6356084329987439  0.5668101958029512  1.0000
  C   C23       1.0  0.2626582386662051  0.23478633353242628  0.5552203542973404  1.0000
  C   C24       1.0  0.737343460475202  0.7652132446796145  0.44477717064502553  1.0000
  C   C25       1.0  0.8614874863037016  0.6852708359800488  0.9253793638942444  1.0000
  C   C26       1.0  0.13851394827036495  0.314736167295365  0.07461724128756943  1.0000
  C   C27       1.0  0.7199619724326708  0.7138853489366142  0.9141795431588308  1.0000
  C   C28       1.0  0.2800363574351151  0.2861215881314223  0.08581855191503251  1.0000
  C   C29       1.0  0.6967592842965897  0.8039637491914886  0.013622839374796846  1.0000
  C   C30       1.0  0.3032486142386759  0.196045064214708  0.9863804358942547  1.0000
  C   C31       1.0  0.5640831868242769  0.8353079091192656  0.010072439060643045  1.0000
  C   C32       1.0  0.4359214596149599  0.1646915836326528  0.9899316984911268  1.0000
  C   C33       1.0  0.5463664415879633  0.9287469056037665  0.11694775561829124  1.0000
  C   C34       1.0  0.4536399778084074  0.0712561852566083  0.8830633995888136  1.0000
  C   C35       1.0  0.8097377585293941  0.8636919547231799  0.12023579691859264  1.0000
  C   C36       1.0  0.1902634835797556  0.1363011944577934  0.8797583936671461  1.0000
  C   C37       1.0  0.25612121001771726  0.6485210901507514  0.10286388583356408  1.0000
  C   C38       1.0  0.7438829650794004  0.35147195978215245  0.8971376539526191  1.0000
  S   S1        1.0  0.32352676531225194  0.7669426977920323  0.2596233917594902  1.0000
  S   S2        1.0  0.6764742801188602  0.2330541018748349  0.7403736536056514  1.0000
  N   N1        1.0  0.09557594740007856  0.8466800397154585  0.4650599251080011  1.0000
  N   N2        1.0  0.9044176399517383  0.1533104108316934  0.5349247402675915  1.0000
  N   N3        1.0  0.21418637701102472  0.12980447201904607  0.49580526867986674  1.0000
  N   N4        1.0  0.7858060058659787  0.8701903492871849  0.504192729178783  1.0000
  N   N5        1.0  0.9035122020811027  0.9131365938886588  0.20895215625529323  1.0000
  N   N6        1.0  0.09648616491069359  0.0868619827423132  0.7910471897807485  1.0000
  O   O1        1.0  0.24218230925286113  0.6704921044645858  0.7203179096685307  1.0000
  O   O2        1.0  0.757817391633658  0.3295074985489848  0.27967692557999874  1.0000
  O   O3        1.0  0.47760935733245446  0.7819096980190778  0.7198277791856286  1.0000
  O   O4        1.0  0.522380595295182  0.21810152426393606  0.2801834418308787  1.0000
  O   O5        1.0  0.38754856565569895  0.5367031151278212  0.8067493505505399  1.0000
  O   O6        1.0  0.6124564083958858  0.46329740951348  0.19324929966231977  1.0000
  O   O7        1.0  0.4030950875546323  0.5427528389725539  0.6135013381830137  1.0000
  O   O8        1.0  0.5969081020067293  0.4572539051061071  0.3865104787403412  1.0000
  O   O9        1.0  0.6234329969433929  0.6558982872647688  0.8146753546788974  1.0000
  O   O10       1.0  0.37656628196734226  0.3441085891446605  0.1853266633105336  1.0000
  O   O11       1.0  0.4566118612260511  0.7843564577509383  0.9172070948390999  1.0000
  O   O12       1.0  0.5433914799381867  0.2156420361942892  0.08280008031809426  1.0000
  O   O13       1.0  0.30152487467341155  0.6973606675069772  0.321124672018172  1.0000
  O   O14       1.0  0.6984777592010828  0.30263883625850946  0.678877512430802  1.0000
  O   O15       1.0  0.4694250831913037  0.8099580532586684  0.2793901913139437  1.0000
  O   O16       1.0  0.5305747363872014  0.1900241554782198  0.7205934818307613  1.0000
  O   O17       1.0  0.23697975178993855  0.8577014845711374  0.2591718480497461  1.0000
  O   O18       1.0  0.7630230952180312  0.1422989407800941  0.7408307417886493  1.0000
  F   F1        1.0  0.2637176159236034  0.6987129942316486  0.03075449466324901  1.0000
  F   F2        1.0  0.7362960334775508  0.3012902373246504  0.969253920720107  1.0000
  F   F3        1.0  0.3318796849723427  0.5583926473229823  0.08514010472718073  1.0000
  F   F4        1.0  0.6681319460585016  0.4416021934459523  0.9148698182886721  1.0000
  F   F5        1.0  0.12072205255205395  0.5926013445777868  0.06858090087927592  1.0000
  F   F6        1.0  0.8792855240983853  0.40738821759229177  0.9314111380981419  1.0000
