data_image0
_chemical_formula_structural       Zn4H26C48N6O20
_chemical_formula_sum              "Zn4 H26 C48 N6 O20"
_cell_length_a       9.615265617848278
_cell_length_b       11.02584034561403
_cell_length_c       29.035867324895104
_cell_angle_alpha    90.16229917597052
_cell_angle_beta     90.14961992569783
_cell_angle_gamma    89.97700625596624

_space_group_name_H-M_alt    "P 1"
_space_group_IT_number       1

loop_
  _space_group_symop_operation_xyz
  'x, y, z'

loop_
  _atom_site_type_symbol
  _atom_site_label
  _atom_site_symmetry_multiplicity
  _atom_site_fract_x
  _atom_site_fract_y
  _atom_site_fract_z
  _atom_site_occupancy
  Zn  Zn1       1.0  0.6422244243410944  0.49823817927372005  0.49897441744317916  1.0000
  Zn  Zn2       1.0  0.35720774506658876  0.4980285822408989  0.49839070697832005  1.0000
  Zn  Zn3       1.0  0.35807323721346046  0.5007902861975284  0.1181356748724127  1.0000
  Zn  Zn4       1.0  0.6431068510819387  0.5003223749111643  0.11870666548126249  1.0000
  H   H1        1.0  0.8664377181890189  0.3636408082969212  0.4487025489721432  1.0000
  H   H2        1.0  0.1326373044080924  0.6326418319230387  0.5494374828088908  1.0000
  H   H3        1.0  0.13359401026198733  0.3639926660356424  0.44891177757170203  1.0000
  H   H4        1.0  0.8663412558966997  0.6324141473624607  0.5489814741765144  1.0000
  H   H5        1.0  0.2737775685770601  0.11119081102317101  0.49901869103169355  1.0000
  H   H6        1.0  0.7212764147544847  0.8850631234098503  0.5001791560695636  1.0000
  H   H7        1.0  0.2751056527456157  0.8832767926426258  0.50128256990088  1.0000
  H   H8        1.0  0.7199677920798065  0.11299631183802462  0.49953674478144444  1.0000
  H   H9        1.0  0.27916186630263706  0.4966262712701593  0.970589510278181  1.0000
  H   H10       1.0  0.2757404211856098  0.4957850097649088  0.8845219645331994  1.0000
  H   H11       1.0  0.7249788602747386  0.504526865602543  0.8844563131668863  1.0000
  H   H12       1.0  0.2752068227313913  0.5045750799043421  0.7327667817418941  1.0000
  H   H13       1.0  0.7208992909539232  0.49520523832529784  0.646592827505458  1.0000
  H   H14       1.0  0.7244127499732897  0.49499260672733675  0.7326452197579201  1.0000
  H   H15       1.0  0.7238365118520916  0.5019294090518828  0.35170543121419223  1.0000
  H   H16       1.0  0.2765076485472591  0.5025870745425678  0.2653697662280905  1.0000
  H   H17       1.0  0.7225759602454288  0.5047548215084491  0.2650550612617479  1.0000
  H   H18       1.0  0.27776405790743297  0.5033813548941808  0.3520230077763102  1.0000
  H   H19       1.0  0.1340780317963919  0.36624152071174626  0.1680914862833447  1.0000
  H   H20       1.0  0.867436096742466  0.6342791151787709  0.0676251214943449  1.0000
  H   H21       1.0  0.8669338867203109  0.36640300221103683  0.1678772526827217  1.0000
  H   H22       1.0  0.13372383447168798  0.6341303916496701  0.0680535517192808  1.0000
  H   H23       1.0  0.7265144052275828  0.11336871654648924  0.1179298764530614  1.0000
  H   H24       1.0  0.2789988243332076  0.887557198638767  0.11702133904052658  1.0000
  H   H25       1.0  0.7251598626408295  0.8854163306218228  0.1158455256292541  1.0000
  H   H26       1.0  0.2803337708805386  0.11553121848844948  0.11746945309895548  1.0000
  C   C1        1.0  0.4990978906052916  0.7352293415058144  0.5013563703136796  1.0000
  C   C2        1.0  0.5027732518390168  0.49857354372439755  0.5894547563478127  1.0000
  C   C3        1.0  0.4959263232476588  0.2609947798310088  0.498029490143132  1.0000
  C   C4        1.0  0.501371075078268  0.5004946360729292  0.40838273394668784  1.0000
  C   C5        1.0  0.5011260893080375  0.7375670460724423  0.1159476701519111  1.0000
  C   C6        1.0  0.4973803583914176  0.5002082460794173  0.0277043371207313  1.0000
  C   C7        1.0  0.504382061969963  0.26337058225977483  0.1188823269067782  1.0000
  C   C8        1.0  0.4988709059366414  0.5026550440968266  0.2086918037180183  1.0000
  C   C9        1.0  0.927536950404317  0.4232414360803675  0.4709049365071181  1.0000
  C   C10       1.0  0.07226560108448869  0.5736758696741477  0.5268049010174352  1.0000
  C   C11       1.0  0.0722250657149104  0.4236449628729133  0.47092400675104773  1.0000
  C   C12       1.0  0.9273879027413726  0.5731816000391066  0.5267388951277354  1.0000
  C   C13       1.0  0.49680563951103107  0.12518125389762255  0.4989019306727158  1.0000
  C   C14       1.0  0.49825683928402503  0.8710540000588411  0.500871050914391  1.0000
  C   C15       1.0  0.3711567171589182  0.060666339842910616  0.4993879096023832  1.0000
  C   C16       1.0  0.6238908575898848  0.9355660749701473  0.5002008131451632  1.0000
  C   C17       1.0  0.37187788509157826  0.9345501253144309  0.5006535988624989  1.0000
  C   C18       1.0  0.6231805449207214  0.06169991314761352  0.4995502448907843  1.0000
  C   C19       1.0  0.5006635799183456  0.5030850553734256  0.9760325497095863  1.0000
  C   C20       1.0  0.3756627217064263  0.4992625323091176  0.9510314961392652  1.0000
  C   C21       1.0  0.3739988165177691  0.4982235178320877  0.903250042159847  1.0000
  C   C22       1.0  0.4998934293670985  0.4997479381650792  0.878334242418248  1.0000
  C   C23       1.0  0.6265021892511414  0.5031186533113613  0.9028913254768939  1.0000
  C   C24       1.0  0.6244561874703437  0.5058941573371529  0.9506433422813245  1.0000
  C   C25       1.0  0.5000352628744267  0.49873025982422814  0.8296229946698404  1.0000
  C   C26       1.0  0.5001288396919534  0.4987289761555332  0.787573148716227  1.0000
  C   C27       1.0  0.5002540731247932  0.49948441176763947  0.738864677660331  1.0000
  C   C28       1.0  0.3736435229162254  0.502901414483766  0.7143125493613809  1.0000
  C   C29       1.0  0.37565745228185676  0.5052339251304903  0.6665590121956839  1.0000
  C   C30       1.0  0.4994357480584242  0.5019926626085651  0.6411545537833945  1.0000
  C   C31       1.0  0.6244305760064747  0.4981758291692488  0.6661518809683358  1.0000
  C   C32       1.0  0.6261308122028241  0.4975161035790948  0.7139323542205532  1.0000
  C   C33       1.0  0.5008431516158751  0.5016354604902491  0.3567954091156338  1.0000
  C   C34       1.0  0.49948753849605515  0.5027522310516163  0.2602765614727574  1.0000
  C   C35       1.0  0.6265115059457288  0.5020083515859639  0.3324064369126916  1.0000
  C   C36       1.0  0.3738275435929594  0.502364831890425  0.2846696525729513  1.0000
  C   C37       1.0  0.6258364861776399  0.5032739408477057  0.2845026158445663  1.0000
  C   C38       1.0  0.3745007078911656  0.5025113844320047  0.3325731406284334  1.0000
  C   C39       1.0  0.07288259262010402  0.4256000618775815  0.14593654158888816  1.0000
  C   C40       1.0  0.9278979858639291  0.5755302530368668  0.090196330503332  1.0000
  C   C41       1.0  0.9281909485545228  0.4259202923218624  0.1459185275410491  1.0000
  C   C42       1.0  0.0727698921194317  0.5750812720952327  0.0902496986250654  1.0000
  C   C43       1.0  0.5034944341755504  0.12754950137496485  0.1180994896051004  1.0000
  C   C44       1.0  0.5019985862651453  0.8733906229137036  0.1163781853320884  1.0000
  C   C45       1.0  0.6291326593750242  0.0629228080354949  0.11764524772539889  1.0000
  C   C46       1.0  0.3763699251718293  0.938006538006093  0.11699704148757918  1.0000
  C   C47       1.0  0.6283910997108181  0.9367849785120373  0.1164955607734228  1.0000
  C   C48       1.0  0.3771120117780669  0.0641512291979112  0.1175257771304814  1.0000
  N   N1        1.0  0.8567698799538732  0.4981000971444019  0.4988465181489161  1.0000
  N   N2        1.0  0.1428474515186338  0.49889337267747913  0.4988561543970107  1.0000
  N   N3        1.0  0.14352268196071802  0.5003305705780506  0.118092850991637  1.0000
  N   N4        1.0  0.8574370605035142  0.5009784643984505  0.1180911757003784  1.0000
  N   N5        1.0  0.7624851450639766  0.5166473248355035  0.9732515942699109  1.0000
  N   N6        1.0  0.23758409406498515  0.51591050233651  0.6439742489466553  1.0000
  O   O1        1.0  0.6165713790625632  0.6826639052349892  0.4970384453824366  1.0000
  O   O2        1.0  0.38236585777688964  0.6816566352775838  0.5058371770865193  1.0000
  O   O3        1.0  0.38734961971927356  0.48118116696210234  0.5690519472090756  1.0000
  O   O4        1.0  0.6207989360551451  0.5117083854891648  0.5705199377362362  1.0000
  O   O5        1.0  0.37874429343555965  0.3133291806122999  0.49268188196757734  1.0000
  O   O6        1.0  0.6126514937130096  0.31472577945571356  0.5028831853567439  1.0000
  O   O7        1.0  0.6186316144350386  0.4883734907569065  0.4284948393927479  1.0000
  O   O8        1.0  0.3842606071248227  0.5117769874110467  0.4284960455570399  1.0000
  O   O9        1.0  0.3836436033389674  0.6851913849670057  0.1203015064584463  1.0000
  O   O10       1.0  0.6178468992705105  0.6838405105467873  0.11144121777372358  1.0000
  O   O11       1.0  0.6127977860415043  0.482812203579968  0.0480763698629261  1.0000
  O   O12       1.0  0.379422694650323  0.513817968387926  0.046667876994170895  1.0000
  O   O13       1.0  0.6215695328194144  0.31567620297148846  0.1242512426581186  1.0000
  O   O14       1.0  0.387700581158299  0.3171310441812737  0.1139607901467983  1.0000
  O   O15       1.0  0.3815657458908745  0.49083687011738436  0.18855821460847014  1.0000
  O   O16       1.0  0.6159090536310855  0.514354250747708  0.1886038505936583  1.0000
  O   O17       1.0  0.7965845299965935  0.6191239694783449  0.9866938615072769  1.0000
  O   O18       1.0  0.8364875349671407  0.42513191850296295  0.9743034867222279  1.0000
  O   O19       1.0  0.20327914814671294  0.6183805403804927  0.6307800668350367  1.0000
  O   O20       1.0  0.1638070439847894  0.4243116622708881  0.6426885155248669  1.0000
