data_image0
_chemical_formula_structural       Zn8H6C30Br6N12O26
_chemical_formula_sum              "Zn8 H6 C30 Br6 N12 O26"
_cell_length_a       16.952474199787197
_cell_length_b       17.020574175933262
_cell_length_c       17.463767757119992
_cell_angle_alpha    62.06033092131432
_cell_angle_beta     62.472908514647884
_cell_angle_gamma    61.436262547863414

_space_group_name_H-M_alt    "P 1"
_space_group_IT_number       1

loop_
  _space_group_symop_operation_xyz
  'x, y, z'

loop_
  _atom_site_type_symbol
  _atom_site_label
  _atom_site_symmetry_multiplicity
  _atom_site_fract_x
  _atom_site_fract_y
  _atom_site_fract_z
  _atom_site_occupancy
  Zn  Zn1       1.0  0.08433055873466341  0.006067206717311497  0.8237348452008035  1.0000
  Zn  Zn2       1.0  0.07204860879276244  0.8297648613735831  0.016538689457277732  1.0000
  Zn  Zn3       1.0  0.8977380132105565  0.015679267428403396  0.9939691123798299  1.0000
  Zn  Zn4       1.0  0.06884507914372051  0.0237247970553796  0.010760453980914497  1.0000
  Zn  Zn5       1.0  0.5014598988311292  0.4160843708115606  0.5928601190432446  1.0000
  Zn  Zn6       1.0  0.47856830507767967  0.6006593916274883  0.4425473288659345  1.0000
  Zn  Zn7       1.0  0.468431051283858  0.42496346021552267  0.4235756270071106  1.0000
  Zn  Zn8       1.0  0.6733812834415075  0.4236985989352674  0.4074056017474346  1.0000
  H   H1        1.0  0.22586227097388442  0.6184756082744798  0.9078066296961039  1.0000
  H   H2        1.0  0.7087138384149158  0.1903877928372069  0.8631684491946953  1.0000
  H   H3        1.0  0.24017626538333303  0.18189136970622852  0.8906076509525745  1.0000
  H   H4        1.0  0.6894222420060602  0.9053031030834263  0.17115076666678405  1.0000
  H   H5        1.0  0.20010220247740315  0.9062852827170997  0.20296910281559374  1.0000
  H   H6        1.0  0.6881726747381053  0.18104393195248747  0.1432854652097219  1.0000
  C   C1        1.0  0.17606248055835033  0.8065818983294334  0.832594901659725  1.0000
  C   C2        1.0  0.23331011476236796  0.7347571853679185  0.7866372512293297  1.0000
  C   C3        1.0  0.3219246506368308  0.63701699203893  0.703167023273366  1.0000
  C   C4        1.0  0.3810284290038199  0.5907702504202986  0.6317941735737023  1.0000
  C   C5        1.0  0.2800700333175143  0.7340739426942376  0.6965212100148435  1.0000
  C   C6        1.0  0.8944661549592324  0.109183938930471  0.8032072354805349  1.0000
  C   C7        1.0  0.8300438761322297  0.1753071158322186  0.7485009926615475  1.0000
  C   C8        1.0  0.742179875188313  0.2791621686882024  0.6551136166007793  1.0000
  C   C9        1.0  0.6981822407163066  0.3442124068969434  0.5813983779531708  1.0000
  C   C10       1.0  0.835922630518141  0.21966963486732277  0.656095439921124  1.0000
  C   C11       1.0  0.1788348050754109  0.11344123882659568  0.8249611303123671  1.0000
  C   C12       1.0  0.24145281610023517  0.17016072321385414  0.7744819981399687  1.0000
  C   C13       1.0  0.3412815703185288  0.2521604859124267  0.6841172092543105  1.0000
  C   C14       1.0  0.40497979410376667  0.30563120152275053  0.6103028805643406  1.0000
  C   C15       1.0  0.2899944791116838  0.20706438566097768  0.6828937582231089  1.0000
  C   C16       1.0  0.8769383893241882  0.8286445006807028  0.10772428886289713  1.0000
  C   C17       1.0  0.8078298213594765  0.7800276216215991  0.17003719460271313  1.0000
  C   C18       1.0  0.7134460273970405  0.6931029308218795  0.2667592444316255  1.0000
  C   C19       1.0  0.6673177114138084  0.6202340452427109  0.32887790535550465  1.0000
  C   C20       1.0  0.809284637888382  0.6865055240160772  0.21678659987169602  1.0000
  C   C21       1.0  0.16406567460565213  0.8320149597083741  0.12151435574919837  1.0000
  C   C22       1.0  0.2177525149061452  0.7825935887289288  0.18651053292830264  1.0000
  C   C23       1.0  0.303202823529574  0.6936560043207862  0.28368961214876975  1.0000
  C   C24       1.0  0.3628773870454084  0.6200441308011551  0.3432724411406126  1.0000
  C   C25       1.0  0.26648916905484316  0.6887178172428605  0.22807312766471438  1.0000
  C   C26       1.0  0.8755351338110273  0.1272972918821083  0.0968164357986936  1.0000
  C   C27       1.0  0.8042909326594839  0.1845563310108744  0.1563848377065255  1.0000
  C   C28       1.0  0.7057104844444879  0.2712956182683897  0.2503900639101957  1.0000
  C   C29       1.0  0.6577996312542921  0.3280269134635745  0.3132851575766935  1.0000
  C   C30       1.0  0.8029044097480238  0.228779177502787  0.2076926957092482  1.0000
  Br  Br1       1.0  0.2832897596786309  0.8393561843430746  0.5923051720622113  1.0000
  Br  Br2       1.0  0.9445961231562876  0.20345494944001524  0.5572822132843382  1.0000
  Br  Br3       1.0  0.28907707024669077  0.19541549068701874  0.5824125400647873  1.0000
  Br  Br4       1.0  0.915768813565244  0.5784140570557454  0.21281210277518844  1.0000
  Br  Br5       1.0  0.28017761620651527  0.5821344476130152  0.21100239540521665  1.0000
  Br  Br6       1.0  0.9080702102520847  0.22963176109252711  0.21644268529469451  1.0000
  N   N1        1.0  0.25006255289127216  0.6417578451213969  0.8386603077182145  1.0000
  N   N2        1.0  0.30209439362960927  0.5821493256067426  0.7913945370081876  1.0000
  N   N3        1.0  0.7365172315004429  0.20955504354547116  0.794286213088867  1.0000
  N   N4        1.0  0.6829415933937284  0.2713979807580458  0.7414008062231118  1.0000
  N   N5        1.0  0.265385365457611  0.19606771306222018  0.821995715591939  1.0000
  N   N6        1.0  0.324808041516249  0.24391556837444744  0.7707259575604084  1.0000
  N   N7        1.0  0.7146331637147155  0.8337195027537376  0.19416294237532833  1.0000
  N   N8        1.0  0.6571915057308004  0.7846383840007362  0.25153982599501024  1.0000
  N   N9        1.0  0.22818062154065893  0.8348881060865452  0.2192741431783247  1.0000
  N   N10       1.0  0.2780030675682708  0.7846294457921917  0.27682130248111037  1.0000
  N   N11       1.0  0.7112352089346742  0.20331624902045317  0.17141606590532615  1.0000
  N   N12       1.0  0.6513598443735304  0.2540795648916614  0.22666821786953745  1.0000
  O   O1        1.0  0.034836034372432254  0.9679557094232862  0.9588434781881717  1.0000
  O   O2        1.0  0.14704083724873837  0.7721367438128156  0.9197235847390673  1.0000
  O   O3        1.0  0.16039603415004675  0.8932129581232644  0.7848121797772906  1.0000
  O   O4        1.0  0.41000873347561406  0.6427790726241085  0.5508539067043827  1.0000
  O   O5        1.0  0.39785577265611477  0.5022469351931633  0.658179470256883  1.0000
  O   O6        1.0  0.8510165221148681  0.0856512721007476  0.8893161149080695  1.0000
  O   O7        1.0  0.9830044326123898  0.08213763819108522  0.7649013976612195  1.0000
  O   O8        1.0  0.7422623422649509  0.3388805425246346  0.500908050181003  1.0000
  O   O9        1.0  0.6158469204443265  0.40157020554148914  0.6067634967995944  1.0000
  O   O10       1.0  0.14911308528530753  0.0970940629569768  0.9116224127369749  1.0000
  O   O11       1.0  0.1601993007626845  0.0857917729735007  0.7810215988172046  1.0000
  O   O12       1.0  0.3941066611349129  0.3459655417993872  0.5315158802633417  1.0000
  O   O13       1.0  0.4645082510722959  0.3072193791629729  0.6344353969683564  1.0000
  O   O14       1.0  0.8390859541089669  0.9187040243690632  0.07716461174857141  1.0000
  O   O15       1.0  0.9645929113854949  0.7815103590165078  0.08965395571097884  1.0000
  O   O16       1.0  0.717139746004669  0.5345352891707335  0.33276963962295253  1.0000
  O   O17       1.0  0.5809229926857283  0.652547142194223  0.3718884946793891  1.0000
  O   O18       1.0  0.1368290169441265  0.9224084456580428  0.09757536057377086  1.0000
  O   O19       1.0  0.1487641338395775  0.7837312062719873  0.0952926892515791  1.0000
  O   O20       1.0  0.38460532013932164  0.5337777996775444  0.3526956428385263  1.0000
  O   O21       1.0  0.38642528327919473  0.6519938456479719  0.37930941220242437  1.0000
  O   O22       1.0  0.84010826423237  0.10426197639187511  0.06250486043819578  1.0000
  O   O23       1.0  0.9628113004186003  0.10504668515736881  0.0838965222961008  1.0000
  O   O24       1.0  0.7103042490923812  0.349601394744731  0.3287449252055763  1.0000
  O   O25       1.0  0.5686730890811944  0.3490012291329593  0.3448851710196267  1.0000
  O   O26       1.0  0.5343892752403149  0.46487351993074805  0.45903441121597405  1.0000
