data_image0
_chemical_formula_structural       Zn2H20C20N10O8
_chemical_formula_sum              "Zn2 H20 C20 N10 O8"
_cell_length_a       8.414140056473546
_cell_length_b       8.330138682931556
_cell_length_c       10.365841509032618
_cell_angle_alpha    110.64310984128896
_cell_angle_beta     102.57212130606966
_cell_angle_gamma    101.42362180287205

_space_group_name_H-M_alt    "P 1"
_space_group_IT_number       1

loop_
  _space_group_symop_operation_xyz
  'x, y, z'

loop_
  _atom_site_type_symbol
  _atom_site_label
  _atom_site_symmetry_multiplicity
  _atom_site_fract_x
  _atom_site_fract_y
  _atom_site_fract_z
  _atom_site_occupancy
  Zn  Zn1       1.0  0.4099740866296243  0.40781315077710195  0.1909072859235863  1.0000
  Zn  Zn2       1.0  0.5900174770071162  0.5921804507620435  0.8090756153543666  1.0000
  H   H1        1.0  0.8819359217415652  0.9128822991481583  0.8804998774970656  1.0000
  H   H2        1.0  0.11806671372838909  0.08714898926520928  0.11951502329000618  1.0000
  H   H3        1.0  0.6766668972226028  0.2419675519567902  0.6878929582010969  1.0000
  H   H4        1.0  0.3233327047762984  0.7580379676297111  0.31210227525492223  1.0000
  H   H5        1.0  0.3980454168430824  0.0012754263969795988  0.5826959949334167  1.0000
  H   H6        1.0  0.6019644722987749  0.9987105517863097  0.41727157366909745  1.0000
  H   H7        1.0  0.3724507910511505  0.7263337013493326  0.6349999667042495  1.0000
  H   H8        1.0  0.6275725338808085  0.27363941154689525  0.3649394385144831  1.0000
  H   H9        1.0  0.7633002015523259  0.9158075810316574  0.2760433806634381  1.0000
  H   H10       1.0  0.23670268659703447  0.08417329296902658  0.724031911715386  1.0000
  H   H11       1.0  0.9941627256661646  0.20776213681293845  0.37728677698454055  1.0000
  H   H12       1.0  0.005807997847142576  0.7922119697545253  0.6227880875096901  1.0000
  H   H13       1.0  0.6617533737433234  0.3622597714435258  0.05761233677733201  1.0000
  H   H14       1.0  0.33823913725706944  0.637774679106947  0.9423828540932462  1.0000
  H   H15       1.0  0.22069101530399143  0.4701176848384208  0.3940830573239182  1.0000
  H   H16       1.0  0.7793111713682493  0.5298604634082622  0.6059101606898167  1.0000
  H   H17       1.0  0.1238699962096064  0.5177146519663933  0.26369553363785764  1.0000
  H   H18       1.0  0.8761374653773898  0.4822973432416261  0.7363152193338036  1.0000
  H   H19       1.0  0.49675627146712037  0.1979096163679017  0.9569328280071902  1.0000
  H   H20       1.0  0.503232477402328  0.8021508839205891  0.0430367736590895  1.0000
  C   C1        1.0  0.9694394073883212  0.234104317005844  0.8656425172400617  1.0000
  C   C2        1.0  0.03054590981300007  0.7659209107070805  0.13435768210430865  1.0000
  C   C3        1.0  0.7783889015136722  0.938324734295321  0.8148449559471658  1.0000
  C   C4        1.0  0.22160802166958146  0.06169590085186629  0.1851679570046798  1.0000
  C   C5        1.0  0.6639056040286205  0.12133383249671677  0.7086621930550905  1.0000
  C   C6        1.0  0.3360926714306559  0.8786594725946486  0.29131473427842286  1.0000
  C   C7        1.0  0.8027064327168744  0.09815601391664329  0.7944527793587071  1.0000
  C   C8        1.0  0.19728629708473733  0.9018443527258879  0.20553518829692766  1.0000
  C   C9        1.0  0.5079357559024871  0.9871102361948374  0.6499161454789828  1.0000
  C   C10       1.0  0.49206939560439616  0.01288685466933969  0.3500570114856814  1.0000
  C   C11       1.0  0.491843871805216  0.8347669083857028  0.6779250066462552  1.0000
  C   C12       1.0  0.5081757364249527  0.1652118222302974  0.3220233156671526  1.0000
  C   C13       1.0  0.8676089901668291  0.8365029359187302  0.4440970729757153  1.0000
  C   C14       1.0  0.1323653870720989  0.16347916302319723  0.5559120414434489  1.0000
  C   C15       1.0  0.7259187719125249  0.6631870304536134  0.38754579309892273  1.0000
  C   C16       1.0  0.2741393808116044  0.33678186101174384  0.6124761519621414  1.0000
  C   C17       1.0  0.8665884508292689  0.9542010531295017  0.37511562984952457  1.0000
  C   C18       1.0  0.13339294443269273  0.04579028794288579  0.6249193810279793  1.0000
  C   C19       1.0  0.9963123476978307  0.11614566628576026  0.43060446788010853  1.0000
  C   C20       1.0  0.0036388591560623683  0.8838265529405687  0.5694247617923124  1.0000
  N   N1        1.0  0.09239546089425939  0.22194091645847172  0.9654469913005669  1.0000
  N   N2        1.0  0.9075938343742462  0.7781004932531699  0.03455854806573188  1.0000
  N   N3        1.0  0.18097929584858005  0.4690257226496753  0.9375252106841643  1.0000
  N   N4        1.0  0.8190143415200309  0.5310100452172433  0.062480183134290705  1.0000
  N   N5        1.0  0.022436231514063792  0.38649642220518377  0.846493180719321  1.0000
  N   N6        1.0  0.9775559471858699  0.6135312310752851  0.15350863916933827  1.0000
  N   N7        1.0  0.22210589882522666  0.3696000704245178  0.008195557660734137  1.0000
  N   N8        1.0  0.7778851413614661  0.6304385379310206  0.9918122747749506  1.0000
  N   N9        1.0  0.6265207566499954  0.8108562939960817  0.7588893299542292  1.0000
  N   N10       1.0  0.3734838243982849  0.18913945810724184  0.2410814209930621  1.0000
  O   O1        1.0  0.22982885485843238  0.4976065265408278  0.3097803200710629  1.0000
  O   O2        1.0  0.7701769755401243  0.5024041770805141  0.6902298347208884  1.0000
  O   O3        1.0  0.5622300415524393  0.27246637873084706  0.058369114818915976  1.0000
  O   O4        1.0  0.437759778976023  0.7275518276391818  0.9416054249586165  1.0000
  O   O5        1.0  0.5957630410485136  0.6382193029599675  0.28111433074343484  1.0000
  O   O6        1.0  0.40425626790709396  0.36174312877120934  0.718946989158553  1.0000
  O   O7        1.0  0.7385871813814688  0.5534438480976643  0.44401586940818305  1.0000
  O   O8        1.0  0.2614769572649679  0.44646478858550137  0.5559357667060496  1.0000
