data_image0
_chemical_formula_structural       AlH21C45Br6O6
_chemical_formula_sum              "Al1 H21 C45 Br6 O6"
_cell_length_a       3.98642029528827
_cell_length_b       23.562819724075315
_cell_length_c       23.51674536826219
_cell_angle_alpha    60.07790270738011
_cell_angle_beta     87.80531607959787
_cell_angle_gamma    86.9440337779152

_space_group_name_H-M_alt    "P 1"
_space_group_IT_number       1

loop_
  _space_group_symop_operation_xyz
  'x, y, z'

loop_
  _atom_site_type_symbol
  _atom_site_label
  _atom_site_symmetry_multiplicity
  _atom_site_fract_x
  _atom_site_fract_y
  _atom_site_fract_z
  _atom_site_occupancy
  Al  Al1       1.0  0.0342686525382732  0.4999086788821502  0.4996585255543664  1.0000
  H   H1        1.0  0.39044644174248333  0.3261792668848926  0.6742092865574919  1.0000
  H   H2        1.0  0.3735318698570324  0.2582495206150952  0.7950834276135836  1.0000
  H   H3        1.0  0.7718082855752827  0.1547641502694077  0.01857166934441069  1.0000
  H   H4        1.0  0.612394201432842  0.8090662704872644  0.2616716730360976  1.0000
  H   H5        1.0  0.25198528941940157  0.8923196124694006  0.2355636408633542  1.0000
  H   H6        1.0  0.23971009187894055  0.011752523972056403  0.1704283664722723  1.0000
  H   H7        1.0  0.48821105841737733  0.1023670676080783  0.1092731510769127  1.0000
  H   H8        1.0  0.43096991148324554  0.6742927747179834  0.5018444473391811  1.0000
  H   H9        1.0  0.41566450142484973  0.7946740467176525  0.45012614871935624  1.0000
  H   H10       1.0  0.7641369181365363  0.017147965124614504  0.3245780521956689  1.0000
  H   H11       1.0  0.731853090375161  0.26377143603574643  0.4244768575532731  1.0000
  H   H12       1.0  0.3086445619360846  0.23618508710612224  0.3768610065663864  1.0000
  H   H13       1.0  0.27739851826135725  0.1713522098093065  0.32207108734780127  1.0000
  H   H14       1.0  0.5240267557223106  0.10928498941553504  0.2881893395563253  1.0000
  H   H15       1.0  0.41130755748181247  0.5001781104793894  0.32495290492592926  1.0000
  H   H16       1.0  0.4032095504749407  0.4465867044240212  0.2575034943538911  1.0000
  H   H17       1.0  0.7976193003260051  0.3213227532926908  0.1542297891513371  1.0000
  H   H18       1.0  0.6429242415986496  0.42507867246272496  0.8101701337749744  1.0000
  H   H19       1.0  0.23055310649726124  0.37513077999797423  0.8913405479361246  1.0000
  H   H20       1.0  0.21692508224590773  0.32014206900773706  0.011642965463089157  1.0000
  H   H21       1.0  0.5144830849331541  0.2877680997006566  0.10219632751162773  1.0000
  C   C1        1.0  0.5257530108433601  0.45212652926031893  0.6002524240412157  1.0000
  C   C2        1.0  0.5602407547247736  0.44756153714389774  0.4512263537794824  1.0000
  C   C3        1.0  0.5158963287115554  0.6003097438885591  0.44677885838660086  1.0000
  C   C4        1.0  0.4447020263205277  0.3475337774178585  0.7045243509742181  1.0000
  C   C5        1.0  0.4391120025840324  0.30920548653314484  0.7724754680102279  1.0000
  C   C6        1.0  0.6454646086162656  0.23387747576482104  0.9232478157207709  1.0000
  C   C7        1.0  0.6451787552312923  0.20277752412673783  0.9914641639337206  1.0000
  C   C8        1.0  0.5522949257595684  0.7125590457270123  0.34346958013235707  1.0000
  C   C9        1.0  0.5619999155915779  0.7804437364235498  0.3142298969033843  1.0000
  C   C10       1.0  0.3720369267131856  0.9197447718735109  0.25469504442031604  1.0000
  C   C11       1.0  0.36549069468841106  0.9875961014498387  0.21759816917723632  1.0000
  C   C12       1.0  0.5156021780782895  0.4140872398813968  0.6736575297223838  1.0000
  C   C13       1.0  0.5106825484853772  0.3361057798907155  0.8119426099990791  1.0000
  C   C14       1.0  0.5054962897965538  0.29770919072493035  0.8845338485075303  1.0000
  C   C15       1.0  0.4966626040360395  0.23297126166523438  0.02511420023429877  1.0000
  C   C16       1.0  0.5004547262946843  0.1989241521895054  0.09755344373483861  1.0000
  C   C17       1.0  0.4972392206055361  0.1303695392022846  0.1345821505205933  1.0000
  C   C18       1.0  0.46490979309467684  0.7045345076150796  0.44886405000541885  1.0000
  C   C19       1.0  0.46185244235390843  0.7722793204428128  0.4197837877538221  1.0000
  C   C20       1.0  0.6441203579164777  0.9226419837056525  0.34170932473445953  1.0000
  C   C21       1.0  0.6440275054208513  0.9907160766060275  0.30445387112231265  1.0000
  C   C22       1.0  0.6520734052895136  0.345775671802329  0.44014615686392494  1.0000
  C   C23       1.0  0.6568957835399232  0.3155311287970264  0.4021470610387823  1.0000
  C   C24       1.0  0.42119765916288543  0.2544355376818856  0.3281101492950356  1.0000
  C   C25       1.0  0.4054025965472975  0.21753608935490126  0.297261026261495  1.0000
  C   C26       1.0  0.5079583686070492  0.6734678466259255  0.4113555575451571  1.0000
  C   C27       1.0  0.5148612632338612  0.8116773830945835  0.35181613166521686  1.0000
  C   C28       1.0  0.5137262771902443  0.8841553718109126  0.3177988726424772  1.0000
  C   C29       1.0  0.5050039509695593  0.02488010362962  0.24166327483137456  1.0000
  C   C30       1.0  0.5056945401119323  0.09720273711722172  0.2033087899949777  1.0000
  C   C31       1.0  0.5172671381981007  0.13426260576262192  0.2348072917947093  1.0000
  C   C32       1.0  0.4818957769293278  0.4482495893328179  0.34634364988274063  1.0000
  C   C33       1.0  0.4808535631929161  0.41823016849538425  0.30833450071875024  1.0000
  C   C34       1.0  0.6909201377353041  0.3393450292281913  0.23373117649243366  1.0000
  C   C35       1.0  0.682499839443672  0.30221895240512  0.20276919068653854  1.0000
  C   C36       1.0  0.5802342779417414  0.44128310104496665  0.7128827341545688  1.0000
  C   C37       1.0  0.5810943139836625  0.4029118866569662  0.7810398273559683  1.0000
  C   C38       1.0  0.354431573897493  0.32687973143399063  0.9194841293522629  1.0000
  C   C39       1.0  0.34772357276181515  0.2959113339255381  0.9875214267768797  1.0000
  C   C40       1.0  0.5666432731396186  0.41252380630493946  0.4127898325576425  1.0000
  C   C41       1.0  0.5707810738399532  0.3513735672489703  0.33556012321692213  1.0000
  C   C42       1.0  0.564098011979752  0.31651819304219236  0.2979160083851653  1.0000
  C   C43       1.0  0.5373890281445172  0.24077243245243096  0.23355172642152414  1.0000
  C   C44       1.0  0.5217633381416604  0.20279937134100118  0.1992807904433391  1.0000
  C   C45       1.0  0.5119226459008602  0.23445789024339808  0.1305940522729969  1.0000
  Br  Br1       1.0  0.7804486438251031  0.2950065714031993  0.52952006646386  1.0000
  Br  Br2       1.0  0.6871909443273412  0.5309425918794588  0.6739365824809624  1.0000
  Br  Br3       1.0  0.6244010470124195  0.6741616608115921  0.2892679382021938  1.0000
  Br  Br4       1.0  0.8935028402828066  0.422247562537784  0.1834608811044375  1.0000
  Br  Br5       1.0  0.8601542378638741  0.18420413988836512  0.8870876970133282  1.0000
  Br  Br6       1.0  0.844406467940445  0.8870449506779607  0.4260176952356076  1.0000
  O   O1        1.0  0.28998873859582375  0.5715608431242674  0.4350592676352178  1.0000
  O   O2        1.0  0.2849344498740508  0.49303160746474384  0.570878019604052  1.0000
  O   O3        1.0  0.3218197728425808  0.4361085086001565  0.4926029638371646  1.0000
  O   O4        1.0  0.7488724098235482  0.5719727024930351  0.4885866073932448  1.0000
  O   O5        1.0  0.7895059123050957  0.4880921074659951  0.4379142015446719  1.0000
  O   O6        1.0  0.773283628006716  0.4385876566664989  0.5726587013955253  1.0000
