data_image0
_chemical_formula_structural       Cu2H32C16N4O8
_chemical_formula_sum              "Cu2 H32 C16 N4 O8"
_cell_length_a       7.688167186530734
_cell_length_b       8.780830931142514
_cell_length_c       9.033288649943476
_cell_angle_alpha    100.2261243161844
_cell_angle_beta     91.92173941763554
_cell_angle_gamma    88.30951097739371

_space_group_name_H-M_alt    "P 1"
_space_group_IT_number       1

loop_
  _space_group_symop_operation_xyz
  'x, y, z'

loop_
  _atom_site_type_symbol
  _atom_site_label
  _atom_site_symmetry_multiplicity
  _atom_site_fract_x
  _atom_site_fract_y
  _atom_site_fract_z
  _atom_site_occupancy
  Cu  Cu1       1.0  0.14751103098488724  0.2719624244364311  0.1519162584333742  1.0000
  Cu  Cu2       1.0  0.8525032186205264  0.7280680114013195  0.8480795921645239  1.0000
  H   H1        1.0  0.30599366323604466  0.5760342245675716  0.3274568307660246  1.0000
  H   H2        1.0  0.6940155287575607  0.42395327742708844  0.6726060116760593  1.0000
  H   H3        1.0  0.3385547929731699  0.5634853777552211  0.13313071945205485  1.0000
  H   H4        1.0  0.6614762580355417  0.4365382290430163  0.8669382806903627  1.0000
  H   H5        1.0  0.524375682163331  0.5689870820925055  0.25861681219378596  1.0000
  H   H6        1.0  0.475644642622676  0.4310047301398967  0.7414607591514226  1.0000
  H   H7        1.0  0.46647158665628286  0.3280782317625963  0.9884110145311028  1.0000
  H   H8        1.0  0.5335436001695157  0.6719443745132736  0.011611340268658024  1.0000
  H   H9        1.0  0.5188890013070803  0.1659609861392894  0.0758313092216838  1.0000
  H   H10       1.0  0.48112920292197703  0.8340532530784728  0.9241777058713296  1.0000
  H   H11       1.0  0.6472711812217895  0.33475435139380505  0.12189669598296861  1.0000
  H   H12       1.0  0.35273950874633186  0.6652592596892007  0.8781305604265981  1.0000
  H   H13       1.0  0.48620289748376416  0.1779663969948331  0.3222139053976107  1.0000
  H   H14       1.0  0.5137821183560403  0.821995835693528  0.6777701247791369  1.0000
  H   H15       1.0  0.5505967548447755  0.36440522473395737  0.4131846596996169  1.0000
  H   H16       1.0  0.449405299154776  0.6355381943553341  0.586835141374408  1.0000
  H   H17       1.0  0.23844394377319125  0.4315044348185283  0.4823808271949588  1.0000
  H   H18       1.0  0.7615643452828563  0.5684504209921502  0.5176523117800755  1.0000
  H   H19       1.0  0.315526054912425  0.2698888608604193  0.5595610652367994  1.0000
  H   H20       1.0  0.6844595880235358  0.7300260386377744  0.44042867287178916  1.0000
  H   H21       1.0  0.16733623108389387  0.03326034006715871  0.4879255992460613  1.0000
  H   H22       1.0  0.8326268692031958  0.9666803751903927  0.512013618583012  1.0000
  H   H23       1.0  0.2822475712682148  0.010432480378874205  0.31448244341841297  1.0000
  H   H24       1.0  0.7177205033910282  0.9895392270240966  0.68545766739976  1.0000
  H   H25       1.0  0.053717927410247106  0.9932421078288769  0.30902026834805696  1.0000
  H   H26       1.0  0.9462522357467404  0.006747968683278303  0.6909174012909034  1.0000
  H   H27       1.0  0.8676763155760054  0.2047218245327471  0.3760797383430514  1.0000
  H   H28       1.0  0.13231116562859313  0.7952735337522656  0.6238798747129906  1.0000
  H   H29       1.0  0.9451907479855846  0.39605482898802086  0.4118722185063888  1.0000
  H   H30       1.0  0.054813967960512876  0.6039333071860113  0.5881272637597377  1.0000
  H   H31       1.0  0.9705390138879862  0.27976461572037453  0.556841912677676  1.0000
  H   H32       1.0  0.0294397356805689  0.7201850240838683  0.443128591121834  1.0000
  C   C1        1.0  0.04532856642116911  0.4515523285536888  0.9290994288486161  1.0000
  C   C2        1.0  0.9546658660891864  0.5485383869184872  0.0709414014611838  1.0000
  C   C3        1.0  0.08953871836246209  0.9567050595162743  0.9822504087846937  1.0000
  C   C4        1.0  0.9104782818537912  0.04334184791635211  0.017679571814596777  1.0000
  C   C5        1.0  0.3908119805935612  0.5263150681972917  0.23534119361912786  1.0000
  C   C6        1.0  0.6092068337901252  0.4736870501573805  0.7647224250043081  1.0000
  C   C7        1.0  0.5148113438796073  0.29253748792119444  0.092653546932091  1.0000
  C   C8        1.0  0.48519839728476905  0.7074784156770594  0.9073684754764813  1.0000
  C   C9        1.0  0.440968586405475  0.2988875563011463  0.3536020167343139  1.0000
  C   C10       1.0  0.5590268017563104  0.7010745262090409  0.6464081629682639  1.0000
  C   C11       1.0  0.28386044757753126  0.310579212185104  0.4527627927972305  1.0000
  C   C12       1.0  0.7161335640673342  0.6893736310740409  0.5472424816925069  1.0000
  C   C13       1.0  0.1627747877528662  0.05505709759039953  0.371216148441924  1.0000
  C   C14       1.0  0.8371979940188581  0.9449133537252198  0.6287329364109625  1.0000
  C   C15       1.0  0.9699704759359447  0.2787247783353592  0.434549994135061  1.0000
  C   C16       1.0  0.0300219976936447  0.7212532320466922  0.5654270991180823  1.0000
  N   N1        1.0  0.3929325238087031  0.3556806127777108  0.21261799500436496  1.0000
  N   N2        1.0  0.6070763758692266  0.644319209055638  0.7874091361636247  1.0000
  N   N3        1.0  0.13887424228698106  0.22202421112244514  0.3703367643270283  1.0000
  N   N4        1.0  0.8611179689964246  0.7779527028186949  0.6296445675508408  1.0000
  O   O1        1.0  0.15138515584456505  0.34252968827100017  0.9523362498956232  1.0000
  O   O2        1.0  0.8486439093596231  0.6575838359333447  0.04770722209805461  1.0000
  O   O3        1.0  0.9891888233251078  0.5141646990791813  0.1979811764335793  1.0000
  O   O4        1.0  0.010788221771413507  0.48591521250394026  0.8020600874352652  1.0000
  O   O5        1.0  0.0840920752636833  0.8226022704827332  0.8988605237903968  1.0000
  O   O6        1.0  0.9159346812280447  0.17743970793659972  0.101079280499178  1.0000
  O   O7        1.0  0.22671965529767135  0.021425609586820802  0.03556313509536581  1.0000
  O   O8        1.0  0.7732898515342723  0.9786308612694659  0.9643667840750041  1.0000
