data_image0
_chemical_formula_structural       CuH16C14N4Cl2O2
_chemical_formula_sum              "Cu1 H16 C14 N4 Cl2 O2"
_cell_length_a       7.305953158117307
_cell_length_b       7.773043665271435
_cell_length_c       8.326975064037216
_cell_angle_alpha    100.30483083009817
_cell_angle_beta     111.85395672192088
_cell_angle_gamma    106.5520183024813

_space_group_name_H-M_alt    "P 1"
_space_group_IT_number       1

loop_
  _space_group_symop_operation_xyz
  'x, y, z'

loop_
  _atom_site_type_symbol
  _atom_site_label
  _atom_site_symmetry_multiplicity
  _atom_site_fract_x
  _atom_site_fract_y
  _atom_site_fract_z
  _atom_site_occupancy
  Cu  Cu1       1.0  0.4999998738020464  5.948747414994918e-07  1.4483961047342136e-07  1.0000
  H   H1        1.0  0.765037239661204  0.4085713743471401  0.15151365303468356  1.0000
  H   H2        1.0  0.2349594035202429  0.5914311048108658  0.8484807195313661  1.0000
  H   H3        1.0  0.7415812909589548  0.702013386167252  0.3112374333891238  1.0000
  H   H4        1.0  0.25840848916202924  0.29799040741142596  0.6887513687678392  1.0000
  H   H5        1.0  0.11766564709451902  0.3477745068078732  0.23033543472904225  1.0000
  H   H6        1.0  0.8823349589171626  0.6522196695475203  0.769668477390972  1.0000
  H   H7        1.0  0.16956520680934517  0.07331595965420229  0.07709505596314865  1.0000
  H   H8        1.0  0.8304433467694919  0.9266796409243694  0.9229092025632678  1.0000
  H   H9        1.0  0.5653710896911902  0.8393373245529149  0.45646064559765864  1.0000
  H   H10       1.0  0.4346324734069923  0.16065686998238957  0.5435442074624744  1.0000
  H   H11       1.0  0.36024715246084327  0.6888981981448339  0.49118637754094135  1.0000
  H   H12       1.0  0.6397524542730861  0.3110972911850921  0.5088114218203824  1.0000
  H   H13       1.0  0.031882584809629674  0.9052907731787627  0.2592314624342079  1.0000
  H   H14       1.0  0.9681177214800553  0.09471321635042067  0.7407691178175567  1.0000
  H   H15       1.0  0.15045424307896132  0.8492416433876286  0.4556439098899715  1.0000
  H   H16       1.0  0.8495356694836929  0.1507552366979326  0.5443534386967314  1.0000
  C   C1        1.0  0.6267883892577968  0.4034781919507822  0.1746138800035765  1.0000
  C   C2        1.0  0.3732106561592372  0.5965229266137227  0.8253834394464828  1.0000
  C   C3        1.0  0.6115189651921182  0.5648256214729699  0.262592824254284  1.0000
  C   C4        1.0  0.38847559420489824  0.4351754320157184  0.7374006595557672  1.0000
  C   C5        1.0  0.4291811614034984  0.5503582423290255  0.28731112638718764  1.0000
  C   C6        1.0  0.570815245378192  0.4496400717927429  0.712687310250757  1.0000
  C   C7        1.0  0.2652096148079436  0.3709112479155293  0.21745739773916023  1.0000
  C   C8        1.0  0.7347915460546445  0.6290843072132687  0.7825445084369631  1.0000
  C   C9        1.0  0.29099501936042316  0.21600565366428975  0.13091746744672855  1.0000
  C   C10       1.0  0.7090091237838008  0.7839899385473927  0.8690865917844303  1.0000
  C   C11       1.0  0.4092680718530274  0.7200827369001529  0.3863218850795602  1.0000
  C   C12       1.0  0.5907312920151638  0.27991559540152616  0.613677492498496  1.0000
  C   C13       1.0  0.2524419783187284  0.7870421548930792  0.25895353174648506  1.0000
  C   C14       1.0  0.7475610421917125  0.21296469578776817  0.7410495676621236  1.0000
  N   N1        1.0  0.12986159336445266  0.843445872169262  0.3256684297210126  1.0000
  N   N2        1.0  0.8701396114224309  0.15655672877348786  0.6743334148297818  1.0000
  N   N3        1.0  0.4691644491483656  0.2311784137783945  0.11108997316282647  1.0000
  N   N4        1.0  0.5308394007398431  0.7688199835990941  0.888913240055238  1.0000
  Cl  Cl1       1.0  0.1840754741021441  0.9229074830709434  0.7357087436487216  1.0000
  Cl  Cl2       1.0  0.8159284384395133  0.07710498703146128  0.2642931342037612  1.0000
  O   O1        1.0  0.24373346392342643  0.7918713966760148  0.10769904131761614  1.0000
  O   O2        1.0  0.7562707670693809  0.20813828716356395  0.8923048946628779  1.0000
