data_image0
_chemical_formula_structural       Al2H14C24N2O10F2
_chemical_formula_sum              "Al2 H14 C24 N2 O10 F2"
_cell_length_a       6.649644275082786
_cell_length_b       11.152517895952517
_cell_length_c       17.844086628763797
_cell_angle_alpha    83.73899036526308
_cell_angle_beta     78.78647687094013
_cell_angle_gamma    72.76865331347096

_space_group_name_H-M_alt    "P 1"
_space_group_IT_number       1

loop_
  _space_group_symop_operation_xyz
  'x, y, z'

loop_
  _atom_site_type_symbol
  _atom_site_label
  _atom_site_symmetry_multiplicity
  _atom_site_fract_x
  _atom_site_fract_y
  _atom_site_fract_z
  _atom_site_occupancy
  Al  Al1       1.0  0.49376417695784613  0.5129817382928081  0.5001945653156383  1.0000
  Al  Al2       1.0  0.9961513467033426  0.5102037210979375  0.4992820920691585  1.0000
  H   H1        1.0  0.1954069739183736  0.6592263862622048  0.4506313745661926  1.0000
  H   H2        1.0  0.797974938579081  0.3589490896849626  0.5389007197622391  1.0000
  H   H3        1.0  0.7581063369659161  0.13572364896304387  0.4633255723731864  1.0000
  H   H4        1.0  0.23641092931811863  0.8862241604753651  0.537761967336202  1.0000
  H   H5        1.0  0.5360455163656964  0.5616025592337125  0.2667386986810314  1.0000
  H   H6        1.0  0.600703836622493  0.5558330629662863  0.12420215326334733  1.0000
  H   H7        1.0  0.279522951665612  0.4284493576201173  0.1258078163324043  1.0000
  H   H8        1.0  0.785463026385379  0.4350741898651833  0.8788271600033042  1.0000
  H   H9        1.0  0.3902101527523098  0.5781051319318068  0.728529580189651  1.0000
  H   H10       1.0  0.329781609668707  0.5744754337606822  0.8713160706047631  1.0000
  H   H11       1.0  0.23114471095745154  0.4504412285870032  0.3289165232133016  1.0000
  H   H12       1.0  0.40224879165017297  0.4087324369340238  0.24305137050967565  1.0000
  H   H13       1.0  0.8186749294315802  0.44665245453537494  0.6738472531393569  1.0000
  H   H14       1.0  0.6795450536443254  0.4147624036349456  0.7642019879299795  1.0000
  C   C1        1.0  0.813583760646594  0.5085907708201705  0.3605925867310162  1.0000
  C   C2        1.0  0.6375949378989814  0.7373686337282382  0.5055688461720749  1.0000
  C   C3        1.0  0.1792435170833286  0.5089926252474442  0.6386190260236049  1.0000
  C   C4        1.0  0.3550998922848123  0.284685681627117  0.4942153883909485  1.0000
  C   C5        1.0  0.5695901530255013  0.8777395742058616  0.5032622312833155  1.0000
  C   C6        1.0  0.42477355894205704  0.14434098012067414  0.49768868298819763  1.0000
  C   C7        1.0  0.7121791686748083  0.9514808675053247  0.4826184100064594  1.0000
  C   C8        1.0  0.282221222075158  0.07060297987033691  0.5186614723664462  1.0000
  C   C9        1.0  0.6429413269035393  0.08161990707583303  0.4798344854987704  1.0000
  C   C10       1.0  0.3514361677125492  0.940501516114921  0.521414069046095  1.0000
  C   C11       1.0  0.8668357224465312  0.4992886855676418  0.2769092380560423  1.0000
  C   C12       1.0  0.6981516318701823  0.530785921594628  0.2348864225976328  1.0000
  C   C13       1.0  0.732854467571073  0.527428686464667  0.1560855952153801  1.0000
  C   C14       1.0  0.9461535372498344  0.49068524747673353  0.1160706603075639  1.0000
  C   C15       1.0  0.11593903093856979  0.4572419551501028  0.1569009907443899  1.0000
  C   C16       1.0  0.08218552356907335  0.4612937105843926  0.23731662595187691  1.0000
  C   C17       1.0  0.9866345946208738  0.4918962055064072  0.03505659705390229  1.0000
  C   C18       1.0  0.017948294780509924  0.49633754466843527  0.9652248340308561  1.0000
  C   C19       1.0  0.054353512952701376  0.5017021547623701  0.8841480510741917  1.0000
  C   C20       1.0  0.9184231163946706  0.466606152404765  0.8457266762037675  1.0000
  C   C21       1.0  0.9481727700868701  0.4696766379429962  0.7649396302192456  1.0000
  C   C22       1.0  0.12658198590747108  0.5085644690828914  0.7225700141341207  1.0000
  C   C23       1.0  0.2593848235957948  0.5458192065791181  0.7625645657100577  1.0000
  C   C24       1.0  0.2273361439947478  0.5434908086521943  0.8414953454146854  1.0000
  N   N1        1.0  0.253508716100775  0.42455239527240013  0.2743776254740595  1.0000
  N   N2        1.0  0.8107128539428812  0.4329132212494572  0.7314697679160176  1.0000
  O   O1        1.0  0.6272437503074356  0.5045485111917503  0.3940062066310759  1.0000
  O   O2        1.0  0.8288637554705288  0.681006211844178  0.5135566769597304  1.0000
  O   O3        1.0  0.0419421567568462  0.4906714736520784  0.6025037230765804  1.0000
  O   O4        1.0  0.49320933008310397  0.33911661528941295  0.5013682006564437  1.0000
  O   O5        1.0  0.3592486737519918  0.5246564628293059  0.6056293541899791  1.0000
  O   O6        1.0  0.16472716180699354  0.3390325232053614  0.4843043842348179  1.0000
  O   O7        1.0  0.9573077625544284  0.5226084480988504  0.39508792694098827  1.0000
  O   O8        1.0  0.4962753586047694  0.684998874787354  0.4992375810931833  1.0000
  O   O9        1.0  0.23287257294033037  0.5704116292794764  0.4661753029683098  1.0000
  O   O10       1.0  0.7580111586383821  0.45013301540236483  0.5327373657263621  1.0000
  F   F1        1.0  0.925650285261291  0.8968328510306094  0.4625078862363097  1.0000
  F   F2        1.0  0.0688124054929347  0.1251324443796022  0.5390595893856656  1.0000
