data_image0
_chemical_formula_structural       Cu4H52C40S4I4O4
_chemical_formula_sum              "Cu4 H52 C40 S4 I4 O4"
_cell_length_a       11.721050334094567
_cell_length_b       12.0111
_cell_length_c       11.69098753325408
_cell_angle_alpha    108.19932088586086
_cell_angle_beta     107.76231698704984
_cell_angle_gamma    113.68455059543422

_space_group_name_H-M_alt    "P 1"
_space_group_IT_number       1

loop_
  _space_group_symop_operation_xyz
  'x, y, z'

loop_
  _atom_site_type_symbol
  _atom_site_label
  _atom_site_symmetry_multiplicity
  _atom_site_fract_x
  _atom_site_fract_y
  _atom_site_fract_z
  _atom_site_occupancy
  Cu  Cu1       1.0  0.4424781701645838  0.3356399983446251  0.9243377110723613  1.0000
  Cu  Cu2       1.0  0.41047553605112347  0.5207292084195246  0.07451326302227561  1.0000
  Cu  Cu3       1.0  0.6643204773685059  0.588369403331214  0.11173510527295605  1.0000
  Cu  Cu4       1.0  0.4778468547842041  0.5515704554536001  0.8885056881891061  1.0000
  H   H1        1.0  0.9724968372212288  0.829585809741282  0.7767290763230648  1.0000
  H   H2        1.0  0.0524761997707657  0.19355767661333087  0.2192447056948552  1.0000
  H   H3        1.0  0.17073647833692723  0.9444584979788928  0.143471369906365  1.0000
  H   H4        1.0  0.8015006135072013  0.021549876453200018  0.8613604690118419  1.0000
  H   H5        1.0  0.8808386719137644  0.6050489117574571  0.779570237727853  1.0000
  H   H6        1.0  0.818288473718262  0.09640562103491136  0.21407408224913385  1.0000
  H   H7        1.0  0.4002646043829899  0.17825102068307794  0.2790821047245303  1.0000
  H   H8        1.0  0.8961950797385114  0.1155386969713135  0.726190418926059  1.0000
  H   H9        1.0  0.05083809291485159  0.570166896463526  0.9311644418341558  1.0000
  H   H10       1.0  0.627163705034647  0.11388299117498947  0.06704603138759778  1.0000
  H   H11       1.0  0.4409019268131119  0.3700482261519228  0.48443790898634387  1.0000
  H   H12       1.0  0.8827280410809237  0.9551591524520334  0.5178640323212846  1.0000
  H   H13       1.0  0.31016548524277004  0.7570475942456127  0.07149773723623552  1.0000
  H   H14       1.0  0.674558493057191  0.23209479378317613  0.9315216990962086  1.0000
  H   H15       1.0  0.2547119878881573  0.323345513986382  0.5546218206736241  1.0000
  H   H16       1.0  0.7680504830541183  0.7021969828955648  0.4436039606663372  1.0000
  H   H17       1.0  0.40155450183158353  0.9794646143169318  0.06547562970750684  1.0000
  H   H18       1.0  0.9097723937134391  0.3320413406539586  0.9398602602402023  1.0000
  H   H19       1.0  0.0279293278869517  0.08884317624725917  0.4215848332328207  1.0000
  H   H20       1.0  0.669274689286965  0.6079505815861805  0.5757155752789274  1.0000
  H   H21       1.0  0.3004614892197495  0.1450879830742551  0.03441627365452863  1.0000
  H   H22       1.0  0.1136963586553603  0.26659201890785766  0.9690249215503356  1.0000
  H   H23       1.0  0.8532531393461582  0.8777924414728775  0.15249151705592823  1.0000
  H   H24       1.0  0.7335001448374001  0.7005122783383725  0.8447929212372857  1.0000
  H   H25       1.0  0.14935746373485165  0.0617129833198363  0.8688714005124824  1.0000
  H   H26       1.0  0.2013646530608426  0.2901112380642559  0.1364168370373164  1.0000
  H   H27       1.0  0.9348848105692369  0.7979697419432983  0.08606459717132971  1.0000
  H   H28       1.0  0.719725816339526  0.8454652101571438  0.9173570427777306  1.0000
  H   H29       1.0  0.18654420620570275  0.8898279087512222  0.6497298720174101  1.0000
  H   H30       1.0  0.2399805762308631  0.5407132438118224  0.3517545888964904  1.0000
  H   H31       1.0  0.11549570452617536  0.761364924843946  0.300803466590942  1.0000
  H   H32       1.0  0.46610745647562635  0.8102250710871317  0.7060344747105846  1.0000
  H   H33       1.0  0.16415072295134067  0.029457658622312814  0.6525133133973141  1.0000
  H   H34       1.0  0.3816839521310412  0.5196126760727465  0.34773665555235306  1.0000
  H   H35       1.0  0.9660026511663562  0.6244862422597564  0.1325809382804906  1.0000
  H   H36       1.0  0.4915962875816009  0.8283955947623627  0.871407240357236  1.0000
  H   H37       1.0  0.2444927479302308  0.9608896263348187  0.48772694050246207  1.0000
  H   H38       1.0  0.47560533747139294  0.7628775063551245  0.5127548692016505  1.0000
  H   H39       1.0  0.036186151538224486  0.5301792842353308  0.28153502770111066  1.0000
  H   H40       1.0  0.244678095454546  0.7511147144505514  0.7178075441053409  1.0000
  H   H41       1.0  0.3778924841158045  0.136894742340921  0.6251716053005438  1.0000
  H   H42       1.0  0.5165408076940139  0.7554858984822701  0.3764416948230576  1.0000
  H   H43       1.0  0.8576128511441042  0.48744020880739924  0.23215834449219133  1.0000
  H   H44       1.0  0.24567356039251115  0.6218183647847298  0.7621693925325773  1.0000
  H   H45       1.0  0.5741393666775777  0.1343973421264763  0.6093565334024403  1.0000
  H   H46       1.0  0.5271338317100601  0.9613999100270334  0.3896444185885811  1.0000
  H   H47       1.0  0.8577065831473263  0.47264351993759857  0.43048219828637  1.0000
  H   H48       1.0  0.02929670529569962  0.4266645153237576  0.5573167680110275  1.0000
  H   H49       1.0  0.598955392234565  0.002269116107761688  0.6264547588473447  1.0000
  H   H50       1.0  0.37300455460434273  0.9664540588781138  0.3716488251244172  1.0000
  H   H51       1.0  0.9971093218586093  0.6220304591915778  0.5958621554218625  1.0000
  H   H52       1.0  0.01997321434451744  0.40346087273041314  0.39586431753706103  1.0000
  C   C1        1.0  0.04641209888909267  0.8130117165942323  0.8405854963306612  1.0000
  C   C2        1.0  0.9697180523070799  0.2026308779203917  0.15693331928414989  1.0000
  C   C3        1.0  0.19002713147762756  0.027520550948658216  0.23434114761353436  1.0000
  C   C4        1.0  0.7932897446347269  0.9515242381700091  0.7690731725484027  1.0000
  C   C5        1.0  0.9950991583416953  0.687073134350051  0.8427963601678458  1.0000
  C   C6        1.0  0.837737200410757  0.14765789252714964  0.1534351303991102  1.0000
  C   C7        1.0  0.3186811742333617  0.1591824534575963  0.3104153583737316  1.0000
  C   C8        1.0  0.8470081062961158  0.004232517448265663  0.693232979547119  1.0000
  C   C9        1.0  0.08967209199458626  0.6670598205811583  0.9267815162648673  1.0000
  C   C10       1.0  0.7310993669011128  0.15755287941938442  0.07185444245318015  1.0000
  C   C11       1.0  0.34187353712776763  0.2662243539995544  0.42528534987595623  1.0000
  C   C12       1.0  0.8391725824693667  0.9149378842787074  0.5766454796046007  1.0000
  C   C13       1.0  0.23602252449855846  0.7725013271213682  0.006113488526921222  1.0000
  C   C14       1.0  0.7576059366675308  0.22428709965500096  0.995320752068551  1.0000
  C   C15       1.0  0.23700503525887476  0.24011000064271568  0.4650474257151416  1.0000
  C   C16       1.0  0.7744416806234186  0.7722551782625617  0.5345051224624912  1.0000
  C   C17       1.0  0.28714711553637784  0.8975037047551098  0.002507524258199114  1.0000
  C   C18       1.0  0.8897280474460559  0.2801149447823407  0.9999343322768086  1.0000
  C   C19       1.0  0.10937132122335667  0.10817708942469294  0.3898854245141408  1.0000
  C   C20       1.0  0.7191363898079858  0.7195203327445158  0.6091739030854342  1.0000
  C   C21       1.0  0.1921416146041467  0.9202171813731396  0.9215219548213156  1.0000
  C   C22       1.0  0.9965163871667998  0.268003818595993  0.07939666375355608  1.0000
  C   C23       1.0  0.08361320513642306  0.0010044410945013382  0.27208504264886807  1.0000
  C   C24       1.0  0.7307911919008419  0.8094000634405846  0.7292245240577343  1.0000
  C   C25       1.0  0.24073453055029154  0.05893039710750966  0.926883106233582  1.0000
  C   C26       1.0  0.13431994522829166  0.31594877491209433  0.0759430182165488  1.0000
  C   C27       1.0  0.9421365007700828  0.8626365706192872  0.1817015815275695  1.0000
  C   C28       1.0  0.6862418781063226  0.7581593463932632  0.8195814234295894  1.0000
  C   C29       1.0  0.24272755160870943  0.000662891748334047  0.6776040170917171  1.0000
  C   C30       1.0  0.32418109014872704  0.5694848236778753  0.32315501811074654  1.0000
  C   C31       1.0  0.0007764384733092768  0.6787824683547752  0.2435134949031692  1.0000
  C   C32       1.0  0.4357960378914357  0.7532562011614063  0.7600931014389688  1.0000
  C   C33       1.0  0.3232688727252152  0.025933632435567115  0.59949424929529  1.0000
  C   C34       1.0  0.4284196354852129  0.7267895698425946  0.40086302931659656  1.0000
  C   C35       1.0  0.9719118893422733  0.5746035616719496  0.29453686557872777  1.0000
  C   C36       1.0  0.275611565610788  0.6743717790045167  0.7038503626001998  1.0000
  C   C37       1.0  0.5179498056017664  0.021637286729230654  0.5782389577751914  1.0000
  C   C38       1.0  0.44317078243783936  0.9365901550621134  0.42019334073621917  1.0000
  C   C39       1.0  0.9740920992628902  0.5550528233681788  0.49219651863477765  1.0000
  C   C40       1.0  0.055105674820325135  0.48219774023355194  0.4998390038168878  1.0000
  S   S1        1.0  0.36687959922430474  0.10844775155185717  0.8634910456615116  1.0000
  S   S2        1.0  0.2413493170228804  0.5031513632045019  0.1370588462871041  1.0000
  S   S3        1.0  0.8998145924616098  0.7583540523692636  0.2653109360285129  1.0000
  S   S4        1.0  0.4938762684128619  0.6319607146819591  0.737735856132204  1.0000
  I   I1        1.0  0.6517414475683408  0.45120005458872453  0.8706859286217818  1.0000
  I   I2        1.0  0.5814695213386969  0.7790124816172721  0.130775858592621  1.0000
  I   I3        1.0  0.5475226818258534  0.424167179952427  0.20491002040212442  1.0000
  I   I4        1.0  0.21332583104885558  0.3414348691569059  0.7930893922494349  1.0000
  O   O1        1.0  0.4254396924232679  0.989278791692108  0.6350859256284521  1.0000
  O   O2        1.0  0.352815465299784  0.7889144212946846  0.36293732675703433  1.0000
  O   O3        1.0  0.01026670557766348  0.64573659070183  0.43642155873788363  1.0000
  O   O4        1.0  0.2063769639487845  0.5733060787119796  0.5611042713663252  1.0000
