data_image0
_chemical_formula_structural       Zr6H52C108O32
_chemical_formula_sum              "Zr6 H52 C108 O32"
_cell_length_a       19.0192578550489
_cell_length_b       19.019252493798557
_cell_length_c       19.01924852414037
_cell_angle_alpha    60.00000133188601
_cell_angle_beta     59.9999862127877
_cell_angle_gamma    60.00000410669526

_space_group_name_H-M_alt    "P 1"
_space_group_IT_number       1

loop_
  _space_group_symop_operation_xyz
  'x, y, z'

loop_
  _atom_site_type_symbol
  _atom_site_label
  _atom_site_symmetry_multiplicity
  _atom_site_fract_x
  _atom_site_fract_y
  _atom_site_fract_z
  _atom_site_occupancy
  Zr  Zr1       1.0  0.9070405430257082  0.40703525310390626  0.5929654002495041  1.0000
  Zr  Zr2       1.0  0.09295850250946121  0.5929647256994386  0.4070448473278391  1.0000
  Zr  Zr3       1.0  0.09295937074065842  0.4070435145340807  0.5929613382461837  1.0000
  Zr  Zr4       1.0  0.9070424220999346  0.5929592115725413  0.4070389070707491  1.0000
  Zr  Zr5       1.0  0.9070404564456784  0.5929636240161289  0.5929615980375189  1.0000
  Zr  Zr6       1.0  0.0929574118971815  0.40703938385638583  0.40704229001239156  1.0000
  H   H1        1.0  0.9268174054261634  0.42681743125893223  0.7195480552514579  1.0000
  H   H2        1.0  0.9268184024287863  0.71954803914128  0.4268170759183079  1.0000
  H   H3        1.0  0.2195489621594789  0.4268171324422666  0.4268172308888864  1.0000
  H   H4        1.0  0.9268185904572874  0.42681745655444536  0.4268167868530737  1.0000
  H   H5        1.0  0.3207992456701945  0.3878431419499933  0.17805231623751175  1.0000
  H   H6        1.0  0.43499006558860037  0.32081444010304944  0.0651010061756807  1.0000
  H   H7        1.0  0.3207983790582461  0.6133064642983469  0.1780528765284117  1.0000
  H   H8        1.0  0.43498999350472195  0.6790955643787769  0.06510024643400666  1.0000
  H   H9        1.0  0.6780545965581625  0.6133050981832612  0.8207983391967628  1.0000
  H   H10       1.0  0.5651022719737571  0.6790948067385825  0.9349897508776832  1.0000
  H   H11       1.0  0.6780524049559559  0.38784397544947796  0.8207973496060031  1.0000
  H   H12       1.0  0.5651012556643523  0.3208146972005182  0.9349886524249341  1.0000
  H   H13       1.0  0.8878442602931715  0.8207971315385478  0.6133071394997031  1.0000
  H   H14       1.0  0.8208160332149675  0.934988435385918  0.6790961434135666  1.0000
  H   H15       1.0  0.11330679027621948  0.8207975292589608  0.38784402132207413  1.0000
  H   H16       1.0  0.1790955293536175  0.9349898692241113  0.3208136957281837  1.0000
  H   H17       1.0  0.11330492915373475  0.17805426870411623  0.38784133414240773  1.0000
  H   H18       1.0  0.17909487554778997  0.0651021727984116  0.3208124432595767  1.0000
  H   H19       1.0  0.8878432729141109  0.17805264159598277  0.6133060958643524  1.0000
  H   H20       1.0  0.8208150758481096  0.06510043539923774  0.6790954980670775  1.0000
  H   H21       1.0  0.32079872490071887  0.1780521860942628  0.6133055483452451  1.0000
  H   H22       1.0  0.4349886679662873  0.06509972935416633  0.6790955137364777  1.0000
  H   H23       1.0  0.32079937983397144  0.1780538092804705  0.3878415279283729  1.0000
  H   H24       1.0  0.4349906190070101  0.06510154800320586  0.32081271697828123  1.0000
  H   H25       1.0  0.6780535824814962  0.8207989511976094  0.3878418130710699  1.0000
  H   H26       1.0  0.5651015713114945  0.9349903916395875  0.32081324768807923  1.0000
  H   H27       1.0  0.6780532235372693  0.8207986755663511  0.6133048338938849  1.0000
  H   H28       1.0  0.5651001460536591  0.9349880472076038  0.6790960444462043  1.0000
  H   H29       1.0  0.11330652343377798  0.38784346419375737  0.820797736490654  1.0000
  H   H30       1.0  0.1790962501282467  0.3208152112071189  0.934988315521025  1.0000
  H   H31       1.0  0.8878430564832914  0.6133062351528408  0.8207979648361456  1.0000
  H   H32       1.0  0.820815508537116  0.6790956990154199  0.9349887765947072  1.0000
  H   H33       1.0  0.8878440751205902  0.6133049131511398  0.1780529947470838  1.0000
  H   H34       1.0  0.8208159720868339  0.6790958411237327  0.0650998014643775  1.0000
  H   H35       1.0  0.11330711277135928  0.3878417128919409  0.17805233710137705  1.0000
  H   H36       1.0  0.179097024810993  0.3208146128824295  0.06509912574051668  1.0000
  H   H37       1.0  0.11330710103101906  0.8207977624918498  0.17805290477050303  1.0000
  H   H38       1.0  0.17909712029739952  0.9349882109787373  0.06509924484178244  1.0000
  H   H39       1.0  0.8878433526435361  0.8207992177515067  0.17805300212553024  1.0000
  H   H40       1.0  0.8208136364813614  0.9349910695981406  0.06510171673001246  1.0000
  H   H41       1.0  0.8878429683753452  0.17805346529608115  0.8207991792455261  1.0000
  H   H42       1.0  0.8208142222131657  0.06510177945445154  0.9349904758138549  1.0000
  H   H43       1.0  0.11330793857895573  0.17805218028635753  0.8207970458739664  1.0000
  H   H44       1.0  0.1790983207232629  0.06509848396302702  0.9349871821533283  1.0000
  H   H45       1.0  0.32079744603738913  0.6133077119314478  0.38784442238035416  1.0000
  H   H46       1.0  0.4349894541267219  0.6790961710582762  0.32081469732025863  1.0000
  H   H47       1.0  0.320797331439053  0.3878455948178257  0.6133073122126403  1.0000
  H   H48       1.0  0.43498807823676344  0.32081583433249244  0.6790970764042611  1.0000
  H   H49       1.0  0.6780527463222369  0.3878431885775981  0.6133061244193952  1.0000
  H   H50       1.0  0.5651004722949723  0.3208159224053873  0.6790959621732284  1.0000
  H   H51       1.0  0.6780542973865525  0.6133056905912185  0.3878414132206913  1.0000
  H   H52       1.0  0.5651021593179595  0.6790955186981761  0.3208133684390474  1.0000
  C   C1        1.0  0.7617286745976133  0.5018863352617657  0.7344975110150499  1.0000
  C   C2        1.0  0.0018869303255969157  0.7344974601456401  0.5018871804304155  1.0000
  C   C3        1.0  0.2344984028810091  0.5018877104473843  0.26172807568143963  1.0000
  C   C4        1.0  0.001886377293182358  0.2617296039817917  0.5018861274643382  1.0000
  C   C5        1.0  0.0018863292004810993  0.26172859027801815  0.7344987095638017  1.0000
  C   C6        1.0  0.7617289449121717  0.5018865196216211  0.5018855360376335  1.0000
  C   C7        1.0  0.0018874549573626518  0.7344978960345684  0.2617295362369133  1.0000
  C   C8        1.0  0.23449738929386404  0.5018878371696118  0.501887578069585  1.0000
  C   C9        1.0  0.0018873602658047498  0.501886292152406  0.7344972891527136  1.0000
  C   C10       1.0  0.2344982912218968  0.2617289135900903  0.5018857113915371  1.0000
  C   C11       1.0  0.001886600579467935  0.5018853577680886  0.26172884739780505  1.0000
  C   C12       1.0  0.7617295846402145  0.7344988432380433  0.5018860102266274  1.0000
  C   C13       1.0  0.35087925767252426  0.43657899443442716  0.14818823879277698  1.0000
  C   C14       1.0  0.42505367290517176  0.4347914425341273  0.07502410583017398  1.0000
  C   C15       1.0  0.4642609524966659  0.3701670909936539  0.036037788468270486  1.0000
  C   C16       1.0  0.3508788682726519  0.564354404447414  0.14818772165458677  1.0000
  C   C17       1.0  0.4250537891399803  0.5651310763861446  0.0750237123215952  1.0000
  C   C18       1.0  0.4642614598244919  0.6295353306027565  0.03603731630830252  1.0000
  C   C19       1.0  0.6481893788448049  0.5643539496448895  0.8508779976911498  1.0000
  C   C20       1.0  0.5750246107708605  0.5651310911272275  0.925052607440733  1.0000
  C   C21       1.0  0.5360394928561194  0.6295348952143199  0.9642601172633501  1.0000
  C   C22       1.0  0.6481870211635583  0.43657999881347825  0.8508778708792872  1.0000
  C   C23       1.0  0.5750248794362564  0.43479289374108276  0.9250511795830362  1.0000
  C   C24       1.0  0.5360385486565777  0.37016727029907065  0.9642597676511641  1.0000
  C   C25       1.0  0.3138687097130912  0.5009720115675975  0.18418849737889076  1.0000
  C   C26       1.0  0.4627786820931734  0.49986559080625875  0.03749185195854922  1.0000
  C   C27       1.0  0.6841887098688775  0.5009718762845238  0.813867654790201  1.0000
  C   C28       1.0  0.5374932110432483  0.49986462772897494  0.9627767519640641  1.0000
  C   C29       1.0  0.9365797776776218  0.8508778753147723  0.5643553359930636  1.0000
  C   C30       1.0  0.9347935157271577  0.925051491424668  0.5651316566781687  1.0000
  C   C31       1.0  0.870167348637722  0.9642601052282485  0.6295358977913992  1.0000
  C   C32       1.0  0.06435486325846564  0.8508781476407136  0.4365791725924169  1.0000
  C   C33       1.0  0.06513104309069509  0.9250525909589197  0.43479222352759445  1.0000
  C   C34       1.0  0.1295353211454188  0.9642613571710752  0.37016518492526274  1.0000
  C   C35       1.0  0.06435326235350664  0.14818956898671587  0.4365781637216628  1.0000
  C   C36       1.0  0.06513058075050542  0.07502601533368387  0.4347897227050481  1.0000
  C   C37       1.0  0.12953396389712424  0.03603942984948109  0.370164718431475  1.0000
  C   C38       1.0  0.9365790136885793  0.14818803044484238  0.5643541124720526  1.0000
  C   C39       1.0  0.9347921351318789  0.07502504911047951  0.5651305847500436  1.0000
  C   C40       1.0  0.8701667318221737  0.03603786677377502  0.6295356459476479  1.0000
  C   C41       1.0  0.000972462023170881  0.8138669096608454  0.5009708704846717  1.0000
  C   C42       1.0  0.9998653191705248  0.962777330447018  0.4998646925372581  1.0000
  C   C43       1.0  0.0009714217473585923  0.18419017901257453  0.5009704430430588  1.0000
  C   C44       1.0  0.9998642304275692  0.037493747374291855  0.4998646013796061  1.0000
  C   C45       1.0  0.35087928768356136  0.14818822099476853  0.5643535118520474  1.0000
  C   C46       1.0  0.42505350506279876  0.07502334494031973  0.5651304707475191  1.0000
  C   C47       1.0  0.46426070532076846  0.03603718587729083  0.6295343209884833  1.0000
  C   C48       1.0  0.3508797343174237  0.14818862041281017  0.4365768663943399  1.0000
  C   C49       1.0  0.42505342155951814  0.07502531640572842  0.4347898619653279  1.0000
  C   C50       1.0  0.4642620224610283  0.03603840717597261  0.37016477937099507  1.0000
  C   C51       1.0  0.6481891113183169  0.8508800595245773  0.43657698187445954  1.0000
  C   C52       1.0  0.5750260370685399  0.9250529242071365  0.43479060462185254  1.0000
  C   C53       1.0  0.5360390297178272  0.9642613793516688  0.3701644962485345  1.0000
  C   C54       1.0  0.6481885389457746  0.8508795343673936  0.5643525909098273  1.0000
  C   C55       1.0  0.5750251579172178  0.9250520932185179  0.5651303916319533  1.0000
  C   C56       1.0  0.5360371867946799  0.9642606838359241  0.6295340378660939  1.0000
  C   C57       1.0  0.31386867802805096  0.18418990599539595  0.500970010595644  1.0000
  C   C58       1.0  0.4627783715822105  0.03749182756462232  0.49986466687100517  1.0000
  C   C59       1.0  0.6841898440600077  0.8138695489800155  0.5009701161379707  1.0000
  C   C60       1.0  0.5374929278284243  0.9627772504654075  0.4998643833487079  1.0000
  C   C61       1.0  0.06435577177434511  0.4365789824687453  0.8508774552867491  1.0000
  C   C62       1.0  0.06513236591816732  0.43479293782095135  0.925050584650286  1.0000
  C   C63       1.0  0.12953649877200496  0.3701668036745574  0.9642592420835142  1.0000
  C   C64       1.0  0.9365800473942585  0.5643538235409621  0.8508784921079596  1.0000
  C   C65       1.0  0.9347930574919802  0.5651305782442932  0.9250530507147231  1.0000
  C   C66       1.0  0.8701680480949889  0.6295348131332617  0.9642605114662359  1.0000
  C   C67       1.0  0.9365806898372215  0.5643531547597079  0.14818792980237566  1.0000
  C   C68       1.0  0.9347928268252661  0.5651310850402496  0.07502318237364153  1.0000
  C   C69       1.0  0.8701681975031262  0.6295346195441667  0.03603739019487743  1.0000
  C   C70       1.0  0.0643553702235309  0.4365783212593967  0.1481872854532398  1.0000
  C   C71       1.0  0.06513209073978754  0.43479234854023463  0.07502378874793446  1.0000
  C   C72       1.0  0.129536122397262  0.37016713586839967  0.03603612081221994  1.0000
  C   C73       1.0  0.0009721420319553466  0.5009711027313343  0.8138670170708479  1.0000
  C   C74       1.0  0.9998652912523202  0.4998654481435877  0.9627772758028  1.0000
  C   C75       1.0  0.0009717721374259186  0.5009705001578126  0.18418910764805926  1.0000
  C   C76       1.0  0.9998659112093337  0.4998646746230833  0.037491964288761954  1.0000
  C   C77       1.0  0.0643560164584542  0.8508781427089076  0.14818818995411934  1.0000
  C   C78       1.0  0.06513257970613048  0.925051891501134  0.07502354666111435  1.0000
  C   C79       1.0  0.12953795080419198  0.9642596570992905  0.036035932973952536  1.0000
  C   C80       1.0  0.9365789783908981  0.8508790253778074  0.1481887074913928  1.0000
  C   C81       1.0  0.9347914368137894  0.9250534376700869  0.07502458486813879  1.0000
  C   C82       1.0  0.8701664896235927  0.9642621816027273  0.03603871093934441  1.0000
  C   C83       1.0  0.9365803190400189  0.14818839010754903  0.850878690226011  1.0000
  C   C84       1.0  0.9347921677949103  0.07502521477210443  0.9250527741587573  1.0000
  C   C85       1.0  0.8701664714046514  0.036038781610493203  0.9642621874889271  1.0000
  C   C86       1.0  0.0643554469423719  0.1481877004042929  0.8508773140884356  1.0000
  C   C87       1.0  0.06513287381554278  0.0750242832970117  0.9250509141795787  1.0000
  C   C88       1.0  0.129537717935385  0.03603604245699898  0.9642591948734276  1.0000
  C   C89       1.0  0.0009720700784045452  0.8138685037908999  0.1841893617401524  1.0000
  C   C90       1.0  0.9998667015545236  0.9627785419753608  0.037491113029666664  1.0000
  C   C91       1.0  0.000972251757041084  0.18418902151227462  0.8138674140149431  1.0000
  C   C92       1.0  0.9998657560033023  0.03749228930833246  0.962777725451886  1.0000
  C   C93       1.0  0.3508779514060266  0.564356748845448  0.4365799921936996  1.0000
  C   C94       1.0  0.42505089739773894  0.5651325238488241  0.4347929963103354  1.0000
  C   C95       1.0  0.4642609257252704  0.6295359715367608  0.37016617578738925  1.0000
  C   C96       1.0  0.3508770280006104  0.4365811248081569  0.5643559037172139  1.0000
  C   C97       1.0  0.42505158238295593  0.4347937393804385  0.5651330358353447  1.0000
  C   C98       1.0  0.4642602558456446  0.3701687167841569  0.6295360485712393  1.0000
  C   C99       1.0  0.6481883664100678  0.43657913505224866  0.5643543663756743  1.0000
  C   C100      1.0  0.5750235436179241  0.43479142492463296  0.5651322404350124  1.0000
  C   C101      1.0  0.5360380014136935  0.37016870250047873  0.6295349064827673  1.0000
  C   C102      1.0  0.6481888605157737  0.5643543297894239  0.4365780255519311  1.0000
  C   C103      1.0  0.5750258941308604  0.5651311417603608  0.43479145279406584  1.0000
  C   C104      1.0  0.5360388935151763  0.6295351279091647  0.3701656408209715  1.0000
  C   C105      1.0  0.31386694644264423  0.5009724684866014  0.500972686090499  1.0000
  C   C106      1.0  0.4627779360867449  0.4998660672220652  0.4998656829445522  1.0000
  C   C107      1.0  0.6841896718577162  0.500971671086063  0.5009708984682175  1.0000
  C   C108      1.0  0.5374930774218287  0.4998653746182526  0.4998648789640896  1.0000
  O   O1        1.0  0.7924733031378112  0.44214055030024474  0.7036802050662914  1.0000
  O   O2        1.0  0.061706526719248846  0.7036783779155938  0.44214125276788957  1.0000
  O   O3        1.0  0.2036807199680555  0.5617066086589375  0.29247255640820646  1.0000
  O   O4        1.0  0.9421407049956304  0.29247337821195174  0.5617056851279755  1.0000
  O   O5        1.0  0.06170703551306664  0.2924735156686822  0.7036793928205042  1.0000
  O   O6        1.0  0.7924742839399029  0.5617066055950702  0.4421382622534009  1.0000
  O   O7        1.0  0.9421402427947072  0.7036803873408745  0.2924733676068458  1.0000
  O   O8        1.0  0.20367884808514697  0.44214071669199473  0.5617084988679366  1.0000
  O   O9        1.0  0.9421416170730056  0.5617057652518935  0.7036789431130186  1.0000
  O   O10       1.0  0.20368037520265855  0.29247279356646777  0.44214065365888894  1.0000
  O   O11       1.0  0.06170706754412693  0.4421385955476538  0.29247393672468286  1.0000
  O   O12       1.0  0.7924735425557545  0.7036820567097805  0.5617051662795873  1.0000
  O   O13       1.0  0.2036803526963951  0.2924728152420498  0.5617060900679718  1.0000
  O   O14       1.0  0.9421397322844813  0.5617058316457888  0.29247354353434213  1.0000
  O   O15       1.0  0.792474276239247  0.7036806430791244  0.44213847879790796  1.0000
  O   O16       1.0  0.061707063850967546  0.44214084693556527  0.7036795509537582  1.0000
  O   O17       1.0  0.9421400308236371  0.2924738080681664  0.7036801846948252  1.0000
  O   O18       1.0  0.2036777995884408  0.5617079498479426  0.44214166274415584  1.0000
  O   O19       1.0  0.06170663279007744  0.7036805318134114  0.2924733975048213  1.0000
  O   O20       1.0  0.7924745106646894  0.44213855066711716  0.5617060979713031  1.0000
  O   O21       1.0  0.06170481485985153  0.29247330150264605  0.4421408489109169  1.0000
  O   O22       1.0  0.7924734094393104  0.5617068793050353  0.7036798417737841  1.0000
  O   O23       1.0  0.9421424168550279  0.7036784546248923  0.5617060889849482  1.0000
  O   O24       1.0  0.20368048035587796  0.44214119790897405  0.2924714908064416  1.0000
  O   O25       1.0  0.9476227657777586  0.4476205997244165  0.4476204610330257  1.0000
  O   O26       1.0  0.1571345449358859  0.4476225790036991  0.4476227666646366  1.0000
  O   O27       1.0  0.9476225751988354  0.6571354947430236  0.4476219932449225  1.0000
  O   O28       1.0  0.9476216012215487  0.44762161571964765  0.6571349275634047  1.0000
  O   O29       1.0  0.038542646310326  0.5385425780173987  0.5385408991076159  1.0000
  O   O30       1.0  0.884376321599717  0.5385421594170977  0.5385410052562349  1.0000
  O   O31       1.0  0.038541341817129725  0.5385422681221781  0.38437506302442864  1.0000
  O   O32       1.0  0.03854206687461217  0.38437504421915486  0.538541571559108  1.0000
