data_image0
_chemical_formula_structural       Zn8H100C156N4O28
_chemical_formula_sum              "Zn8 H100 C156 N4 O28"
_cell_length_a       11.961192746026953
_cell_length_b       18.045792449001972
_cell_length_c       18.72946507604229
_cell_angle_alpha    89.99995975975301
_cell_angle_beta     89.99975957748063
_cell_angle_gamma    89.99996465690879

_space_group_name_H-M_alt    "P 1"
_space_group_IT_number       1

loop_
  _space_group_symop_operation_xyz
  'x, y, z'

loop_
  _atom_site_type_symbol
  _atom_site_label
  _atom_site_symmetry_multiplicity
  _atom_site_fract_x
  _atom_site_fract_y
  _atom_site_fract_z
  _atom_site_occupancy
  Zn  Zn1       1.0  0.39208447333679436  0.3015727077220872  0.009274596860478802  1.0000
  Zn  Zn2       1.0  0.10791477579183349  0.3015729623979836  0.9907258590616906  1.0000
  Zn  Zn3       1.0  0.6079158397090441  0.19842673605626254  0.009274342262230601  1.0000
  Zn  Zn4       1.0  0.8920841118215821  0.1984274286323213  0.9907269777884267  1.0000
  Zn  Zn5       1.0  0.6079232548230139  0.6984243710967064  0.9907255879725767  1.0000
  Zn  Zn6       1.0  0.8920845919864391  0.6984257788587411  0.0092775292904861  1.0000
  Zn  Zn7       1.0  0.39208520015203163  0.8015720052010874  0.9907263764973209  1.0000
  Zn  Zn8       1.0  0.1079127478518487  0.8015729750630738  0.0092742748942456  1.0000
  H   H1        1.0  0.8725772361103878  0.765696025079073  0.7956982841753303  1.0000
  H   H2        1.0  0.5389956543422373  0.49225003262142736  0.9260634656707156  1.0000
  H   H3        1.0  0.8740881796930965  0.6649137344473953  0.23200202503180384  1.0000
  H   H4        1.0  0.644573920674901  0.5893618685052573  0.8615174007869016  1.0000
  H   H5        1.0  0.8782854940735235  0.6614247840187204  0.3627713719794556  1.0000
  H   H6        1.0  0.8431444074737016  0.6917071116024472  0.5956622032546761  1.0000
  H   H7        1.0  0.9106546123031051  0.43319911050400606  0.8215250309146074  1.0000
  H   H8        1.0  0.8024194238211492  0.33596314688957546  0.885017145117871  1.0000
  H   H9        1.0  0.7834270848893751  0.6660827702078648  0.8643869982388283  1.0000
  H   H10       1.0  0.8420404314422214  0.6925666396167357  0.46485227527372075  1.0000
  H   H11       1.0  0.0176647079579695  0.6039665848365698  0.6537958066595522  1.0000
  H   H12       1.0  0.9257378508453871  0.503562914347455  0.7217906916052641  1.0000
  H   H13       1.0  0.7500012471759234  0.09397576950627239  3.0006532400000174e-08  1.0000
  H   H14       1.0  0.6274213517303338  0.765696290698173  0.2043010501377225  1.0000
  H   H15       1.0  0.9610048599260139  0.49225081092502865  0.0739355198174607  1.0000
  H   H16       1.0  0.6259105018892371  0.6649135899177165  0.7679984453370851  1.0000
  H   H17       1.0  0.8554231591152544  0.5893609805263225  0.13848151897131802  1.0000
  H   H18       1.0  0.6217115186775146  0.6614263989354113  0.637229634670831  1.0000
  H   H19       1.0  0.6568559212598403  0.6917077735598409  0.40433824897525744  1.0000
  H   H20       1.0  0.5893451208561516  0.4331988563735151  0.1784739945466143  1.0000
  H   H21       1.0  0.6975829078936542  0.3359628947493292  0.1149824800770958  1.0000
  H   H22       1.0  0.7165699235370724  0.6660819411207652  0.135611869586981  1.0000
  H   H23       1.0  0.6579582244230622  0.6925672058020423  0.5351465746224379  1.0000
  H   H24       1.0  0.4823350959360511  0.6039671560128638  0.3462023088986399  1.0000
  H   H25       1.0  0.5742593087505838  0.503562593710839  0.2782088201481585  1.0000
  H   H26       1.0  0.12742246646072894  0.7343032640663337  0.7956987604047329  1.0000
  H   H27       1.0  0.4610036576818431  0.007750959674879697  0.9260626664291252  1.0000
  H   H28       1.0  0.1259093703828071  0.835084303027912  0.232001369262143  1.0000
  H   H29       1.0  0.35542618593996167  0.9106390351154018  0.8615166120661684  1.0000
  H   H30       1.0  0.1217095256428209  0.8385737123116356  0.36276912335736  1.0000
  H   H31       1.0  0.1568540999087134  0.8082928774564591  0.5956604147697605  1.0000
  H   H32       1.0  0.08934622188034781  0.06680084967719319  0.821525722676455  1.0000
  H   H33       1.0  0.19758015760430678  0.16403732117118605  0.8850169467787694  1.0000
  H   H34       1.0  0.21657383892208065  0.8339170230292222  0.8643882357089154  1.0000
  H   H35       1.0  0.15795726241822902  0.807432336471578  0.4648520861646261  1.0000
  H   H36       1.0  0.9823384340816762  0.8960322535664242  0.6537976173411479  1.0000
  H   H37       1.0  0.07426150077532162  0.9964358745090179  0.7217905990942769  1.0000
  H   H38       1.0  0.24999912674107355  0.4060247893219468  6.115929099999992e-08  1.0000
  H   H39       1.0  0.3725805603387116  0.7343039835448052  0.20430140259632174  1.0000
  H   H40       1.0  0.038995864755918305  0.007749694025697797  0.0739369205453713  1.0000
  H   H41       1.0  0.3740893824836604  0.8350862735580548  0.767999793361561  1.0000
  H   H42       1.0  0.1445758408022186  0.9106382333880912  0.1384828976567505  1.0000
  H   H43       1.0  0.37828838794634123  0.8385752222693909  0.6372304351514018  1.0000
  H   H44       1.0  0.34314551391983633  0.8082929090611728  0.4043396981524411  1.0000
  H   H45       1.0  0.41065491770772417  0.06680101825514838  0.17847275648829  1.0000
  H   H46       1.0  0.302417547390931  0.16403702614574195  0.11498093265316102  1.0000
  H   H47       1.0  0.2834307672933818  0.8339178290307245  0.1356118598613065  1.0000
  H   H48       1.0  0.34203984409948157  0.8074328273536152  0.5351480273432828  1.0000
  H   H49       1.0  0.5176650487440284  0.8960330148269617  0.3462021626584786  1.0000
  H   H50       1.0  0.42574128219656876  0.9964381808215986  0.2782088525505841  1.0000
  H   H51       1.0  0.1274229677189282  0.2343027161790373  0.2043008328311018  1.0000
  H   H52       1.0  0.4610045494830572  0.5077498169278839  0.07393671917149901  1.0000
  H   H53       1.0  0.12590951601988107  0.3350850068106367  0.7679986937322243  1.0000
  H   H54       1.0  0.3554271191876737  0.4106374268980843  0.1384827840543821  1.0000
  H   H55       1.0  0.12171052956014711  0.33857395723907757  0.6372309485410526  1.0000
  H   H56       1.0  0.1568557963498378  0.3082927379466652  0.4043385155056214  1.0000
  H   H57       1.0  0.0893472636032442  0.5668007390457318  0.178473018253051  1.0000
  H   H58       1.0  0.19758245208144135  0.6640372568055708  0.11498197188575435  1.0000
  H   H59       1.0  0.2165739549779389  0.3339176334876511  0.1356115848478439  1.0000
  H   H60       1.0  0.1579606084236005  0.307433209932789  0.5351468417312191  1.0000
  H   H61       1.0  0.9823363319081083  0.3960327105671551  0.34620331034557245  1.0000
  H   H62       1.0  0.0742615169466418  0.49643638105661114  0.2782084254021058  1.0000
  H   H63       1.0  0.24999979268839917  0.9060235258972678  0.9999996209166753  1.0000
  H   H64       1.0  0.3725788520964458  0.23430411299712256  0.7956986007862313  1.0000
  H   H65       1.0  0.03899450786776271  0.5077484844792366  0.9260630632718333  1.0000
  H   H66       1.0  0.37408970193956037  0.33508625963198563  0.2320006716689775  1.0000
  H   H67       1.0  0.14457704471028882  0.4106383148771897  0.8615186658710882  1.0000
  H   H68       1.0  0.378288685151027  0.3385740047600762  0.3627694823350396  1.0000
  H   H69       1.0  0.34314344652965906  0.3082931842814175  0.5956614019496274  1.0000
  H   H70       1.0  0.4106509027797359  0.5668026556136423  0.821527258136804  1.0000
  H   H71       1.0  0.3024147878177814  0.6640391713834713  0.8850182386858167  1.0000
  H   H72       1.0  0.2834311163249836  0.3339184625741679  0.864388315253926  1.0000
  H   H73       1.0  0.34204114336896657  0.3074320896020311  0.4648525423849322  1.0000
  H   H74       1.0  0.517664271855722  0.3960326935370019  0.6537968081085453  1.0000
  H   H75       1.0  0.4257417311132273  0.4964378099842861  0.7217908307746727  1.0000
  H   H76       1.0  0.8725769013287703  0.2656976937749248  0.20430089052015182  1.0000
  H   H77       1.0  0.5389965461484395  0.9922494440208067  0.0739359166586695  1.0000
  H   H78       1.0  0.8740866532618912  0.16491332993945912  0.7679977477502717  1.0000
  H   H79       1.0  0.6445740178903279  0.08936136858027768  0.1384819710216263  1.0000
  H   H80       1.0  0.8782890061156865  0.1614255830929991  0.6372289258149735  1.0000
  H   H81       1.0  0.8431469399533429  0.191707526238467  0.4043397700711467  1.0000
  H   H82       1.0  0.9106556540184839  0.9332001081633617  0.17847446216314472  1.0000
  H   H83       1.0  0.8024200462184583  0.8359641908153105  0.11498377198095971  1.0000
  H   H84       1.0  0.7834280369769999  0.1660833806655404  0.1356119491308689  1.0000
  H   H85       1.0  0.8420412693347574  0.19256751307826644  0.5351475647617577  1.0000
  H   H86       1.0  0.017662605783634402  0.10396870427468487  0.3462014996634153  1.0000
  H   H87       1.0  0.925738703053213  0.003564529186469698  0.2782085179116009  1.0000
  H   H88       1.0  0.7500035227466455  0.5939660040991084  3.9469952640000007e-07  1.0000
  H   H89       1.0  0.6274204795233516  0.26569642015012807  0.7956987822445853  1.0000
  H   H90       1.0  0.9610026669943396  0.9922484930863714  0.9260637982177257  1.0000
  H   H91       1.0  0.6259116573748926  0.16491413013648779  0.2320014593155051  1.0000
  H   H92       1.0  0.8554243630253426  0.08936050786982008  0.8615167532677646  1.0000
  H   H93       1.0  0.6217118158771983  0.16142462727972168  0.3627702836088886  1.0000
  H   H94       1.0  0.6568546899066945  0.19170804877991535  0.595659952771321  1.0000
  H   H95       1.0  0.589342778014995  0.9331993854414334  0.8215247587667136  1.0000
  H   H96       1.0  0.6975784762577389  0.835963377551188  0.8850165826040882  1.0000
  H   H97       1.0  0.716569436533405  0.16608257466457838  0.8643877910626472  1.0000
  H   H98       1.0  0.6579603597255499  0.1925675763414816  0.46485215749874703  1.0000
  H   H99       1.0  0.4823351550827511  0.10396738886833388  0.6537974882654682  1.0000
  H   H100      1.0  0.5742597576649757  0.003563331164919199  0.7217913322899535  1.0000
  C   C1        1.0  0.6000873827827959  0.3502789678855009  0.9477362344070315  1.0000
  C   C2        1.0  0.6644681841013025  0.40814508907929076  0.9096341326461755  1.0000
  C   C3        1.0  0.8840042705655339  0.7082433009847261  0.7793422418833842  1.0000
  C   C4        1.0  0.949485403227854  0.6916244770783208  0.7193073431196952  1.0000
  C   C5        1.0  0.6206171937948498  0.4799269300681599  0.9032100648541431  1.0000
  C   C6        1.0  0.9296728251548528  0.7020420349391967  0.2609264158775915  1.0000
  C   C7        1.0  0.6804365718554521  0.5341639506144134  0.8672217521118668  1.0000
  C   C8        1.0  0.785554122867147  0.518597984894896  0.8365987450015099  1.0000
  C   C9        1.0  0.8458901794362248  0.5771113495017841  0.7976802877054114  1.0000
  C   C10       1.0  0.9311339750353583  0.7013094269004653  0.3350283703276347  1.0000
  C   C11       1.0  0.9124226989179008  0.7168426070932127  0.5666986478295115  1.0000
  C   C12       1.0  0.8286576944419933  0.4463412409071096  0.8435871653655341  1.0000
  C   C13       1.0  0.7689628862311795  0.39179500700287656  0.8795178148929211  1.0000
  C   C14       1.0  0.8335225828368563  0.651768636893976  0.8178420934978521  1.0000
  C   C15       1.0  0.9130182002401597  0.7170249479220484  0.49263780249901146  1.0000
  C   C16       1.0  0.9653409443068669  0.6172392743511919  0.6997130874737465  1.0000
  C   C17       1.0  0.9140416114861268  0.5609646569720751  0.738453203252476  1.0000
  C   C18       1.0  0.899912427502237  0.3502803411184202  0.052263915018443206  1.0000
  C   C19       1.0  0.8355324083943003  0.4081447984457041  0.09036651152724323  1.0000
  C   C20       1.0  0.6159952067511512  0.7082441135050174  0.220657665236196  1.0000
  C   C21       1.0  0.5505149255862491  0.6916247184916953  0.2806920413301626  1.0000
  C   C22       1.0  0.8793816598581898  0.47992827925315135  0.0967899968137473  1.0000
  C   C23       1.0  0.5703249858489343  0.7020430425159957  0.7390756311141189  1.0000
  C   C24       1.0  0.819561395314331  0.5341614190248192  0.1327777389273379  1.0000
  C   C25       1.0  0.7144430227498404  0.518599353012256  0.1633986209017877  1.0000
  C   C26       1.0  0.6541085838245523  0.5771110515027968  0.2023181064246558  1.0000
  C   C27       1.0  0.568863000613092  0.7013099349275788  0.6649736771612638  1.0000
  C   C28       1.0  0.5875759343562379  0.7168427221384944  0.43330338914287136  1.0000
  C   C29       1.0  0.6713436985638737  0.44633986101850787  0.1564129190340751  1.0000
  C   C30       1.0  0.7310368854344987  0.3917975078983033  0.1204828403480391  1.0000
  C   C31       1.0  0.6664752749427337  0.6517683485279233  0.1821562500978118  1.0000
  C   C32       1.0  0.5869812689044095  0.7170261175344664  0.507363166512306  1.0000
  C   C33       1.0  0.5346586176668069  0.6172389538271614  0.3002847455745368  1.0000
  C   C34       1.0  0.585957166797634  0.560963789547543  0.2615441339713271  1.0000
  C   C35       1.0  0.39991345906828707  0.14971812959672795  0.9477360368746802  1.0000
  C   C36       1.0  0.3355303997175056  0.09185480689755818  0.90963361308345  1.0000
  C   C37       1.0  0.1159963753917381  0.7917565542247685  0.7793432437951752  1.0000
  C   C38       1.0  0.050517308836013804  0.8083743135866326  0.7193085094476218  1.0000
  C   C39       1.0  0.37938143218734416  0.020074078881520994  0.9032094762400719  1.0000
  C   C40       1.0  0.07032787922796051  0.7979565356041362  0.26092540043593715  1.0000
  C   C41       1.0  0.3195609892099966  0.9658369488501747  0.8672204883225518  1.0000
  C   C42       1.0  0.21444447521699322  0.9814018285918565  0.8366004222663932  1.0000
  C   C43       1.0  0.15410867408407822  0.9228890464905887  0.79768216644257  1.0000
  C   C44       1.0  0.0688620627981322  0.7986901979367999  0.3350284261520073  1.0000
  C   C45       1.0  0.0875751625224837  0.7831574030711507  0.5666981300504474  1.0000
  C   C46       1.0  0.17134132286416562  0.05365814905183438  0.8435881799688475  1.0000
  C   C47       1.0  0.23103589525044296  0.10820435677366186  0.8795180985113263  1.0000
  C   C48       1.0  0.1664778104276081  0.848231744406128  0.8178439895897114  1.0000
  C   C49       1.0  0.08698098333388771  0.7829728996277224  0.4926356846856663  1.0000
  C   C50       1.0  0.0346627324003279  0.8827600847379243  0.6997137120667247  1.0000
  C   C51       1.0  0.0859593028384893  0.9390352280328927  0.7384552538888585  1.0000
  C   C52       1.0  0.10008593131726681  0.149716854751027  0.05226292008416071  1.0000
  C   C53       1.0  0.16446988052972963  0.09185347794934975  0.090364849123894  1.0000
  C   C54       1.0  0.3840074340052695  0.7917567029651167  0.22065634639673704  1.0000
  C   C55       1.0  0.4494848130255704  0.8083755000855672  0.280692137333773  1.0000
  C   C56       1.0  0.12061724275182681  0.020070546606937995  0.09679010239479881  1.0000
  C   C57       1.0  0.42967007213547964  0.7979573961828946  0.7390763212391321  1.0000
  C   C58       1.0  0.1804401501550714  0.96583613660848  0.1327779162018601  1.0000
  C   C59       1.0  0.28555832174563284  0.9814015051828588  0.1633974378016632  1.0000
  C   C60       1.0  0.3458941773035492  0.9228892241857731  0.20231626715070664  1.0000
  C   C61       1.0  0.4311367239183781  0.7986905577687791  0.6649738289435734  1.0000
  C   C62       1.0  0.41242447468440707  0.7831579393766218  0.4333025338038611  1.0000
  C   C63       1.0  0.3286581568727982  0.05365892139445089  0.1564108420123063  1.0000
  C   C64       1.0  0.26896353375065024  0.10820185484300986  0.12048088654860582  1.0000
  C   C65       1.0  0.33352678247797485  0.8482324959985376  0.18215449453666116  1.0000
  C   C66       1.0  0.4130178180073685  0.782973935866664  0.5073649792944863  1.0000
  C   C67       1.0  0.46534182838749427  0.8827618046185534  0.30028474868708344  1.0000
  C   C68       1.0  0.4140443695684369  0.9390369971288448  0.2615426348553243  1.0000
  C   C69       1.0  0.3999019525688965  0.6497230982501774  0.05226128085861601  1.0000
  C   C70       1.0  0.33553034766122647  0.591853098034143  0.09036284869037561  1.0000
  C   C71       1.0  0.11599760533880502  0.2917571027106193  0.22065634120216526  1.0000
  C   C72       1.0  0.050518144751052305  0.3083748183250917  0.2806912399639927  1.0000
  C   C73       1.0  0.3793821739986711  0.5200729194819046  0.096788518234959  1.0000
  C   C74       1.0  0.07032654262341251  0.2979567063175209  0.7390769724745923  1.0000
  C   C75       1.0  0.3195627959345657  0.46583589893526045  0.13277789881339433  1.0000
  C   C76       1.0  0.21444608096690845  0.48140186465538176  0.16339877025031774  1.0000
  C   C77       1.0  0.1541100243940647  0.4228890541939022  0.2023182953823834  1.0000
  C   C78       1.0  0.06886288463333301  0.29868986850275536  0.6649744841096421  1.0000
  C   C79       1.0  0.0875766688663404  0.2831583507474632  0.433302604849608  1.0000
  C   C80       1.0  0.1713433454293423  0.5536580544972053  0.1564103498853555  1.0000
  C   C81       1.0  0.23103648156409662  0.6082048425473797  0.12048023427809798  1.0000
  C   C82       1.0  0.166479293067745  0.3482312126555697  0.1821564895878822  1.0000
  C   C83       1.0  0.08698283961540913  0.28297434748051836  0.5073645180145832  1.0000
  C   C84       1.0  0.034661767633004104  0.38276057519799167  0.300286029528948  1.0000
  C   C85       1.0  0.08595942838319809  0.4390351925778332  0.2615448459163048  1.0000
  C   C86       1.0  0.10009446461621252  0.649722279158297  0.9477368037319424  1.0000
  C   C87       1.0  0.16446863145626617  0.5918539428104806  0.9096374107407784  1.0000
  C   C88       1.0  0.3840058331088941  0.2917568443355164  0.7793430535226025  1.0000
  C   C89       1.0  0.44948444220526096  0.3083756852039626  0.7193070756768308  1.0000
  C   C90       1.0  0.120619380002374  0.5200715702957907  0.9032107219454276  1.0000
  C   C91       1.0  0.42967438194057184  0.2979579153252628  0.2609240198107656  1.0000
  C   C92       1.0  0.180440480582277  0.46583676808636887  0.8672235137493516  1.0000
  C   C93       1.0  0.28555718107116956  0.481402158974049  0.8366026317760176  1.0000
  C   C94       1.0  0.3458949641428078  0.4228904604826268  0.7976836801667417  1.0000
  C   C95       1.0  0.4311372032122023  0.29868991462173256  0.33502650768095077  1.0000
  C   C96       1.0  0.41242259739500037  0.2831571274111582  0.5666967957015885  1.0000
  C   C97       1.0  0.3286548331760812  0.5536616509673633  0.8435904693182935  1.0000
  C   C98       1.0  0.26896164630468183  0.6082056665249524  0.879520548003761  1.0000
  C   C99       1.0  0.3335274369896126  0.3482326093120704  0.8178450025768172  1.0000
  C   C100      1.0  0.41301726284883955  0.2829731778695787  0.4926364844142627  1.0000
  C   C101      1.0  0.46534075012470316  0.3827614498685036  0.6997143714324565  1.0000
  C   C102      1.0  0.4140447091011907  0.43903716829301226  0.7384560508682726  1.0000
  C   C103      1.0  0.6000825645938265  0.8502872614141095  0.052256673118172614  1.0000
  C   C104      1.0  0.6644706401495527  0.9081461509437498  0.09036497000303712  1.0000
  C   C105      1.0  0.8840046644738281  0.20824384947055555  0.22065587320958  1.0000
  C   C106      1.0  0.9494845670665698  0.19162609010852086  0.2806906075560036  1.0000
  C   C107      1.0  0.6206179356036543  0.9799274331057287  0.09678964076654491  1.0000
  C   C108      1.0  0.9296714885575741  0.2020416515075708  0.7390758522441203  1.0000
  C   C109      1.0  0.6804392146200301  0.03416400899130419  0.1327780947650581  1.0000
  C   C110      1.0  0.7855557286077824  0.018599129249047094  0.1633997625754517  1.0000
  C   C111      1.0  0.845890693703673  0.07711191135047805  0.20231801840039054  1.0000
  C   C112      1.0  0.931136468948111  0.20130909746647058  0.6649733604468795  1.0000
  C   C113      1.0  0.9124267133753677  0.21684189233182138  0.43330258870778954  1.0000
  C   C114      1.0  0.8286588809591181  0.9463422546430773  0.1564125387912583  1.0000
  C   C115      1.0  0.7689634725350345  0.8917977093588052  0.1204826202493408  1.0000
  C   C116      1.0  0.8335215573583883  0.15176921343474697  0.18215672917133222  1.0000
  C   C117      1.0  0.913018384454638  0.21702639577596017  0.5073645001578555  1.0000
  C   C118      1.0  0.9653383074654941  0.11723976481160037  0.30028540493821515  1.0000
  C   C119      1.0  0.9140409009900453  0.06096517566260218  0.2615438631170122  1.0000
  C   C120      1.0  0.8999184526713011  0.8502885362532308  0.9477431378494359  1.0000
  C   C121      1.0  0.8355286512200168  0.9081458174543112  0.9096358696388338  1.0000
  C   C122      1.0  0.6159936058600337  0.20824425487599288  0.7793427706078262  1.0000
  C   C123      1.0  0.5505137187274229  0.191624349464277  0.7193075135926038  1.0000
  C   C124      1.0  0.8793812890004418  0.9799270863595311  0.903210082450414  1.0000
  C   C125      1.0  0.5703292956522716  0.20204356165817214  0.2609238636038356  1.0000
  C   C126      1.0  0.8195600536739747  0.03416315879542249  0.8672212008043872  1.0000
  C   C127      1.0  0.7144427181251842  0.0185988985130479  0.8366000774488498  1.0000
  C   C128      1.0  0.6541076986022886  0.07711173365555618  0.797681782016582  1.0000
  C   C129      1.0  0.5688643159439338  0.20130929178035464  0.3350263558975257  1.0000
  C   C130      1.0  0.5875757291441275  0.21684246431886578  0.5666965832020097  1.0000
  C   C131      1.0  0.6713412109204668  0.9463414823014064  0.843587741076611  1.0000
  C   C132      1.0  0.7310358340413716  0.891797440561063  0.8795182304587642  1.0000
  C   C133      1.0  0.6664750934281187  0.15176790769699974  0.8178435546308125  1.0000
  C   C134      1.0  0.5869823858194182  0.21702646782863155  0.49263467162946034  1.0000
  C   C135      1.0  0.5346583754387808  0.11723970736833421  0.6997149022364937  1.0000
  C   C136      1.0  0.5859566703003694  0.06096396071265527  0.7384554143130873  1.0000
  C   C137      1.0  1.724272352e-07  0.7500006473800268  0.605439354499886  1.0000
  C   C138      1.0  0.9999981930373351  0.749998310451964  0.3743710829088798  1.0000
  C   C139      1.0  1.1721050853500003e-05  0.750001924003385  0.14342829517782724  1.0000
  C   C140      1.0  6.725784374000001e-07  0.7499973780343578  0.4530335069004466  1.0000
  C   C141      1.0  0.999999526851852  0.7499978115716955  0.2226881603853315  1.0000
  C   C142      1.0  0.4999994956216796  0.75000006780035  0.3945613317986201  1.0000
  C   C143      1.0  0.49999957336002154  0.7500005377559161  0.6256303977027287  1.0000
  C   C144      1.0  0.49999045510130463  0.7500043326338497  0.8565739928696701  1.0000
  C   C145      1.0  0.49999899547228216  0.7499994581254582  0.546967179399367  1.0000
  C   C146      1.0  0.499999075581549  0.7499993741984311  0.7773138541437987  1.0000
  C   C147      1.0  1.9330466187999996e-06  0.24999996084979864  0.3945611038657546  1.0000
  C   C148      1.0  1.1747464440999997e-06  0.24999987665954382  0.6256307036892608  1.0000
  C   C149      1.0  0.9999960070921504  0.24999737139684436  0.8565766949171874  1.0000
  C   C150      1.0  5.968581859999998e-07  0.24999990532067776  0.5469674853855154  1.0000
  C   C151      1.0  0.999998775314154  0.24999795442096223  0.7773154883611326  1.0000
  C   C152      1.0  0.5000007082053628  0.2499997817491461  0.6054383191255184  1.0000
  C   C153      1.0  0.4999997944299963  0.24999931179375068  0.3743692532225254  1.0000
  C   C154      1.0  0.5000013883546615  0.25000105837550274  0.1434251241457289  1.0000
  C   C155      1.0  0.4999995362809671  0.24999983727858666  0.4530324715272018  1.0000
  C   C156      1.0  0.5000011282469857  0.2500010294970564  0.222685262862079  1.0000
  N   N1        1.0  1.5989387805000007e-06  0.7499995118244693  0.680267439246805  1.0000
  N   N2        1.0  0.4999989051479332  0.7499995409183597  0.3197332470511398  1.0000
  N   N3        1.0  3.0146486765e-06  0.24999943396765184  0.3197324851979602  1.0000
  N   N4        1.0  0.49999879056829155  0.2499997544858629  0.6802664038765515  1.0000
  O   O1        1.0  0.5075195889818147  0.3698863171310619  0.9761327849295186  1.0000
  O   O2        1.0  0.9192295323986245  0.7168278094240035  0.11202841905579672  1.0000
  O   O3        1.0  0.6411025482953576  0.2848542897838157  0.9493603803278959  1.0000
  O   O4        1.0  0.9924793670317412  0.3698871190446268  0.0238662833889052  1.0000
  O   O5        1.0  0.5807691008916507  0.7168303666641476  0.8879725500896214  1.0000
  O   O6        1.0  0.8588973228424026  0.2848556809779268  0.0506408812197066  1.0000
  O   O7        1.0  0.49247939441628574  0.13011131380461896  0.9761328862558757  1.0000
  O   O8        1.0  0.0807805096174263  0.783168653034913  0.11203165693898852  1.0000
  O   O9        1.0  0.35889744685027836  0.2151455772432412  0.949362384214396  1.0000
  O   O10       1.0  0.0075200142092271  0.13010898922633626  0.023865550057088607  1.0000
  O   O11       1.0  0.41922163568471416  0.7831694093893515  0.8879706086585061  1.0000
  O   O12       1.0  0.141100210591901  0.21514428680343656  0.0506397319673155  1.0000
  O   O13       1.0  0.492477270698359  0.6301146407109071  0.023866332080650907  1.0000
  O   O14       1.0  0.0807723434977845  0.2831670528122245  0.8879733675401056  1.0000
  O   O15       1.0  0.35889180327075104  0.7151455597666894  0.0506398045221772  1.0000
  O   O16       1.0  0.0075208367978234  0.6301110680676911  0.9761328336177187  1.0000
  O   O17       1.0  0.4192244146364601  0.28316782044895206  0.1120281686802116  1.0000
  O   O18       1.0  0.1411012089045656  0.7151458310087191  0.9493603714603441  1.0000
  O   O19       1.0  0.5075199733832108  0.8698907523294036  0.0238635611601623  1.0000
  O   O20       1.0  0.9192222023009009  0.21683230480352478  0.8879738670802696  1.0000
  O   O21       1.0  0.6411019209422123  0.7848564888899999  0.0506361988739599  1.0000
  O   O22       1.0  0.9924810256480899  0.8698903061764224  0.9761362365384303  1.0000
  O   O23       1.0  0.5807760600354755  0.21683265674442248  0.1120274405140123  1.0000
  O   O24       1.0  0.8588966490722497  0.7848572251825842  0.9493641903053744  1.0000
  O   O25       1.0  0.2500008862644449  0.35227893262178606  0.9999998083304363  1.0000
  O   O26       1.0  0.7500003861370957  0.147721816000697  1.6135715342000001e-06  1.0000
  O   O27       1.0  0.7500009896263435  0.6477054008431722  5.181777496e-06  1.0000
  O   O28       1.0  0.24999891919289044  0.8522783978989708  4.440428114000001e-07  1.0000
