data_image0
_chemical_formula_structural       Zn2H30C30N14O14
_chemical_formula_sum              "Zn2 H30 C30 N14 O14"
_cell_length_a       10.023068621694014
_cell_length_b       10.29163152006032
_cell_length_c       11.015946222101341
_cell_angle_alpha    69.7971499517669
_cell_angle_beta     78.18194564764812
_cell_angle_gamma    65.84695878248479

_space_group_name_H-M_alt    "P 1"
_space_group_IT_number       1

loop_
  _space_group_symop_operation_xyz
  'x, y, z'

loop_
  _atom_site_type_symbol
  _atom_site_label
  _atom_site_symmetry_multiplicity
  _atom_site_fract_x
  _atom_site_fract_y
  _atom_site_fract_z
  _atom_site_occupancy
  Zn  Zn1       1.0  0.41800445373402795  0.9571407518997501  0.2804728748901796  1.0000
  Zn  Zn2       1.0  0.5819888759158687  0.04286430882820721  0.7195305032315887  1.0000
  H   H1        1.0  0.57421318485428  0.8075649462612945  0.5055610882140654  1.0000
  H   H2        1.0  0.42579310873023957  0.19243552507079195  0.49443612928777014  1.0000
  H   H3        1.0  0.5568683395154039  0.7149419094226415  0.42509195244657855  1.0000
  H   H4        1.0  0.44313303227497874  0.28506083989785935  0.5749071868940802  1.0000
  H   H5        1.0  0.24964124863193854  0.1442505396125782  0.7684300728979493  1.0000
  H   H6        1.0  0.7503613343170841  0.8557434032069082  0.23156521908045144  1.0000
  H   H7        1.0  0.08078444180188886  0.2934429247460669  0.7816316377091894  1.0000
  H   H8        1.0  0.9192235538535624  0.7065620245456686  0.21835665943189758  1.0000
  H   H9        1.0  0.9551920306062482  0.10865235209129054  0.8806191193153694  1.0000
  H   H10       1.0  0.04480405363659668  0.8913537982923712  0.11938074835770615  1.0000
  H   H11       1.0  0.11742340875476744  0.9644164118338876  0.847925712494316  1.0000
  H   H12       1.0  0.8825768230899552  0.03558420265510882  0.15206882132066826  1.0000
  H   H13       1.0  0.9026157865395489  0.1080600400489757  0.6876863144981158  1.0000
  H   H14       1.0  0.09738059840216816  0.8919394736643369  0.3123146363713261  1.0000
  H   H15       1.0  0.984496059450926  0.2433861614512125  0.6266481178726409  1.0000
  H   H16       1.0  0.015492051811577376  0.7566168439834228  0.37335039009295196  1.0000
  H   H17       1.0  0.0551876695746074  0.2117403662485415  0.2272975682388747  1.0000
  H   H18       1.0  0.9448126496937731  0.7882657713759045  0.7726961611897208  1.0000
  H   H19       1.0  0.38147335903310164  0.9860917631444296  0.9839550507148686  1.0000
  H   H20       1.0  0.6185316177056349  0.013901012061289502  0.01604202443340341  1.0000
  H   H21       1.0  0.2747998604951292  0.7387638569614481  0.518729275807587  1.0000
  H   H22       1.0  0.7252090857371273  0.2612308956386542  0.4812819789776199  1.0000
  H   H23       1.0  0.1929963117188578  0.1921712450330375  0.4468978047020116  1.0000
  H   H24       1.0  0.806991839331701  0.8078351598255081  0.5530923867457603  1.0000
  H   H25       1.0  0.4506970276436846  0.4176054427628557  0.3364164614829406  1.0000
  H   H26       1.0  0.5493028727699141  0.5823840586762757  0.6635860839798297  1.0000
  H   H27       1.0  0.6818628587009955  0.652141284143184  0.027352514634188217  1.0000
  H   H28       1.0  0.3181225609702949  0.3478716302073721  0.9726524684894428  1.0000
  H   H29       1.0  0.6833226372440253  0.2349928307433089  0.021644156649642816  1.0000
  H   H30       1.0  0.3166808744282505  0.7650099217374373  0.9783509988723439  1.0000
  C   C1        1.0  0.14181003104546624  0.1736730187321598  0.8216308740454323  1.0000
  C   C2        1.0  0.8581931372425088  0.8263308663631789  0.1783621732737258  1.0000
  C   C3        1.0  0.054525274886486806  0.084658872227898  0.8148461260800062  1.0000
  C   C4        1.0  0.9454745017283556  0.915342827176431  0.18515087301429392  1.0000
  C   C5        1.0  0.005211483090128908  0.12570038688154028  0.6793980860969313  1.0000
  C   C6        1.0  0.994784215082987  0.8743013920609642  0.3205986483668539  1.0000
  C   C7        1.0  0.11457190266710877  0.1755766773774923  0.1435996124790648  1.0000
  C   C8        1.0  0.8854284837086153  0.8244294888665066  0.8563913728602515  1.0000
  C   C9        1.0  0.2823790158117632  0.05921087547709901  0.022825328874169798  1.0000
  C   C10       1.0  0.7176181006367841  0.9407863920867215  0.977178009008071  1.0000
  C   C11       1.0  0.22905304672664778  0.850638698469453  0.5283910169992012  1.0000
  C   C12       1.0  0.770953955995587  0.14935951717329493  0.47160950221186243  1.0000
  C   C13       1.0  0.18998220433179108  0.0812589538452002  0.4884236514480166  1.0000
  C   C14       1.0  0.8100117147626805  0.9187450792065377  0.5115717732158699  1.0000
  C   C15       1.0  0.5643535545901059  0.30918711525639253  0.1880430490489502  1.0000
  C   C16       1.0  0.43564946411704836  0.690807837739726  0.8119600338708465  1.0000
  C   C17       1.0  0.5215952046032513  0.4219028823108815  0.24712751818898937  1.0000
  C   C18       1.0  0.47840417347313036  0.5780876754240226  0.7528802366423761  1.0000
  C   C19       1.0  0.5621626900935937  0.5459093195236163  0.1901004869930745  1.0000
  C   C20       1.0  0.43783447604337067  0.4540845867757001  0.8099075086212721  1.0000
  C   C21       1.0  0.651358497390447  0.55538288716091  0.07450626402303577  1.0000
  C   C22       1.0  0.3486341951792724  0.4446210775317354  0.9254975554251814  1.0000
  C   C23       1.0  0.6955219163116126  0.440698576519054  0.017797488996159086  1.0000
  C   C24       1.0  0.3044735511673622  0.559311972345185  0.9822047597062564  1.0000
  C   C25       1.0  0.6520550451084406  0.31895546892791765  0.07135972463516543  1.0000
  C   C26       1.0  0.34794290768952146  0.6810484655059241  0.9286377940520935  1.0000
  C   C27       1.0  0.5068118264211207  0.18542069036199388  0.2460462186693775  1.0000
  C   C28       1.0  0.49319791552793646  0.814569740076344  0.753955337515066  1.0000
  C   C29       1.0  0.5030639561154758  0.6685040445625815  0.2538054189098773  1.0000
  C   C30       1.0  0.49693453387026665  0.33148869254284813  0.7462063517836839  1.0000
  N   N1        1.0  0.16418926131854766  0.15001719985830417  0.9556214224112907  1.0000
  N   N2        1.0  0.8358210456531552  0.8499776783400038  0.04437594941101953  1.0000
  N   N3        1.0  0.05511058056385561  0.22457025066017877  0.03162924834835931  1.0000
  N   N4        1.0  0.9448936800341702  0.7754336455551394  0.9683608923650411  1.0000
  N   N5        1.0  0.2546148254873017  0.07290385510959399  0.1430840044110511  1.0000
  N   N6        1.0  0.7453836545980722  0.9270956426842643  0.8569147920325833  1.0000
  N   N7        1.0  0.110125438230213  0.037819654644302106  0.5970426622580547  1.0000
  N   N8        1.0  0.8898738607856415  0.9621831201355137  0.4029577168119829  1.0000
  N   N9        1.0  0.13344530006349956  0.890707061738126  0.6239175322910385  1.0000
  N   N10       1.0  0.8665619292472614  0.1092933539349659  0.376083181480027  1.0000
  N   N11       1.0  0.2668697867892931  0.9648316183969  0.44222010094652836  1.0000
  N   N12       1.0  0.7331265260948926  0.0351712470410632  0.5577771068872366  1.0000
  N   N13       1.0  0.7824478086719749  0.4538211693564023  0.8925287533375651  1.0000
  N   N14       1.0  0.21754677276916828  0.5461860739023192  0.10747465682772633  1.0000
  O   O1        1.0  0.4260928417675274  0.18061867404414036  0.35039958964121337  1.0000
  O   O2        1.0  0.5739266389272044  0.8193582873978614  0.6496063290733716  1.0000
  O   O3        1.0  0.53816674292041  0.0901926158784505  0.1839782270927229  1.0000
  O   O4        1.0  0.4618328965823651  0.9098069216549403  0.816014918655867  1.0000
  O   O5        1.0  0.5091394323455561  0.7956570555261494  0.18436105551694473  1.0000
  O   O6        1.0  0.4908575051500676  0.2043401357188515  0.8156495999367195  1.0000
  O   O7        1.0  0.45273421953396564  0.6394558436176254  0.3705414467616706  1.0000
  O   O8        1.0  0.5472738203441524  0.3605301088610702  0.6294690297835218  1.0000
  O   O9        1.0  0.8347204309540429  0.5526052714356169  0.8524594368455851  1.0000
  O   O10       1.0  0.16527891280004073  0.4473975224238984  0.14753911283159485  1.0000
  O   O11       1.0  0.7964497261601194  0.36653499086911273  0.831849722963156  1.0000
  O   O12       1.0  0.2035426279754802  0.6334667260939143  0.16815847540718915  1.0000
  O   O13       1.0  0.5892679707377865  0.7968916951877318  0.41643537570572414  1.0000
  O   O14       1.0  0.41073303529918787  0.20311217720751532  0.5835625701285281  1.0000
