data_image0
_chemical_formula_structural       Zn2H22C20N8Cl2O8
_chemical_formula_sum              "Zn2 H22 C20 N8 Cl2 O8"
_cell_length_a       7.580380304165392
_cell_length_b       7.874915936642234
_cell_length_c       10.942828907489234
_cell_angle_alpha    95.7991729159779
_cell_angle_beta     88.4843181837816
_cell_angle_gamma    105.64333210812015

_space_group_name_H-M_alt    "P 1"
_space_group_IT_number       1

loop_
  _space_group_symop_operation_xyz
  'x, y, z'

loop_
  _atom_site_type_symbol
  _atom_site_label
  _atom_site_symmetry_multiplicity
  _atom_site_fract_x
  _atom_site_fract_y
  _atom_site_fract_z
  _atom_site_occupancy
  Zn  Zn1       1.0  0.30057596166474104  0.331917301062802  0.2234556172551905  1.0000
  Zn  Zn2       1.0  0.69942294140602  0.6680741102263923  0.7765479809408687  1.0000
  H   H1        1.0  0.387992448614675  0.0883195191237078  0.7114377794456246  1.0000
  H   H2        1.0  0.6120212369341047  0.9117310494783267  0.2885827785857629  1.0000
  H   H3        1.0  0.024951680441674312  0.13622583158469578  0.5879426772067262  1.0000
  H   H4        1.0  0.9750389179838168  0.8637885340603901  0.4120728035495561  1.0000
  H   H5        1.0  0.04843285029008372  0.3628068086914951  0.589888342218579  1.0000
  H   H6        1.0  0.9515684329691538  0.6372063374453987  0.41009878597295574  1.0000
  H   H7        1.0  0.7096016512341735  0.05242121922996288  0.7402269291966308  1.0000
  H   H8        1.0  0.2904050676325483  0.9476020653239488  0.25977665178373144  1.0000
  H   H9        1.0  0.3681745002512643  0.2544730639063673  0.5217623589343674  1.0000
  H   H10       1.0  0.6318282830943291  0.7455576876536655  0.4782491201280479  1.0000
  H   H11       1.0  0.6772406335471288  0.3216310251245816  0.42574935104669004  1.0000
  H   H12       1.0  0.3227515690584539  0.6783865142568215  0.5742526856928052  1.0000
  H   H13       1.0  0.13404716635066904  0.84663022823797  0.881301844483005  1.0000
  H   H14       1.0  0.8659610150566903  0.1533621762849577  0.11868363452376941  1.0000
  H   H15       1.0  0.36714967523467834  0.8797127216772936  0.906028707398221  1.0000
  H   H16       1.0  0.6328515240229321  0.12027398337906448  0.0939617149389278  1.0000
  H   H17       1.0  0.45329506375721723  0.642817586720092  0.05152500097039341  1.0000
  H   H18       1.0  0.5466996352897481  0.35715887821332604  0.9484873769706468  1.0000
  H   H19       1.0  0.9306673844188396  0.46568964602364815  0.21269447647705422  1.0000
  H   H20       1.0  0.06932664898516802  0.534313527272687  0.7873063870580665  1.0000
  H   H21       1.0  0.9207187742507801  0.7203535612873395  0.0871753322217401  1.0000
  H   H22       1.0  0.07929058811839704  0.27966155438799944  0.912838577906598  1.0000
  C   C1        1.0  0.0235690376070607  0.2281151599552018  0.40879784910857353  1.0000
  C   C2        1.0  0.976426244389785  0.7718551914255513  0.5912021331253996  1.0000
  C   C3        1.0  0.9714803600342634  0.23311524143338863  0.545387388252145  1.0000
  C   C4        1.0  0.028515639588832215  0.7668906277551527  0.45461371969549447  1.0000
  C   C5        1.0  0.772504940373821  0.19964283315513853  0.5724388626002864  1.0000
  C   C6        1.0  0.22749271176544997  0.8003696894569856  0.4275619000001925  1.0000
  C   C7        1.0  0.6711451015539538  0.11717754742035423  0.6659430690631325  1.0000
  C   C8        1.0  0.32885730657076107  0.8828442677869148  0.33406034469399515  1.0000
  C   C9        1.0  0.4866236180100999  0.2227005925683585  0.5577675642105433  1.0000
  C   C10       1.0  0.5133783433296912  0.7773198287856785  0.4422375590667187  1.0000
  C   C11       1.0  0.2510888446420338  0.0667705550455153  0.009809050907080103  1.0000
  C   C12       1.0  0.7489155188056387  0.9332135430786294  0.9901839331292096  1.0000
  C   C13       1.0  0.23769426734138938  0.8775269597378355  0.9546667424063884  1.0000
  C   C14       1.0  0.762306802714356  0.1224596751312745  0.0453255026537605  1.0000
  C   C15       1.0  0.2027865731829905  0.7367950838378687  0.039816924741622  1.0000
  C   C16       1.0  0.7972124053319478  0.2631940661491825  0.9601764220721877  1.0000
  C   C17       1.0  0.3114734326803656  0.635150005311729  0.0743895348461336  1.0000
  C   C18       1.0  0.6885231881297429  0.3648309570240045  0.9256095122809853  1.0000
  C   C19       1.0  0.0451088602140644  0.5415040450518871  0.1623126219766107  1.0000
  C   C20       1.0  0.9548795828139803  0.45848823123433385  0.8376927680909958  1.0000
  N   N1        1.0  0.4954363715025424  0.13375589952585196  0.6544444132929996  1.0000
  N   N2        1.0  0.5045660312005538  0.8662670638792989  0.3455636704745046  1.0000
  N   N3        1.0  0.6532471647813483  0.2630670823119203  0.5072641569302762  1.0000
  N   N4        1.0  0.3467501697748717  0.73694411663422  0.4927364924673299  1.0000
  N   N5        1.0  0.21153771859403045  0.5140715018092835  0.1506079213789704  1.0000
  N   N6        1.0  0.7884563031695536  0.4859158278949067  0.8493943718266195  1.0000
  N   N7        1.0  0.035908705460173024  0.6751871992055742  0.09717341688771343  1.0000
  N   N8        1.0  0.9640904598944573  0.32480963365549087  0.9028260593055181  1.0000
  Cl  Cl1       1.0  0.6052343406988926  0.43802420696991373  0.2678355117025434  1.0000
  Cl  Cl2       1.0  0.3947682986685735  0.561960780230166  0.7321675925063432  1.0000
  O   O1        1.0  0.197764667337978  0.29176287493577757  0.3914321359096675  1.0000
  O   O2        1.0  0.8022260726741023  0.7082428351055227  0.6085679886493125  1.0000
  O   O3        1.0  0.9053956609605154  0.16928387113797785  0.3269789686670137  1.0000
  O   O4        1.0  0.09460668040465238  0.8306300237258808  0.6730246362058311  1.0000
  O   O5        1.0  0.26404539982530645  0.09691510666335289  0.1280203473864461  1.0000
  O   O6        1.0  0.7359497279144238  0.9030833820271837  0.8719654995599697  1.0000
  O   O7        1.0  0.25269208059174997  0.18047969049475657  0.9370028041438303  1.0000
  O   O8        1.0  0.747321435870788  0.8195106118732624  0.06297340686936082  1.0000
