data_image0
_chemical_formula_structural       Zn2H36C34N2O8
_chemical_formula_sum              "Zn2 H36 C34 N2 O8"
_cell_length_a       9.660902216821338
_cell_length_b       11.036039881932808
_cell_length_c       16.02285362711835
_cell_angle_alpha    89.05772156338385
_cell_angle_beta     88.47528008368096
_cell_angle_gamma    91.48997969595673

_space_group_name_H-M_alt    "P 1"
_space_group_IT_number       1

loop_
  _space_group_symop_operation_xyz
  'x, y, z'

loop_
  _atom_site_type_symbol
  _atom_site_label
  _atom_site_symmetry_multiplicity
  _atom_site_fract_x
  _atom_site_fract_y
  _atom_site_fract_z
  _atom_site_occupancy
  Zn  Zn1       1.0  0.635292727077051  0.49807510087449447  0.4935159101289343  1.0000
  Zn  Zn2       1.0  0.3543236710309402  0.5103982961926049  0.5003300878697345  1.0000
  H   H1        1.0  0.708768725424342  0.549577261164238  0.08121935803370658  1.0000
  H   H2        1.0  0.09057115157005313  0.5901528100988075  0.49687346695420587  1.0000
  H   H3        1.0  0.27880125555232393  0.4578747238013817  0.053723207421022295  1.0000
  H   H4        1.0  0.38937560912344793  0.661783927154751  0.9423009562970464  1.0000
  H   H5        1.0  0.6321722066714842  0.3427346990715137  0.05165355211322979  1.0000
  H   H6        1.0  0.6940824470235969  0.688308637754325  0.8481711402786161  1.0000
  H   H7        1.0  0.5867674323304188  0.7561919304498871  0.9251226977264793  1.0000
  H   H8        1.0  0.7631472571976802  0.731956519178183  0.9455904261529893  1.0000
  H   H9        1.0  0.2820614886454537  0.06298032322390408  0.34120372499168633  1.0000
  H   H10       1.0  0.17695627070747832  0.09251213291854302  0.4301823374579499  1.0000
  H   H11       1.0  0.29019519645367353  0.20896709616101816  0.3889248469662547  1.0000
  H   H12       1.0  0.723325658937455  0.5091466708950562  0.9397054383685555  1.0000
  H   H13       1.0  0.719059778643313  0.8704287174710502  0.3880091934629775  1.0000
  H   H14       1.0  0.6646208337941105  0.019059471227521402  0.4155129833281634  1.0000
  H   H15       1.0  0.7340464188966609  0.9193378731957724  0.49136627730602805  1.0000
  H   H16       1.0  0.40968857576007195  0.7842758573725634  0.0315368509791227  1.0000
  H   H17       1.0  0.31919925957871  0.9447954078897496  0.12052183187977049  1.0000
  H   H18       1.0  0.1517694220652572  0.8940984082439343  0.2378897417437358  1.0000
  H   H19       1.0  0.07646980045230123  0.6783741577118434  0.2640820266124848  1.0000
  H   H20       1.0  0.16951624352157074  0.5164918952827833  0.17550598324054784  1.0000
  H   H21       1.0  0.21509436282306643  0.4324287613765919  0.909327362432002  1.0000
  H   H22       1.0  0.15120538202297953  0.5765766984167584  0.935330737683749  1.0000
  H   H23       1.0  0.39722809959835104  0.33140578437097196  0.9322392792006724  1.0000
  H   H24       1.0  0.24588306024866574  0.5577635377106631  0.8396102204478239  1.0000
  H   H25       1.0  0.46003656627326717  0.1695427523028741  0.049020287067655495  1.0000
  H   H26       1.0  0.45848644489813495  0.2432578399886012  0.1470412463485857  1.0000
  H   H27       1.0  0.324715975243592  0.2686224900174707  0.0751909959018846  1.0000
  H   H28       1.0  0.5840199662531306  0.285378376622397  0.8314170604989001  1.0000
  H   H29       1.0  0.7122622782414753  0.3222381213793923  0.9051473228142652  1.0000
  H   H30       1.0  0.5990757416334704  0.19506866660289998  0.9236040162937156  1.0000
  H   H31       1.0  0.5521603605924882  0.09133410444250255  0.5409228535962071  1.0000
  H   H32       1.0  0.31114529351429354  0.8795022165011659  0.46513225190253843  1.0000
  H   H33       1.0  0.8572922603309793  0.3842560570735785  0.5974290205213322  1.0000
  H   H34       1.0  0.9029375084317269  0.5164728700001505  0.4386773374843429  1.0000
  H   H35       1.0  0.11935584201556536  0.34290682333331557  0.5616567192936303  1.0000
  H   H36       1.0  0.5895141463573952  0.6659423359690281  0.06857569457284998  1.0000
  C   C1        1.0  0.5137344486957218  0.7372144946489598  0.4701458088360084  1.0000
  C   C2        1.0  0.47304227001811233  0.13505461762877502  0.5046021321601799  1.0000
  C   C3        1.0  0.40724869841395167  0.9341470020252132  0.4590779196392418  1.0000
  C   C4        1.0  0.4868069913046967  0.4771769134351088  0.3354395806855734  1.0000
  C   C5        1.0  0.525718676229147  0.8715940397704359  0.45541665360736516  1.0000
  C   C6        1.0  0.9144462991503987  0.4282546346059491  0.5446787605038422  1.0000
  C   C7        1.0  0.06740653804607181  0.4247646616663375  0.5407313487749192  1.0000
  C   C8        1.0  0.4731413937726359  0.2682411944413232  0.5112104345225318  1.0000
  C   C9        1.0  0.509546612263435  0.5210024901296535  0.6594960676828805  1.0000
  C   C10       1.0  0.6137170281276241  0.5735511836389335  0.0492914423834918  1.0000
  C   C11       1.0  0.35400775578572313  0.5342383272592883  0.0458195687447969  1.0000
  C   C12       1.0  0.635449903779687  0.5678066253208698  0.9535843434515099  1.0000
  C   C13       1.0  0.3716133217202185  0.5635815350512203  0.9511411805749929  1.0000
  C   C14       1.0  0.5123048514196924  0.518125572417489  0.7495915401771569  1.0000
  C   C15       1.0  0.49431609550169503  0.48618861654903606  0.07937479711758039  1.0000
  C   C16       1.0  0.6716344502398571  0.6928843847102968  0.9155462741671698  1.0000
  C   C17       1.0  0.27993092341402814  0.11118303492151685  0.4007620817850253  1.0000
  C   C18       1.0  0.6680914359254547  0.9241653942335688  0.436476263618971  1.0000
  C   C19       1.0  0.29644666454100144  0.6372929653287045  0.0965425996977771  1.0000
  C   C20       1.0  0.33695840700468693  0.759143126165469  0.08250927205695288  1.0000
  C   C21       1.0  0.28565799550240467  0.8508269681413835  0.1328895886990153  1.0000
  C   C22       1.0  0.19197770787621957  0.8225890514359334  0.19857238753873216  1.0000
  C   C23       1.0  0.505456839899054  0.5034091126958132  0.915966874890209  1.0000
  C   C24       1.0  0.14992945204451055  0.7018589976741865  0.2130982352172168  1.0000
  C   C25       1.0  0.20174248641709616  0.6106807094166483  0.16271460010100472  1.0000
  C   C26       1.0  0.23889889833293415  0.5305157276710518  0.9058076067010035  1.0000
  C   C27       1.0  0.43650794437972024  0.2546732935301108  0.08053295867095038  1.0000
  C   C28       1.0  0.6051128088032771  0.28836567071616775  0.8983530990326329  1.0000
  C   C29       1.0  0.5019978974360769  0.3672124214552284  0.9449985880100441  1.0000
  C   C30       1.0  0.522032661290105  0.3597801562917837  0.0405614094148987  1.0000
  C   C31       1.0  0.5105898893917954  0.5119810514914535  0.8254757232570213  1.0000
  C   C32       1.0  0.4914200885819825  0.4775278754632095  0.1697142006378272  1.0000
  C   C33       1.0  0.4889961514096798  0.47280079291899574  0.24554600740313498  1.0000
  C   C34       1.0  0.3915258292085398  0.06544359957175772  0.45606416352858037  1.0000
  N   N1        1.0  0.8451094136575322  0.48051243286151657  0.4883137241458755  1.0000
  N   N2        1.0  0.14332674975586462  0.5140407354702816  0.5133047966811404  1.0000
  O   O1        1.0  0.6254623222166273  0.6783078879271187  0.4631252370974792  1.0000
  O   O2        1.0  0.39482488961036927  0.6908302312116774  0.4904862266446131  1.0000
  O   O3        1.0  0.6008442739176942  0.45689650391877024  0.3710104572616046  1.0000
  O   O4        1.0  0.3718721745742857  0.5020438420453388  0.37116013587716873  1.0000
  O   O5        1.0  0.5901021410108171  0.3189849411612116  0.5263444768403218  1.0000
  O   O6        1.0  0.36009801625729676  0.32406900033874564  0.5016951213475238  1.0000
  O   O7        1.0  0.625516054774977  0.534599835855147  0.619925793685226  1.0000
  O   O8        1.0  0.3907837686522201  0.5087146654679202  0.6274639546040888  1.0000
