data_image0
_chemical_formula_structural       Al2H36C48N6O12
_chemical_formula_sum              "Al2 H36 C48 N6 O12"
_cell_length_a       3.9583228719708714
_cell_length_b       27.8950581082397
_cell_length_c       27.895050765602637
_cell_angle_alpha    120.00321593711976
_cell_angle_beta     89.99491998818964
_cell_angle_gamma    90.01228471185709

_space_group_name_H-M_alt    "P 1"
_space_group_IT_number       1

loop_
  _space_group_symop_operation_xyz
  'x, y, z'

loop_
  _atom_site_type_symbol
  _atom_site_label
  _atom_site_symmetry_multiplicity
  _atom_site_fract_x
  _atom_site_fract_y
  _atom_site_fract_z
  _atom_site_occupancy
  Al  Al1       1.0  0.012764651512355799  0.5000081305710751  0.500005673090179  1.0000
  Al  Al2       1.0  0.0127934157163807  0.16666074516185603  0.8333275678069894  1.0000
  H   H1        1.0  0.4001284321781781  0.17756439051918693  0.6883946375450022  1.0000
  H   H2        1.0  0.39860365124175695  0.23273272463163863  0.6395862897898752  1.0000
  H   H3        1.0  0.5288738278067839  0.3814635004941494  0.795809172143194  1.0000
  H   H4        1.0  0.5290229729648175  0.28521145714380225  0.5375313702412114  1.0000
  H   H5        1.0  0.3984427667724049  0.43393192551111776  0.6937461458088732  1.0000
  H   H6        1.0  0.399876305969201  0.48909642885671895  0.6449351901923704  1.0000
  H   H7        1.0  0.39997732268944464  0.010834006012252904  0.8224423078594398  1.0000
  H   H8        1.0  0.39853369747518036  0.9068638379632648  0.767286695955292  1.0000
  H   H9        1.0  0.5288988160012664  0.9143345252369314  0.6185320445773782  1.0000
  H   H10       1.0  0.5288882492670338  0.7523242098426978  0.7148182843648525  1.0000
  H   H11       1.0  0.39868090186513433  0.759806767121752  0.566067760275153  1.0000
  H   H12       1.0  0.4001916296108945  0.6558346207176342  0.5109019445808585  1.0000
  H   H13       1.0  0.39996598544423273  0.31158797316808057  0.9891556087046779  1.0000
  H   H14       1.0  0.39845478656508243  0.36039373725684953  0.09313474101043785  1.0000
  H   H15       1.0  0.5288891487890836  0.204183372086618  0.08566073300841028  1.0000
  H   H16       1.0  0.5288238596508421  0.46246902365115256  0.2476569545372484  1.0000
  H   H17       1.0  0.39850131486306856  0.3062596478361925  0.24020227163867958  1.0000
  H   H18       1.0  0.3999958006661402  0.3550706122183698  0.344178607903089  1.0000
  H   H19       1.0  0.8294463818848001  0.3364165934348621  0.8743916421330907  1.0000
  H   H20       1.0  0.4183515892611425  0.31671906910520425  0.8817411787108184  1.0000
  H   H21       1.0  0.481307543742929  0.37957863351199017  0.8807485422899505  1.0000
  H   H22       1.0  0.8295155935786412  0.3302657944783788  0.45895428908213615  1.0000
  H   H23       1.0  0.4184490315844585  0.34993703767919027  0.4515849284541389  1.0000
  H   H24       1.0  0.48132415000855383  0.2870857388117116  0.452592830329003  1.0000
  H   H25       1.0  0.8294262835643379  0.0379635948908828  0.6635746395801263  1.0000
  H   H26       1.0  0.41836203457454957  0.06499872410055473  0.6832597921102703  1.0000
  H   H27       1.0  0.4812228370717548  0.0011421176512485319  0.6203976294569031  1.0000
  H   H28       1.0  0.8294043079057544  0.6287022705530491  0.6697605707502986  1.0000
  H   H29       1.0  0.4183147942473866  0.6016577133774846  0.65007244040779  1.0000
  H   H30       1.0  0.48122694753709533  0.6655087937848375  0.712938566076353  1.0000
  H   H31       1.0  0.8294542875122346  0.1256215211171323  0.9620290772616896  1.0000
  H   H32       1.0  0.4184218207865342  0.11824697807813318  0.9349783082977723  1.0000
  H   H33       1.0  0.48126324593301456  0.1192444671141645  0.9988364034270774  1.0000
  H   H34       1.0  0.8294142174988152  0.5410573484253263  0.37129885278559266  1.0000
  H   H35       1.0  0.41835858354987465  0.5484019019429384  0.39834140289619296  1.0000
  H   H36       1.0  0.4812547650065255  0.5474145387305853  0.3344859485145192  1.0000
  C   C1        1.0  0.5076963967142306  0.46114271117971833  0.41487438716473674  1.0000
  C   C2        1.0  0.5076521869058085  0.45373953431160174  0.5388660791076489  1.0000
  C   C3        1.0  0.5077585485535819  0.5851334998829714  0.5462784556396726  1.0000
  C   C4        1.0  0.5077973436508713  0.21293569039386281  0.7944754341735987  1.0000
  C   C5        1.0  0.5077061308372137  0.08153405740355901  0.787062842608229  1.0000
  C   C6        1.0  0.507697549813848  0.20552382431839789  0.9184543022982012  1.0000
  C   C7        1.0  0.4886508717370361  0.24848256114622563  0.7688416401786355  1.0000
  C   C8        1.0  0.4350330155895535  0.22233332280787  0.7113482397110927  1.0000
  C   C9        1.0  0.43249629433194053  0.25244271761582837  0.6842015768270144  1.0000
  C   C10       1.0  0.47218518124218883  0.310215548353817  0.7153646292596747  1.0000
  C   C11       1.0  0.5094577192309516  0.3363963640913  0.7729741320563477  1.0000
  C   C12       1.0  0.5237038724728436  0.30646707697245296  0.8007957178827994  1.0000
  C   C13       1.0  0.5095185560748944  0.3302772396740111  0.560366150697476  1.0000
  C   C14       1.0  0.4722165823035738  0.3564585105376353  0.6179741349564409  1.0000
  C   C15       1.0  0.43238693906701536  0.41422607235818987  0.6491320501969182  1.0000
  C   C16       1.0  0.43484727969649123  0.44433077919343594  0.6219814948089776  1.0000
  C   C17       1.0  0.48845665753302825  0.4181847204677923  0.5644897121592294  1.0000
  C   C18       1.0  0.52370110808571  0.36020357272521863  0.5325397623124601  1.0000
  C   C19       1.0  0.4884681416123158  0.020354034495049717  0.7515126012547029  1.0000
  C   C20       1.0  0.4348880619520513  0.9890196789110417  0.7776714257411041  1.0000
  C   C21       1.0  0.4324145957663106  0.9317623889119917  0.7475693221685091  1.0000
  C   C22       1.0  0.4721969684715929  0.9051472730640666  0.6897966576516195  1.0000
  C   C23       1.0  0.5094459310127775  0.9365617189569732  0.6636020524342638  1.0000
  C   C24       1.0  0.5236371525025945  0.9943159473076761  0.6935266443414033  1.0000
  C   C25       1.0  0.509471141334302  0.7301003512147021  0.6697469096361103  1.0000
  C   C26       1.0  0.47223654112237057  0.7615191284077625  0.6435583845337758  1.0000
  C   C27       1.0  0.4325534468772148  0.7349083560721327  0.5857831554629129  1.0000
  C   C28       1.0  0.43506441674720964  0.6776497426096457  0.5556730732477462  1.0000
  C   C29       1.0  0.48862169959279095  0.6463133579915025  0.5818279668073032  1.0000
  C   C30       1.0  0.523688420395345  0.6723473470438037  0.6398154840501462  1.0000
  C   C31       1.0  0.48853490478553135  0.23115017872731888  0.9796348329230468  1.0000
  C   C32       1.0  0.43488398754247015  0.2886413708411411  0.010977314971846357  1.0000
  C   C33       1.0  0.43236824628122855  0.3157802320649594  0.06823365671584716  1.0000
  C   C34       1.0  0.4721293053032767  0.2846273931460175  0.09484898336238247  1.0000
  C   C35       1.0  0.5094202978752164  0.22701916067781272  0.06342821932371825  1.0000
  C   C36       1.0  0.523660104559248  0.1992046407932975  0.00567395747948037  1.0000
  C   C37       1.0  0.509387347520068  0.43963746677150073  0.2698943779405098  1.0000
  C   C38       1.0  0.47213413655828157  0.38202574601535133  0.23847891354089507  1.0000
  C   C39       1.0  0.432389302675773  0.35087562357317376  0.2650983266067967  1.0000
  C   C40       1.0  0.434916104284909  0.37801703731937397  0.322354288397271  1.0000
  C   C41       1.0  0.48851451648058486  0.43551306157903  0.3536912385920487  1.0000
  C   C42       1.0  0.5236368852836009  0.46745663174733926  0.3276477081905256  1.0000
  C   C43       1.0  0.5641596866333883  0.33639948277603793  0.8627590711770451  1.0000
  C   C44       1.0  0.5642012960714311  0.3302702380527904  0.4705769965418439  1.0000
  C   C45       1.0  0.5641232196114742  0.026338462872637167  0.6635836882699877  1.0000
  C   C46       1.0  0.5641190142032002  0.640321783297921  0.6697532558024831  1.0000
  C   C47       1.0  0.5641513897080088  0.13723937173539  0.9736460721535136  1.0000
  C   C48       1.0  0.564108537459326  0.5294232592554025  0.3596762876541603  1.0000
  N   N1        1.0  0.4732807055508416  0.34570278391490933  0.692897901424132  1.0000
  N   N2        1.0  0.4733568525662548  0.32097021205775894  0.6404397850272545  1.0000
  N   N3        1.0  0.4733426620333816  0.8471924752271465  0.6543104156287284  1.0000
  N   N4        1.0  0.47330643220225  0.8194743941456935  0.6790463206858915  1.0000
  N   N5        1.0  0.4732708368995944  0.3070994845729799  0.15280604355366015  1.0000
  N   N6        1.0  0.4732486107634344  0.35955412272102893  0.18052354743415577  1.0000
  O   O1        1.0  0.7513914988831515  0.5602876751729015  0.5546739447757574  1.0000
  O   O2        1.0  0.7513717525313054  0.49439074843581216  0.43972004563691053  1.0000
  O   O3        1.0  0.7512569828431737  0.44534335750086745  0.5056143818138423  1.0000
  O   O4        1.0  0.2815616334871507  0.5612008357084265  0.5089643861314102  1.0000
  O   O5        1.0  0.2814489112900276  0.49104462632013224  0.5522413258354177  1.0000
  O   O6        1.0  0.28145563777815136  0.44777175869818103  0.4388114593149836  1.0000
  O   O7        1.0  0.7513321201125863  0.1722805378019031  0.8936075792297301  1.0000
  O   O8        1.0  0.7514974172829341  0.22132743230151414  0.8277094356470015  1.0000
  O   O9        1.0  0.7513502619641841  0.10638028822060618  0.7786598769722843  1.0000
  O   O10       1.0  0.281542167956168  0.2188971764857329  0.8945177542904545  1.0000
  O   O11       1.0  0.28144880199720745  0.10546752054172281  0.8243675595176684  1.0000
  O   O12       1.0  0.28159435809293853  0.1756182555947774  0.7810946661160045  1.0000
