data_image0
_chemical_formula_structural       Zn4H16C28N12O16
_chemical_formula_sum              "Zn4 H16 C28 N12 O16"
_cell_length_a       9.575046009113802
_cell_length_b       9.717336660102617
_cell_length_c       13.833687305764515
_cell_angle_alpha    101.3814618350949
_cell_angle_beta     89.9998277386701
_cell_angle_gamma    89.999512680553

_space_group_name_H-M_alt    "P 1"
_space_group_IT_number       1

loop_
  _space_group_symop_operation_xyz
  'x, y, z'

loop_
  _atom_site_type_symbol
  _atom_site_label
  _atom_site_symmetry_multiplicity
  _atom_site_fract_x
  _atom_site_fract_y
  _atom_site_fract_z
  _atom_site_occupancy
  Zn  Zn1       1.0  0.0638304870538207  0.9099191354346702  0.6013270578278024  1.0000
  Zn  Zn2       1.0  0.5638319952759901  0.5900823600554119  0.3986732837209316  1.0000
  Zn  Zn3       1.0  0.9361686564509526  0.0900801778132987  0.3986734025203944  1.0000
  Zn  Zn4       1.0  0.4361671482255147  0.4099180024056536  0.6013265988389589  1.0000
  H   H1        1.0  0.881748916251901  0.12417836719237839  0.8829881393631352  1.0000
  H   H2        1.0  0.38174563594867544  0.3758234687588526  0.11701103478495867  1.0000
  H   H3        1.0  0.11825336039708391  0.8758209460409888  0.1170123209797893  1.0000
  H   H4        1.0  0.6182576850800245  0.6241768931645026  0.882988124823086  1.0000
  H   H5        1.0  0.7698522167187106  0.3885203241466185  0.17010696915935597  1.0000
  H   H6        1.0  0.26984915495631157  0.11147941040276521  0.8298979297812819  1.0000
  H   H7        1.0  0.23014692679417692  0.6114768901569364  0.8298939238206272  1.0000
  H   H8        1.0  0.7301520773031527  0.888522001779883  0.1701020979316112  1.0000
  H   H9        1.0  0.190655951199787  0.6398036192339092  0.6735716831961938  1.0000
  H   H10       1.0  0.6906543984917164  0.8601966928660758  0.3264275084507844  1.0000
  H   H11       1.0  0.8093452810613684  0.3601967442538693  0.32642964524981716  1.0000
  H   H12       1.0  0.3093457894040412  0.13980156909101996  0.6735706379046819  1.0000
  H   H13       1.0  0.30934030643275884  0.808361881589789  0.42788490670854157  1.0000
  H   H14       1.0  0.809340182044771  0.6916373240667824  0.5721146083260678  1.0000
  H   H15       1.0  0.6906557039229496  0.1916384814041194  0.572115698801447  1.0000
  H   H16       1.0  0.1906558283125221  0.30836303840889207  0.42788527423910244  1.0000
  C   C1        1.0  0.9332412325858713  0.0672950945600022  0.9334256194609052  1.0000
  C   C2        1.0  0.43324081429828  0.4327073118828935  0.06657497237793558  1.0000
  C   C3        1.0  0.06676208844767469  0.9327042176320287  0.06657339499061976  1.0000
  C   C4        1.0  0.5667635511118263  0.5672930500355947  0.9334241872283469  1.0000
  C   C5        1.0  0.06576623134360202  0.9384597981503047  0.7920394957565192  1.0000
  C   C6        1.0  0.565766728468482  0.5615427285031346  0.20796026148886426  1.0000
  C   C7        1.0  0.934233956536147  0.061540565342347975  0.2079618326912467  1.0000
  C   C8        1.0  0.43423137065961726  0.43845658319502673  0.7920380300266315  1.0000
  C   C9        1.0  0.9054081587073953  0.1092579768450364  0.03395396721320759  1.0000
  C   C10       1.0  0.4054073149450161  0.3907404913068149  0.9660475835908855  1.0000
  C   C11       1.0  0.09459516232457328  0.8907413358652293  0.9660457701831362  1.0000
  C   C12       1.0  0.5945949617071236  0.6092588208900905  0.03395143086240177  1.0000
  C   C13       1.0  0.027876793285408003  0.9599173421704705  0.8987035547687582  1.0000
  C   C14       1.0  0.5278768961915716  0.5400855368386671  0.10129488414369797  1.0000
  C   C15       1.0  0.9721254833667317  0.04008197002643499  0.10129545968452897  1.0000
  C   C16       1.0  0.47212538046214547  0.45991377484001106  0.8987034073647705  1.0000
  C   C17       1.0  0.2440928345355715  0.6579496263212903  0.6080982457509734  1.0000
  C   C18       1.0  0.7440921974306747  0.8420512371062403  0.3919009111539538  1.0000
  C   C19       1.0  0.7559063089595098  0.34205178638932665  0.39190250491024864  1.0000
  C   C20       1.0  0.25590590169911553  0.15794702589705167  0.6080986810946669  1.0000
  C   C21       1.0  0.30486423866259577  0.7449502016326263  0.48419808042186213  1.0000
  C   C22       1.0  0.8048638124224894  0.7550479950053344  0.5157998586359368  1.0000
  C   C23       1.0  0.6951338604575029  0.2550501608333136  0.5158018021397908  1.0000
  C   C24       1.0  0.1951332423226333  0.24495131721592864  0.4841991558261398  1.0000
  C   C25       1.0  0.8109046232689393  0.23270360299732573  0.0626421048234889  1.0000
  C   C26       1.0  0.3109018368942317  0.2673009952435166  0.9373604899157113  1.0000
  C   C27       1.0  0.18909660900506248  0.7672946599913573  0.9373574874198594  1.0000
  C   C28       1.0  0.6890983509919407  0.732698317999585  0.06263997043073026  1.0000
  N   N1        1.0  0.2091266209135512  0.7586451670937749  0.5574561220232468  1.0000
  N   N2        1.0  0.709126632203784  0.7413549727251622  0.4425430074389851  1.0000
  N   N3        1.0  0.7908725225815231  0.24135624561684915  0.4425446286379823  1.0000
  N   N4        1.0  0.2908714669211605  0.2586443400094538  0.5574567299661553  1.0000
  N   N5        1.0  0.35524987870007146  0.585782866660935  0.5683286079691214  1.0000
  N   N6        1.0  0.8552505341142124  0.9142148610675135  0.4316706073515703  1.0000
  N   N7        1.0  0.6447492647998487  0.41421749631836485  0.43167199753558794  1.0000
  N   N8        1.0  0.144749653779968  0.0857834014078094  0.5683282619487215  1.0000
  N   N9        1.0  0.3943880040359247  0.6417137633961544  0.4886875497589854  1.0000
  N   N10       1.0  0.8943877506736727  0.8582835992998524  0.5113115338034574  1.0000
  N   N11       1.0  0.6056100950777435  0.35828764931932977  0.5113132009039987  1.0000
  N   N12       1.0  0.10561139283267812  0.14171571342989606  0.4886882035999206  1.0000
  O   O1        1.0  0.9720327151517695  0.8921578918400499  0.7266053968489956  1.0000
  O   O2        1.0  0.47203315496556547  0.6078450445393672  0.2733935733130721  1.0000
  O   O3        1.0  0.0279664283497283  0.10784247062101573  0.2733944857108952  1.0000
  O   O4        1.0  0.5279659885326637  0.3921563671347955  0.7266057314585195  1.0000
  O   O5        1.0  0.18504701361498377  0.9758541752484431  0.7669551213964991  1.0000
  O   O6        1.0  0.6850456354159675  0.5241440907384387  0.23304524470945862  1.0000
  O   O7        1.0  0.8149552630388541  0.024144088253599698  0.23304519378990554  1.0000
  O   O8        1.0  0.3149524637042446  0.4758552235508589  0.7669566615301306  1.0000
  O   O9        1.0  0.8313719069037404  0.30209731831344294  0.15608026768919095  1.0000
  O   O10       1.0  0.3313701268196141  0.19789974401687968  0.8439255797178333  1.0000
  O   O11       1.0  0.16862723660429424  0.697900945721436  0.8439207704473118  1.0000
  O   O12       1.0  0.6686300610616058  0.8021016671341883  0.15607300210717767  1.0000
  O   O13       1.0  0.7274198704093991  0.26986205102284083  0.0058201001439285825  1.0000
  O   O14       1.0  0.22741089076594534  0.2301475237881618  0.9941819103962857  1.0000
  O   O15       1.0  0.2725803174767806  0.7301372622202607  0.9941803602025131  1.0000
  O   O16       1.0  0.7725882527227056  0.7698549391720064  0.005819708366274794  1.0000
