data_image0
_chemical_formula_structural       Rb4H40C56S8N4O32
_chemical_formula_sum              "Rb4 H40 C56 S8 N4 O32"
_cell_length_a       6.954669326
_cell_length_b       11.84787761141777
_cell_length_c       19.972
_cell_angle_alpha    103.03398229298793
_cell_angle_beta     90.0
_cell_angle_gamma    90.0

_space_group_name_H-M_alt    "P 1"
_space_group_IT_number       1

loop_
  _space_group_symop_operation_xyz
  'x, y, z'

loop_
  _atom_site_type_symbol
  _atom_site_label
  _atom_site_symmetry_multiplicity
  _atom_site_fract_x
  _atom_site_fract_y
  _atom_site_fract_z
  _atom_site_occupancy
  Rb  Rb1       1.0  0.0719229019458894  0.1377848357189677  0.5081287029165651  1.0000
  Rb  Rb2       1.0  0.5719251072268747  0.8622156397357443  0.49187181132504787  1.0000
  Rb  Rb3       1.0  0.3341783614803049  0.41301489664632385  0.4955994347796917  1.0000
  Rb  Rb4       1.0  0.8341791288783968  0.5869838461017025  0.5044008476443906  1.0000
  H   H1        1.0  0.6791106490632332  0.4708439823118269  0.3335090869042929  1.0000
  H   H2        1.0  0.17911419531379386  0.5291564931428923  0.6664909266363424  1.0000
  H   H3        1.0  0.6918085928274069  0.5016341801328252  0.21349069162066311  1.0000
  H   H4        1.0  0.1918092633121944  0.4983662953218868  0.7865098226209497  1.0000
  H   H5        1.0  0.9815635625520474  0.1745182174750326  0.1456463790959219  1.0000
  H   H6        1.0  0.48156567091972147  0.8254831243330257  0.8543537503534822  1.0000
  H   H7        1.0  0.9707132982960759  0.1441516664389013  0.2651551609573275  1.0000
  H   H8        1.0  0.4707154066637501  0.8558505417224963  0.7348450844008454  1.0000
  H   H9        1.0  0.3565417540025848  0.252681482461206  0.30746218584589263  1.0000
  H   H10       1.0  0.8565396456349107  0.7473207257001988  0.6925345546054089  1.0000
  H   H11       1.0  0.33979473203209665  0.2570634976716306  0.1822843826985263  1.0000
  H   H12       1.0  0.8397940615473021  0.7429369777830815  0.8177136280381775  1.0000
  H   H13       1.0  0.6278990122038763  0.9282620868624818  0.1286422240295408  1.0000
  H   H14       1.0  0.1279011205715506  0.071737522238891  0.8713571729013481  1.0000
  H   H15       1.0  0.6613758015502214  0.9283339941899769  0.2540263687913793  1.0000
  H   H16       1.0  0.16137790991789566  0.0716656149113959  0.7459740295414719  1.0000
  H   H17       1.0  0.9320687578582962  0.2948971481736891  0.008375559829204288  1.0000
  H   H18       1.0  0.4320708662259706  0.705103327281023  0.9916249544124085  1.0000
  H   H19       1.0  0.5536855628209666  0.030408135996602  0.9825546627929214  1.0000
  H   H20       1.0  0.0536833575399811  0.969589740398078  0.017444001619445315  1.0000
  H   H21       1.0  0.3777907872883972  0.3468792151252345  0.7262830358053307  1.0000
  H   H22       1.0  0.8777929925693757  0.6531195276227919  0.27371724661875163  1.0000
  H   H23       1.0  0.3789612239574112  0.3279571917541446  0.8485717207439194  1.0000
  H   H24       1.0  0.8789634292383897  0.6720432837005674  0.1514282927967159  1.0000
  H   H25       1.0  0.6644888179978994  0.9984540347369162  0.7867333326919876  1.0000
  H   H26       1.0  0.16448805059980745  0.0015464407177959  0.21326718154962523  1.0000
  H   H27       1.0  0.6651042318730092  0.0179794309335719  0.6641889515648033  1.0000
  H   H28       1.0  0.1651049023577968  0.9820201781677937  0.3358119474690184  1.0000
  H   H29       1.0  0.6817621051045821  0.5627519430895092  0.7367271750080562  1.0000
  H   H30       1.0  0.18176277558936965  0.4372476660118636  0.2632732233247879  1.0000
  H   H31       1.0  0.722776276538099  0.5741245634270484  0.8632722423560538  1.0000
  H   H32       1.0  0.22277550913999997  0.4258750456743243  0.1367281559767974  1.0000
  H   H33       1.0  0.0169454498087234  0.2470025362958523  0.8172511721450775  1.0000
  H   H34       1.0  0.5169476550897016  0.7529953400988347  0.1827494950712207  1.0000
  H   H35       1.0  0.9899090348210181  0.2383901177100682  0.6913728065159148  1.0000
  H   H36       1.0  0.48991114318869233  0.7616077586846117  0.30862735999939156  1.0000
  H   H37       1.0  0.4389525737172306  0.2156188864346831  0.9900421627122995  1.0000
  H   H38       1.0  0.9389519032324429  0.7843807226666897  0.009957734919566986  1.0000
  H   H39       1.0  0.8013723929568144  0.47707999367692366  0.0135362682367557  1.0000
  H   H40       1.0  0.3013730634416092  0.5229204817777884  0.9864647467058419  1.0000
  C   C1        1.0  0.8265382192234512  0.3061086267893813  0.30559253900548816  1.0000
  C   C2        1.0  0.3265403275911254  0.6938918486653378  0.6944079752361247  1.0000
  C   C3        1.0  0.7467055235229766  0.40715228357219496  0.2922935500021993  1.0000
  C   C4        1.0  0.24670906977353724  0.5928490582358634  0.7077070801481825  1.0000
  C   C5        1.0  0.7536260538521518  0.4240695653068798  0.2255267583223031  1.0000
  C   C6        1.0  0.25362528645406  0.5759309101478394  0.7744732552183322  1.0000
  C   C7        1.0  0.8381850705981365  0.3408883817562938  0.1726260289755501  1.0000
  C   C8        1.0  0.3381843032000376  0.6591129600517647  0.8273746011748315  1.0000
  C   C9        1.0  0.9171809184590956  0.23963073569768056  0.18684321406884413  1.0000
  C   C10       1.0  0.4171815889438903  0.7603706061103779  0.8131579167825224  1.0000
  C   C11       1.0  0.9121195707012077  0.22265800734902538  0.2534794151461455  1.0000
  C   C12       1.0  0.41212167906888914  0.777343334459033  0.7465212150042362  1.0000
  C   C13       1.0  0.5134219662538158  0.0911828230293352  0.286763672104172  1.0000
  C   C14       1.0  0.0134211988557169  0.9088193851320625  0.7132355718520387  1.0000
  C   C15       1.0  0.4182786935857266  0.18333163003645578  0.2680397188759756  1.0000
  C   C16       1.0  0.9182780231009389  0.8166714444782882  0.731958138886057  1.0000
  C   C17       1.0  0.4071839892391722  0.1850357470627344  0.19875489347816  1.0000
  C   C18       1.0  0.9071847566372713  0.8149647283919847  0.8012426165575733  1.0000
  C   C19       1.0  0.4858663786310373  0.094446376073563  0.1488551171779093  1.0000
  C   C20       1.0  0.9858700217949092  0.9055532330278098  0.8511437790519949  1.0000
  C   C21       1.0  0.5725836575885523  0.9997050489646497  0.16815896651964832  1.0000
  C   C22       1.0  0.07258576595622662  0.000294560136723  0.8318399297102559  1.0000
  C   C23       1.0  0.5890574818107482  0.9989088702421539  0.2374536079878311  1.0000
  C   C24       1.0  0.08905815229553583  0.0010924715659044  0.7625460207605883  1.0000
  C   C25       1.0  0.8468756347596909  0.3615933603079  0.1019227699220764  1.0000
  C   C26       1.0  0.3468763052444785  0.6384079815001584  0.898078360929283  1.0000
  C   C27       1.0  0.4826656513273307  0.1044579553087743  0.0761704251174322  1.0000
  C   C28       1.0  0.9826678566083162  0.8955399210859127  0.9238282392949344  1.0000
  C   C29       1.0  0.5219687421267878  0.18399439034408258  0.689261976105577  1.0000
  C   C30       1.0  0.021969412611582608  0.8160043524039438  0.3107383063184983  1.0000
  C   C31       1.0  0.440945479396902  0.2714007791499569  0.7402970892509018  1.0000
  C   C32       1.0  0.9409462467950007  0.7285970972447231  0.2597030772644047  1.0000
  C   C33       1.0  0.44140560192034434  0.2603686356763362  0.8082322826408941  1.0000
  C   C34       1.0  0.9414049314355568  0.7396309734250365  0.19176861639293463  1.0000
  C   C35       1.0  0.5212196051433082  0.1610620173468433  0.8244609449113512  1.0000
  C   C36       1.0  0.021217399862330007  0.8389375917545293  0.1755394534215  1.0000
  C   C37       1.0  0.6022960695399675  0.0742204909208013  0.7727042883206252  1.0000
  C   C38       1.0  0.1022953021418758  0.9257799845339177  0.2272962259209876  1.0000
  C   C39       1.0  0.6034420621999247  0.0851495383465704  0.7048419230569821  1.0000
  C   C40       1.0  0.1034398569189392  0.914849204401456  0.2951588600680779  1.0000
  C   C41       1.0  0.8341676258153117  0.40086515735983846  0.7076786167738123  1.0000
  C   C42       1.0  0.33416829630009914  0.5991353180948735  0.2923218974678008  1.0000
  C   C43       1.0  0.7593373246744051  0.49573518021827573  0.7551148475473328  1.0000
  C   C44       1.0  0.2593365572763133  0.5042635625297507  0.2448854348767497  1.0000
  C   C45       1.0  0.779180108497947  0.5008102781033443  0.8252921387288695  1.0000
  C   C46       1.0  0.2791779032169615  0.4991910637047141  0.17470749001955  1.0000
  C   C47       1.0  0.8689600780021323  0.4096179251872343  0.8472243676747127  1.0000
  C   C48       1.0  0.36896074848692  0.5903825502674778  0.1527766472678849  1.0000
  C   C49       1.0  0.9477934450970055  0.3165759078831698  0.7988450416745536  1.0000
  C   C50       1.0  0.4477955534646797  0.683423701218203  0.20115585735927508  1.0000
  C   C51       1.0  0.932817894841776  0.3120362163642625  0.7290252823722057  1.0000
  C   C52       1.0  0.4328185653265635  0.687962526383771  0.2709760014538318  1.0000
  C   C53       1.0  0.5154594463029412  0.1443691211280722  0.895907766976265  1.0000
  C   C54       1.0  0.0154601167877289  0.8556330870333255  0.10409247838190792  1.0000
  C   C55       1.0  0.8758532885564849  0.4032987439011819  0.920610353112103  1.0000
  C   C56       1.0  0.375855396924159  0.5967034642602229  0.0793903929470474  1.0000
  S   S1        1.0  0.8232814144871983  0.2835184633627392  0.3910555974026266  1.0000
  S   S2        1.0  0.3232849607377588  0.7164820120919728  0.608943915437024  1.0000
  S   S3        1.0  0.5586879573805348  0.09707489211714199  0.3750394501130502  1.0000
  S   S4        1.0  0.058690065748209  0.9029238506308843  0.6249588295071078  1.0000
  S   S5        1.0  0.5248804549704644  0.201467870925164  0.6030587827137524  1.0000
  S   S6        1.0  0.024879687572365604  0.7985308718228623  0.3969409990093453  1.0000
  S   S7        1.0  0.7924690221281665  0.385460528562561  0.6179574186501001  1.0000
  S   S8        1.0  0.2924668168471882  0.6145382141854654  0.38204336447495996  1.0000
  N   N1        1.0  0.7707052267692518  0.1513597262551869  0.3873898002995802  1.0000
  N   N2        1.0  0.270707335136926  0.8486398828461857  0.6126095966313088  1.0000
  N   N3        1.0  0.7307780947973725  0.2532402803676348  0.59048407297783  1.0000
  N   N4        1.0  0.23077732739927376  0.7467584623803916  0.40951671014722985  1.0000
  O   O1        1.0  0.021250471168698905  0.2966497809871882  0.4152197969226563  1.0000
  O   O2        1.0  0.5212526764496843  0.7033498281141775  0.5847806014101948  1.0000
  O   O3        1.0  0.6861620267350119  0.36741525477489734  0.428833761764146  1.0000
  O   O4        1.0  0.1861655729855727  0.6325834879731289  0.5711655192579741  1.0000
  O   O5        1.0  0.5737023304736795  0.9780262892551691  0.382038072697533  1.0000
  O   O6        1.0  0.07370300095846723  0.0219733198462038  0.6179603228313937  1.0000
  O   O7        1.0  0.4080452810877446  0.1680352954070941  0.4143038685511868  1.0000
  O   O8        1.0  0.9080489242516167  0.8319634473409394  0.5856959131719109  1.0000
  O   O9        1.0  0.7911476077561517  0.45450109284374923  0.08872144230027598  1.0000
  O   O10       1.0  0.2911468403580599  0.5455002489643093  0.9112791878501056  1.0000
  O   O11       1.0  0.9211595404040054  0.2746470051273135  0.0561760218772989  1.0000
  O   O12       1.0  0.4211602108887931  0.7253534703273985  0.9438249930652988  1.0000
  O   O13       1.0  0.42075329003212414  0.1944945928649204  0.0609201450743129  1.0000
  O   O14       1.0  0.9207540574302231  0.8055024171764202  0.9390779027283003  1.0000
  O   O15       1.0  0.5528142057921883  0.0147583292031754  0.031553416343165  1.0000
  O   O16       1.0  0.05281200051121002  0.9852386808381652  0.9684456328614105  1.0000
  O   O17       1.0  0.5185221368496187  0.0864300085879748  0.5586438190325183  1.0000
  O   O18       1.0  0.0185213694515198  0.9135687341600516  0.4413569640925417  1.0000
  O   O19       1.0  0.3643077594685948  0.2781210820339624  0.5977378518884892  1.0000
  O   O20       1.0  0.8643085268666866  0.721877660714064  0.40226142913362395  1.0000
  O   O21       1.0  0.9776065088504282  0.396762974279298  0.585709800772598  1.0000
  O   O22       1.0  0.4776071793352159  0.6032357684687284  0.414290982352462  1.0000
  O   O23       1.0  0.6468963208905836  0.47038134962649986  0.6108150065629232  1.0000
  O   O24       1.0  0.1468955534924916  0.5296173931215264  0.3891842744591969  1.0000
  O   O25       1.0  0.5656760682053488  0.050567311941932806  0.9094335985196266  1.0000
  O   O26       1.0  0.065678176573023  0.9494305644527543  0.09056656799567976  1.0000
  O   O27       1.0  0.4504038730194537  0.2342359534289287  0.9415896055860316  1.0000
  O   O28       1.0  0.9504017646517797  0.7657645220257833  0.05841040795459661  1.0000
  O   O29       1.0  0.9471205159064697  0.3166755385176501  0.937060353958799  1.0000
  O   O30       1.0  0.44712406215703043  0.6833258032904084  0.062941277593545  1.0000
  O   O31       1.0  0.7987770143480122  0.4916399279644779  0.9645934839514466  1.0000
  O   O32       1.0  0.2987776848328068  0.5083614138435806  0.035407646899919584  1.0000
