data_image0
_chemical_formula_structural       Zn4H24C16S8N32
_chemical_formula_sum              "Zn4 H24 C16 S8 N32"
_cell_length_a       10.028863804482144
_cell_length_b       10.028830013872863
_cell_length_c       12.11468407903466
_cell_angle_alpha    67.75113386569598
_cell_angle_beta     67.75091172823824
_cell_angle_gamma    84.72605383587499

_space_group_name_H-M_alt    "P 1"
_space_group_IT_number       1

loop_
  _space_group_symop_operation_xyz
  'x, y, z'

loop_
  _atom_site_type_symbol
  _atom_site_label
  _atom_site_symmetry_multiplicity
  _atom_site_fract_x
  _atom_site_fract_y
  _atom_site_fract_z
  _atom_site_occupancy
  Zn  Zn1       1.0  0.33965611807697366  0.9676541328371615  0.6718582651857048  1.0000
  Zn  Zn2       1.0  0.03234552513273311  0.6603423915055445  0.8281431154425007  1.0000
  Zn  Zn3       1.0  0.6603417339917002  0.032343982090054624  0.32814416655377704  1.0000
  Zn  Zn4       1.0  0.967653402947917  0.33965572290014034  0.1718573278087945  1.0000
  H   H1        1.0  0.24215338128455235  0.511688801217794  0.4003280542691173  1.0000
  H   H2        1.0  0.4883139506065248  0.7578467650181366  0.09967024654407912  1.0000
  H   H3        1.0  0.7578512548898358  0.48831471525647907  0.5996705523821717  1.0000
  H   H4        1.0  0.5116892196196687  0.24215027008500573  0.9003250766583762  1.0000
  H   H5        1.0  0.35694267250331535  0.5021691038862314  0.4860016710042531  1.0000
  H   H6        1.0  0.49783501217560655  0.6430589382507039  0.013994665523569039  1.0000
  H   H7        1.0  0.6430618983386935  0.4978333319282628  0.5139956444841829  1.0000
  H   H8        1.0  0.5021682226969517  0.35693917682355203  0.9860011238283803  1.0000
  H   H9        1.0  0.2116334518959491  0.37003240504915175  0.5537363384335237  1.0000
  H   H10       1.0  0.6299728354324401  0.7883673839589066  0.9462624371951239  1.0000
  H   H11       1.0  0.7883692213915764  0.6299743475608182  0.4462618685491153  1.0000
  H   H12       1.0  0.3700293227421412  0.2116307309482082  0.05373451563165332  1.0000
  H   H13       1.0  0.23843744060315689  0.9402680815367436  0.23321273580243934  1.0000
  H   H14       1.0  0.05973028969454221  0.7615643106358976  0.2667873088685583  1.0000
  H   H15       1.0  0.7615628867213076  0.059735432202963096  0.7667880497081186  1.0000
  H   H16       1.0  0.9402666754992522  0.23843703990549867  0.73321273471408  1.0000
  H   H17       1.0  0.3357328851103317  0.0203590927803816  0.2925596720171698  1.0000
  H   H18       1.0  0.9796406145949277  0.6642680116764552  0.2074422954857058  1.0000
  H   H19       1.0  0.6642662369094197  0.979642261538629  0.7074421696826009  1.0000
  H   H20       1.0  0.0203585074248309  0.3357333426425556  0.7925595462140649  1.0000
  H   H21       1.0  0.1603139091546737  0.07765498625325051  0.29550834879209736  1.0000
  H   H22       1.0  0.9223460713683165  0.8396865282384101  0.20449133246069806  1.0000
  H   H23       1.0  0.8396863548954271  0.9223474488926802  0.7044936205956845  1.0000
  H   H24       1.0  0.07765285671232647  0.1603115861672819  0.7955091107905973  1.0000
  C   C1        1.0  0.4679177910295706  0.24395366894252393  0.4412528329238158  1.0000
  C   C2        1.0  0.7560462806505228  0.5320808134728098  0.058747486266362565  1.0000
  C   C3        1.0  0.532080189645839  0.7560466052382397  0.5587497061012954  1.0000
  C   C4        1.0  0.24395366016774034  0.467916221817582  0.9412521523739628  1.0000
  C   C5        1.0  0.2935774747683197  0.43950643793414923  0.4638648743095502  1.0000
  C   C6        1.0  0.5604973131915257  0.7064225478018713  0.03613372761083877  1.0000
  C   C7        1.0  0.7064250705984774  0.5604981561109456  0.5361340504008254  1.0000
  C   C8        1.0  0.43950478033669055  0.29357448713413  0.9638627590664515  1.0000
  C   C9        1.0  0.14529226977293058  0.8791795003300535  0.5467424324820058  1.0000
  C   C10       1.0  0.12082224496162298  0.8547048248182707  0.9532572999410007  1.0000
  C   C11       1.0  0.8547068508748268  0.12082185261162691  0.45325775919103956  1.0000
  C   C12       1.0  0.8791766838050277  0.14529329027608642  0.046743968323646475  1.0000
  C   C13       1.0  0.2288230568545089  0.985472727149002  0.3049338023002264  1.0000
  C   C14       1.0  0.014524912397078496  0.771175623956637  0.1950700228396017  1.0000
  C   C15       1.0  0.7711749877812648  0.014528626314202603  0.6950683778610129  1.0000
  C   C16       1.0  0.9854730682783311  0.2288246502241266  0.8049325161855096  1.0000
  S   S1        1.0  0.47653438506679896  0.18377055378771706  0.5906250682675137  1.0000
  S   S2        1.0  0.8162293063304629  0.5234651514413927  0.9093740680328893  1.0000
  S   S3        1.0  0.5234634670018748  0.8162275611394991  0.4093773634719754  1.0000
  S   S4        1.0  0.18377171187177768  0.47653188470480495  0.09062523214595337  1.0000
  S   S5        1.0  0.17941308477736578  0.030108384196481108  0.5672001675770632  1.0000
  S   S6        1.0  0.969891013880286  0.8205835516179011  0.9328027900051765  1.0000
  S   S7        1.0  0.8205869860196343  0.9698908117247955  0.43280122837560264  1.0000
  S   S8        1.0  0.030107914886365  0.17941456347645618  0.0671984782594777  1.0000
  N   N1        1.0  0.3865332133471354  0.3517150571842222  0.39802233378038926  1.0000
  N   N2        1.0  0.6482874579416702  0.613468567365743  0.1019757394110243  1.0000
  N   N3        1.0  0.6134690761781839  0.6482852197311076  0.6019780263854531  1.0000
  N   N4        1.0  0.3517126087393194  0.3865306244235215  0.8980207064614876  1.0000
  N   N5        1.0  0.40314448762969585  0.3711252840417886  0.2766759264668224  1.0000
  N   N6        1.0  0.6288761866770756  0.5968578016793274  0.22332232056722762  1.0000
  N   N7        1.0  0.5968556478136691  0.6288749918505945  0.7233259356353372  1.0000
  N   N8        1.0  0.37112394465028586  0.40314247008105053  0.7766745914547712  1.0000
  N   N9        1.0  0.4924885667763519  0.27870405743857424  0.2441178697270204  1.0000
  N   N10       1.0  0.7212958824410264  0.5075124439796144  0.2558817177367416  1.0000
  N   N11       1.0  0.5075092859783225  0.7212940581773067  0.7558853870258349  1.0000
  N   N12       1.0  0.2787020954903738  0.4924878274464748  0.7441175212349266  1.0000
  N   N13       1.0  0.5353620743569962  0.19918292542311633  0.34280577941413526  1.0000
  N   N14       1.0  0.8008173520717036  0.4646369295794558  0.15719408496318732  1.0000
  N   N15       1.0  0.464635714437307  0.8008141109103236  0.6571978362025777  1.0000
  N   N16       1.0  0.19918366681653046  0.5353601072554144  0.8428060402290215  1.0000
  N   N17       1.0  0.16504366717472146  0.8737454090416608  0.4313191326976166  1.0000
  N   N18       1.0  0.12625464944208184  0.834952996356222  0.06868446957612664  1.0000
  N   N19       1.0  0.8349555181194004  0.1262570238711263  0.5686815251249231  1.0000
  N   N20       1.0  0.8737420612822433  0.16504403843274673  0.93131865948871  1.0000
  N   N21       1.0  0.1191582777295253  0.7417312319222022  0.44883811711411425  1.0000
  N   N22       1.0  0.25826997647754973  0.8808405949876105  0.05116178055349965  1.0000
  N   N23       1.0  0.8808398294946116  0.25827119944610644  0.5511620541565422  1.0000
  N   N24       1.0  0.7417279388654876  0.11915859853337452  0.9488394673087586  1.0000
  N   N25       1.0  0.0729640771360494  0.6663014650712569  0.5710338608905161  1.0000
  N   N26       1.0  0.33370013862739256  0.9270350085166399  0.9289658327355003  1.0000
  N   N27       1.0  0.9270351074720722  0.3337009671528578  0.42896597191866453  1.0000
  N   N28       1.0  0.6662988534136217  0.07296418517149313  0.07103425165192337  1.0000
  N   N29       1.0  0.0870424578253051  0.7474924786740546  0.6343726878652449  1.0000
  N   N30       1.0  0.25250893078182907  0.9129555859943111  0.8656275292293715  1.0000
  N   N31       1.0  0.9129577408924231  0.2525088758120972  0.36562799035968424  1.0000
  N   N32       1.0  0.7474899333384568  0.08704144912893953  0.13437327288578885  1.0000
