data_image0
_chemical_formula_structural       Ho2P2H34C18N6O22
_chemical_formula_sum              "Ho2 P2 H34 C18 N6 O22"
_cell_length_a       6.810498617056421
_cell_length_b       8.587155931059547
_cell_length_c       14.204512310320315
_cell_angle_alpha    90.00041158515823
_cell_angle_beta     92.79391614074322
_cell_angle_gamma    90.00009119740153

_space_group_name_H-M_alt    "P 1"
_space_group_IT_number       1

loop_
  _space_group_symop_operation_xyz
  'x, y, z'

loop_
  _atom_site_type_symbol
  _atom_site_label
  _atom_site_symmetry_multiplicity
  _atom_site_fract_x
  _atom_site_fract_y
  _atom_site_fract_z
  _atom_site_occupancy
  Ho  Ho1       1.0  0.7538422994786983  0.7656811657582024  0.9706784721262947  1.0000
  Ho  Ho2       1.0  0.24615763651092945  0.2656831721136824  0.029321111056482597  1.0000
  P   P1        1.0  0.2630872127178278  0.8399072333447605  0.05799001899055869  1.0000
  P   P2        1.0  0.7369173191577473  0.33990322688170943  0.9420092949405968  1.0000
  H   H1        1.0  0.6566265172670923  0.0832796341343425  0.0323643314685711  1.0000
  H   H2        1.0  0.34337739063047923  0.5832805677356916  0.9676324445340894  1.0000
  H   H3        1.0  0.8467143343154148  0.04075731017592689  0.09405123966498508  1.0000
  H   H4        1.0  0.1532865223456454  0.5407537781312043  0.9059466850404333  1.0000
  H   H5        1.0  0.8710400603623398  0.6072839715446889  0.14600634307765148  1.0000
  H   H6        1.0  0.12896827042415282  0.1072863053548332  0.854000501370322  1.0000
  H   H7        1.0  0.6414662416458369  0.5932861229806363  0.13687230522560867  1.0000
  H   H8        1.0  0.3585435314088698  0.09327720936148148  0.8631331056509237  1.0000
  H   H9        1.0  0.4765864835587549  0.016469192798233192  0.2147368180168669  1.0000
  H   H10       1.0  0.523411340227561  0.5164681881000349  0.7852679670841596  1.0000
  H   H11       1.0  0.6028037485263339  0.8673176814235789  0.1747640350565902  1.0000
  H   H12       1.0  0.3971964272827221  0.3673141892795684  0.8252381074519235  1.0000
  H   H13       1.0  0.18423585792995567  0.8752865759787553  0.2219579418399888  1.0000
  H   H14       1.0  0.8157628806219889  0.3752830511769787  0.7780413841303115  1.0000
  H   H15       1.0  0.3132778341257421  0.6962365867888849  0.20479129081535768  1.0000
  H   H16       1.0  0.6867160575693347  0.1962342676396958  0.7952064349445607  1.0000
  H   H17       1.0  0.5752710489335017  0.7245494735200992  0.3176840764536379  1.0000
  H   H18       1.0  0.4247229090318143  0.2245513063401461  0.6823144779176147  1.0000
  H   H19       1.0  0.7612567662118648  0.051967258070469285  0.3300968017238688  1.0000
  H   H20       1.0  0.23873969788815694  0.551970347424465  0.6699031763086865  1.0000
  H   H21       1.0  0.8690559684352122  0.880682646527667  0.28457881620123254  1.0000
  H   H22       1.0  0.13094131001265202  0.380685666569306  0.7154212015284783  1.0000
  H   H23       1.0  0.826455975910065  0.8944445943562942  0.406641519250229  1.0000
  H   H24       1.0  0.1735457498527424  0.3944450543139197  0.5933579629735632  1.0000
  H   H25       1.0  0.4142660634762406  0.14575489994473395  0.34938817780492576  1.0000
  H   H26       1.0  0.5857291676272921  0.6457547041121497  0.6506107694418334  1.0000
  H   H27       1.0  0.1810498667079585  0.22289391211351975  0.466855633726361  1.0000
  H   H28       1.0  0.818941147058261  0.7228949446550105  0.5331428414728379  1.0000
  H   H29       1.0  0.05714954782555989  0.027095104861260197  0.5802710964895041  1.0000
  H   H30       1.0  0.9428483384477032  0.5270972760713091  0.41972599226271967  1.0000
  H   H31       1.0  0.16426064003547944  0.7515468436474322  0.5697890961931262  1.0000
  H   H32       1.0  0.8357407378961454  0.2515450368455276  0.4302090528336038  1.0000
  H   H33       1.0  0.3885687242750961  0.6697892611348876  0.4457403592502587  1.0000
  H   H34       1.0  0.6114339095994907  0.16978980892950798  0.5542602813813673  1.0000
  C   C1        1.0  0.30488862102768616  0.8199875711771937  0.1860570913883208  1.0000
  C   C2        1.0  0.6951085115777429  0.31998548504701313  0.8139419551286267  1.0000
  C   C3        1.0  0.5642115574993056  0.8522623044960508  0.3187403156707731  1.0000
  C   C4        1.0  0.43578712448434226  0.3522653032550807  0.6812589089234109  1.0000
  C   C5        1.0  0.7671509074192354  0.9245670328191622  0.33596634363082956  1.0000
  C   C6        1.0  0.23284794892779098  0.42456957120862165  0.6640339032885337  1.0000
  C   C7        1.0  0.4169517284900337  0.9013685271044166  0.38912043841099114  1.0000
  C   C8        1.0  0.583051474432679  0.40136971137534516  0.6108812220125228  1.0000
  C   C9        1.0  0.3580841353493013  0.057175172814872596  0.3959753962794892  1.0000
  C   C10       1.0  0.6419152816775053  0.5571779882772177  0.6040246765660271  1.0000
  C   C11       1.0  0.2264968636135976  0.10146954926030108  0.463253147678607  1.0000
  C   C12       1.0  0.7735011921896415  0.6014717318232454  0.5367470842818634  1.0000
  C   C13       1.0  0.15644016854117376  0.9919696037485723  0.5260973492140266  1.0000
  C   C14       1.0  0.8435618001733756  0.4919718191581738  0.47390185855555694  1.0000
  C   C15       1.0  0.21588546223075164  0.8367750314298662  0.5199393397521916  1.0000
  C   C16       1.0  0.7841190619544492  0.3367760804823732  0.4800599603970142  1.0000
  C   C17       1.0  0.34289439935378135  0.7911623931131898  0.45078894256882057  1.0000
  C   C18       1.0  0.6571129462661032  0.2911629385507196  0.5492116364428554  1.0000
  N   N1        1.0  0.49241811329317636  0.8963868740336662  0.21963139995155956  1.0000
  N   N2        1.0  0.5075792004330637  0.3963864819211054  0.7803693908489109  1.0000
  N   N3        1.0  0.0320217111591461  0.7990132960518394  0.8158579364130032  1.0000
  N   N4        1.0  0.9679797635734386  0.2990145570468457  0.18414464518090057  1.0000
  N   N5        1.0  0.5550760289961829  0.8739754388230309  0.7918790649081942  1.0000
  N   N6        1.0  0.4449109524397628  0.3739821477070748  0.2081185599464774  1.0000
  O   O1        1.0  0.427663858411833  0.7479080336447054  0.011613052403291099  1.0000
  O   O2        1.0  0.5723389674175222  0.2479066994027335  0.9883879322307293  1.0000
  O   O3        1.0  0.060715353080041695  0.7694680600407153  0.0370128586803915  1.0000
  O   O4        1.0  0.939290518754774  0.26945989960067607  0.9629770299995357  1.0000
  O   O5        1.0  0.2781129434419469  0.013305155616336595  0.0380661916774514  1.0000
  O   O6        1.0  0.7219010399736446  0.5133006761294465  0.9619396787441729  1.0000
  O   O7        1.0  0.9543371741199635  0.9178404143089907  0.8551064738844687  1.0000
  O   O8        1.0  0.04566898626301  0.41784237560872833  0.1449002584148289  1.0000
  O   O9        1.0  0.9804759944620683  0.6654250310149975  0.8473145222049965  1.0000
  O   O10       1.0  0.019519268444135197  0.16542588731387298  0.15268803127707284  1.0000
  O   O11       1.0  0.14688870068632545  0.8130432451872095  0.7518921951118072  1.0000
  O   O12       1.0  0.8531083917138743  0.3130451208428651  0.24811174829168434  1.0000
  O   O13       1.0  0.5561011324158898  0.9652447343914119  0.8638161623884739  1.0000
  O   O14       1.0  0.44388754334800506  0.4652447652221595  0.13618190030803126  1.0000
  O   O15       1.0  0.5942742613446439  0.7304356221460607  0.8114896357076374  1.0000
  O   O16       1.0  0.40570355360573984  0.2304455423447962  0.1885057335725975  1.0000
  O   O17       1.0  0.5248107341776347  0.9209357709005983  0.7106273025007324  1.0000
  O   O18       1.0  0.47517782611161147  0.4209493053098753  0.2893719729501854  1.0000
  O   O19       1.0  0.7306059147668763  0.9920289287058138  0.0616754267449267  1.0000
  O   O20       1.0  0.2693960640091149  0.4920277826503748  0.9383216695107492  1.0000
  O   O21       1.0  0.7507622983491797  0.6699658230273258  0.135880185653555  1.0000
  O   O22       1.0  0.24925059995684506  0.16996260605413477  0.8641263387072937  1.0000
