data_image0
_chemical_formula_structural       Co2H16C16S4N12
_chemical_formula_sum              "Co2 H16 C16 S4 N12"
_cell_length_a       5.479687772372194
_cell_length_b       7.565821550666285
_cell_length_c       13.413421328537634
_cell_angle_alpha    102.16488197466234
_cell_angle_beta     89.99879312260826
_cell_angle_gamma    90.00088682747348

_space_group_name_H-M_alt    "P 1"
_space_group_IT_number       1

loop_
  _space_group_symop_operation_xyz
  'x, y, z'

loop_
  _atom_site_type_symbol
  _atom_site_label
  _atom_site_symmetry_multiplicity
  _atom_site_fract_x
  _atom_site_fract_y
  _atom_site_fract_z
  _atom_site_occupancy
  Co  Co1       1.0  1.7507340494699995e-05  0.4999812349352695  0.49999599621546054  1.0000
  Co  Co2       1.0  0.5000011159242206  1.7747808144000004e-05  2.2067615220000006e-06  1.0000
  H   H1        1.0  0.2760568703598807  0.15868335482907267  0.551568668036282  1.0000
  H   H2        1.0  0.7760759174872547  0.3413025502910044  0.9484272841678634  1.0000
  H   H3        1.0  0.7239676011907434  0.8412941104632381  0.44843861929410184  1.0000
  H   H4        1.0  0.2239266556214261  0.6586968159188231  0.05156631318860152  1.0000
  H   H5        1.0  0.5705432380165334  0.3661415220711177  0.6312014269138687  1.0000
  H   H6        1.0  0.0705606570171895  0.13387429519168142  0.8687940962890155  1.0000
  H   H7        1.0  0.4294465600351529  0.6338211682623155  0.36879806651000996  1.0000
  H   H8        1.0  0.9294510411011812  0.8661696761510242  0.13120577021238944  1.0000
  H   H9        1.0  0.6373423518325437  0.05553341401683549  0.7072056464538791  1.0000
  H   H10       1.0  0.1373804700986554  0.4444814436816245  0.7927906537083234  1.0000
  H   H11       1.0  0.36264379683907316  0.944434952817467  0.2927781477798917  1.0000
  H   H12       1.0  0.8626312280256769  0.5555611878195493  0.20720830132282236  1.0000
  H   H13       1.0  0.0706347184963079  0.9487070676665111  0.6501052038466427  1.0000
  H   H14       1.0  0.5706787929732543  0.5512939738118658  0.8498929924096787  1.0000
  H   H15       1.0  0.9293623793792064  0.05125839995618971  0.3498901601539047  1.0000
  H   H16       1.0  0.42935297905874154  0.44872835276410683  0.15010493919591286  1.0000
  C   C1        1.0  0.09435069257620647  0.17675581887216646  0.5834550959229645  1.0000
  C   C2        1.0  0.5943800032896434  0.3232451403677885  0.9165465762323921  1.0000
  C   C3        1.0  0.9056445801370925  0.823192023440086  0.41654106768166355  1.0000
  C   C4        1.0  0.4056207450598635  0.6767852373585513  0.08345608027924811  1.0000
  C   C5        1.0  0.7268559339478671  0.27761056097334363  0.6250247761407978  1.0000
  C   C6        1.0  0.22688438655119814  0.22240055515587193  0.8749851741486908  1.0000
  C   C7        1.0  0.27312838930435385  0.7223642001147751  0.3749821764959621  1.0000
  C   C8        1.0  0.7731218364759656  0.7776324534789154  0.125022281448274  1.0000
  C   C9        1.0  0.7567908945160937  0.1240765902502758  0.6632293229671833  1.0000
  C   C10       1.0  0.25682327570117985  0.3759322769518221  0.8367636799195497  1.0000
  C   C11       1.0  0.24317700476506585  0.8759185367640755  0.3367749328714283  1.0000
  C   C12       1.0  0.7431975469201506  0.6240887829360133  0.16322887600971112  1.0000
  C   C13       1.0  0.4632579302328709  0.3407331456303169  0.3990136192988914  1.0000
  C   C14       1.0  0.9632459621945486  0.1592659991331331  0.10098196703389563  1.0000
  C   C15       1.0  0.5367263931767425  0.6592484366447734  0.6009904502714889  1.0000
  C   C16       1.0  0.0366909140209373  0.8407631117399533  0.899015314016758  1.0000
  S   S1        1.0  0.7289364910573184  0.3113372521485118  0.3435995816962959  1.0000
  S   S2        1.0  0.2289220864032373  0.18863203768320605  0.15639439555700113  1.0000
  S   S3        1.0  0.271091630747371  0.6886364497870333  0.656389346331274  1.0000
  S   S4        1.0  0.7710969110420933  0.8113955750315043  0.8436116462322406  1.0000
  N   N1        1.0  0.9388222141749194  0.3092739228639729  0.5748602337890036  1.0000
  N   N2        1.0  0.4388491946751572  0.19073590937102128  0.925141704332745  1.0000
  N   N3        1.0  0.061180358629258094  0.6907010578437678  0.4251333260216442  1.0000
  N   N4        1.0  0.5611533783993606  0.8092795593331134  0.07486134258334692  1.0000
  N   N5        1.0  0.9891379900337894  0.06382735668511692  0.6363703485746441  1.0000
  N   N6        1.0  0.48915958998563264  0.4361814008551619  0.8636332447957857  1.0000
  N   N7        1.0  0.010857282901504598  0.9361380987339558  0.3636257594750917  1.0000
  N   N8        1.0  0.5108521078562163  0.563852984232021  0.13637289012385884  1.0000
  N   N9        1.0  0.27262243285112214  0.3775295266374954  0.43944410664757794  1.0000
  N   N10       1.0  0.7726060861422751  0.12245752690287053  0.06055689996003372  1.0000
  N   N11       1.0  0.7273564154374553  0.6224477921373578  0.56057210936968  1.0000
  N   N12       1.0  0.2273581639127115  0.8775635328084661  0.9394356561994217  1.0000
