data_image0
_chemical_formula_structural       Zn2H46C30N4O8
_chemical_formula_sum              "Zn2 H46 C30 N4 O8"
_cell_length_a       8.580131562339183
_cell_length_b       8.869985816053816
_cell_length_c       10.876352572171536
_cell_angle_alpha    93.34440882424651
_cell_angle_beta     92.58277244667724
_cell_angle_gamma    105.6766698452738

_space_group_name_H-M_alt    "P 1"
_space_group_IT_number       1

loop_
  _space_group_symop_operation_xyz
  'x, y, z'

loop_
  _atom_site_type_symbol
  _atom_site_label
  _atom_site_symmetry_multiplicity
  _atom_site_fract_x
  _atom_site_fract_y
  _atom_site_fract_z
  _atom_site_occupancy
  Zn  Zn1       1.0  0.9916943882052038  0.9509530069417098  0.6252235904089362  1.0000
  Zn  Zn2       1.0  0.008302551955957005  0.04905041764013161  0.3747766853278662  1.0000
  H   H1        1.0  0.12309606501550256  0.7025412519264195  0.7622916680555818  1.0000
  H   H2        1.0  0.8769111953794989  0.2974574780787691  0.23771246880865252  1.0000
  H   H3        1.0  0.2230733145104153  0.8769447730685017  0.8526828703562047  1.0000
  H   H4        1.0  0.7769316159096389  0.12305389805455039  0.14731290268647262  1.0000
  H   H5        1.0  0.13023377092265062  0.7305038479771685  0.029621127893776127  1.0000
  H   H6        1.0  0.8697771696305878  0.26950777560268346  0.9703809335663466  1.0000
  H   H7        1.0  0.9849996338590543  0.5833478454816544  0.9342907271410116  1.0000
  H   H8        1.0  0.015012959375468416  0.41665321485879764  0.06571278664524981  1.0000
  H   H9        1.0  0.7749869341340625  0.0307212183835475  0.8062269090004863  1.0000
  H   H10       1.0  0.2250133227393292  0.9692692466024158  0.1937692624612382  1.0000
  H   H11       1.0  0.7096884054164859  0.9730699503927132  0.9555332188415167  1.0000
  H   H12       1.0  0.2903088506351637  0.026918171767292203  0.044462742124473216  1.0000
  H   H13       1.0  0.6365119610884236  0.845598327373928  0.8210903156188609  1.0000
  H   H14       1.0  0.3634929600248141  0.15439210549335766  0.17890326895594202  1.0000
  H   H15       1.0  0.7681451193803001  0.8585687370465609  0.10759699484369634  1.0000
  H   H16       1.0  0.2318611385237404  0.14142643500315444  0.8924023568280576  1.0000
  H   H17       1.0  0.9190794625788143  0.780739614236417  0.16973178789523055  1.0000
  H   H18       1.0  0.0809242918105397  0.21925084985670654  0.8302654325547538  1.0000
  H   H19       1.0  0.6596228940046984  0.5957524819581155  0.18740079861736095  1.0000
  H   H20       1.0  0.34037470667503555  0.4042450239981933  0.8125937340233663  1.0000
  H   H21       1.0  0.763947203173302  0.5105240702678486  0.07992443480921452  1.0000
  H   H22       1.0  0.2360478935831765  0.48946874200643736  0.9200698060887903  1.0000
  H   H23       1.0  0.5003866390171936  0.6732990720358104  0.014650799381378522  1.0000
  H   H24       1.0  0.49961179306515635  0.3266972571541161  0.9853437141773044  1.0000
  H   H25       1.0  0.6068878933988059  0.5922356689800665  0.9055447778097517  1.0000
  H   H26       1.0  0.39310887649114784  0.4077629923307812  0.09444701469443123  1.0000
  H   H27       1.0  0.44727107541560684  0.38431892082403624  0.6156815837890052  1.0000
  H   H28       1.0  0.5527305362493776  0.6156927812677394  0.38432749092400803  1.0000
  H   H29       1.0  0.5954682697452114  0.19425151234233345  0.43428482034597243  1.0000
  H   H30       1.0  0.4045265001796921  0.8057484211962987  0.5657189047711598  1.0000
  H   H31       1.0  0.5020920861431007  0.34178008059183906  0.3975707309965132  1.0000
  H   H32       1.0  0.49790018998250213  0.6582233689713918  0.6024312118876838  1.0000
  H   H33       1.0  0.7131261117912402  0.5422991081434391  0.5306712171578101  1.0000
  H   H34       1.0  0.2868716593639816  0.4577031539465892  0.4693308789760026  1.0000
  H   H35       1.0  0.806426952144008  0.44682276768961776  0.4209535355159133  1.0000
  H   H36       1.0  0.19356765661223108  0.5531806479710681  0.5790448145760082  1.0000
  H   H37       1.0  0.9400858564383439  0.48452587369978084  0.6330217648678627  1.0000
  H   H38       1.0  0.05991224942528112  0.515477555342642  0.3669794736913802  1.0000
  H   H39       1.0  0.8006018976806358  0.3176342274434845  0.7966237980683817  1.0000
  H   H40       1.0  0.19939919969791478  0.6823633061691298  0.20337546251870722  1.0000
  H   H41       1.0  0.7055567115000655  0.46319841025808023  0.7544244652747454  1.0000
  H   H42       1.0  0.2944440495358122  0.536798013500409  0.24558301080311654  1.0000
  H   H43       1.0  0.49703174410549167  0.20686115439111322  0.7716610296753146  1.0000
  H   H44       1.0  0.5029688555574267  0.7931387586267111  0.22834199111686365  1.0000
  H   H45       1.0  0.5940667971685015  0.11345071422180553  0.6634895985946088  1.0000
  H   H46       1.0  0.40592848080027  0.8865550424809642  0.3365079560876936  1.0000
  C   C1        1.0  0.10569991486189421  0.7870582824413506  0.8344172532050609  1.0000
  C   C2        1.0  0.8943041831341245  0.2129416011345029  0.16558313761728274  1.0000
  C   C3        1.0  0.039393330450806736  0.7109309212179157  0.9516870885525393  1.0000
  C   C4        1.0  0.9606126018473585  0.2890713292724456  0.048316228901200006  1.0000
  C   C5        1.0  0.881387823131817  0.8618507952697884  0.8786932971806181  1.0000
  C   C6        1.0  0.11861509944635168  0.13814085986430064  0.12130578183045061  1.0000
  C   C7        1.0  0.7432070555177788  0.9329689567652084  0.8659037121709476  1.0000
  C   C8        1.0  0.2567966992801444  0.0670214930533533  0.1340916687999893  1.0000
  C   C9        1.0  0.8279835339058933  0.7649207586427166  0.09235307397863583  1.0000
  C   C10       1.0  0.1720192264821847  0.23507441429983095  0.9076452287048513  1.0000
  C   C11       1.0  0.7037450221464779  0.6048944217839961  0.09384587024040772  1.0000
  C   C12       1.0  0.29625340993587196  0.3951019074059233  0.9061486433182822  1.0000
  C   C13       1.0  0.561530042982696  0.5797864256389931  0.9986893763455883  1.0000
  C   C14       1.0  0.43847022462750823  0.4202122276417413  0.0013025454073343076  1.0000
  C   C15       1.0  0.30430117363204795  0.15929707827448425  0.5549027334567569  1.0000
  C   C16       1.0  0.6956917816257614  0.8407169291747394  0.4450978432671278  1.0000
  C   C17       1.0  0.4729293426545667  0.27270913900723315  0.5844416685427944  1.0000
  C   C18       1.0  0.527066105993974  0.727301366691961  0.4155625298930731  1.0000
  C   C19       1.0  0.573038073489073  0.3046193642434858  0.4707709178212767  1.0000
  C   C20       1.0  0.4269570315528028  0.6953817219729788  0.5292301102422385  1.0000
  C   C21       1.0  0.7345089081560443  0.428737153837929  0.5025231278438653  1.0000
  C   C22       1.0  0.2654876970924249  0.571265110928799  0.4974789252070338  1.0000
  C   C23       1.0  0.8326237157133675  0.3841009884281093  0.6089907700595775  1.0000
  C   C24       1.0  0.1673758911739824  0.6159035906154389  0.39100781452894756  1.0000
  C   C25       1.0  0.7305346388142908  0.3524679674234577  0.7217034424942312  1.0000
  C   C26       1.0  0.269465961461485  0.6475319241825165  0.2782968190793725  1.0000
  C   C27       1.0  0.5698554028647891  0.2263186241245734  0.6905536815218981  1.0000
  C   C28       1.0  0.43014086828812015  0.7736824522779031  0.3094464698850033  1.0000
  C   C29       1.0  0.9010340227798536  0.2465836323599504  0.5714059803766888  1.0000
  C   C30       1.0  0.0989649146906757  0.753418612778802  0.42859431936098963  1.0000
  N   N1        1.0  0.982217171361597  0.8630349648030845  0.7915065833567001  1.0000
  N   N2        1.0  0.017787586540130497  0.13695902155909323  0.2084908235881429  1.0000
  N   N3        1.0  0.9131528219938259  0.7888594547387414  0.9794356075707072  1.0000
  N   N4        1.0  0.08684877228322561  0.21113572801780126  0.020563571769393708  1.0000
  O   O1        1.0  0.2341511534189351  0.08432756154035562  0.642414295699851  1.0000
  O   O2        1.0  0.765847113613361  0.915672385380013  0.3575923178846027  1.0000
  O   O3        1.0  0.24349770629851963  0.15316380334571286  0.4451891925514816  1.0000
  O   O4        1.0  0.7564885948783483  0.8468597181566012  0.5548244131820539  1.0000
  O   O5        1.0  0.9324943200618987  0.23037682953445685  0.4593923377922664  1.0000
  O   O6        1.0  0.06749210709919139  0.7696101854499204  0.5406086916997026  1.0000
  O   O7        1.0  0.925277147277505  0.15959173313356703  0.6556087654185776  1.0000
  O   O8        1.0  0.07472563070280103  0.8404199520069258  0.3443985128983017  1.0000
