data_image0
_chemical_formula_structural       Cd4H36C76Br4N8O20
_chemical_formula_sum              "Cd4 H36 C76 Br4 N8 O20"
_cell_length_a       7.932694412
_cell_length_b       14.234445488225436
_cell_length_c       16.515
_cell_angle_alpha    113.88413892515916
_cell_angle_beta     90.0
_cell_angle_gamma    90.0

_space_group_name_H-M_alt    "P 1"
_space_group_IT_number       1

loop_
  _space_group_symop_operation_xyz
  'x, y, z'

loop_
  _atom_site_type_symbol
  _atom_site_label
  _atom_site_symmetry_multiplicity
  _atom_site_fract_x
  _atom_site_fract_y
  _atom_site_fract_z
  _atom_site_occupancy
  Cd  Cd1       1.0  0.4969206924241192  0.3416727773791309  0.39635992995786046  1.0000
  Cd  Cd2       1.0  0.9969185234259115  0.65832767999882  0.10364101681992112  1.0000
  Cd  Cd3       1.0  0.5030812726080853  0.658328448313874  0.6036412849445725  1.0000
  Cd  Cd4       1.0  0.0030809203948435992  0.34167200906407663  0.8963596618332161  1.0000
  H   H1        1.0  0.0586131238456176  0.6426225519981585  0.5904412376113726  1.0000
  H   H2        1.0  0.5586134760588592  0.35737713706473784  0.9095582300214887  1.0000
  H   H3        1.0  0.9413850593694093  0.3573779053797921  0.4095584981461329  1.0000
  H   H4        1.0  0.4413821859447182  0.6426225519981585  0.0904406321012274  1.0000
  H   H5        1.0  0.8626350196533963  0.8202508457572364  0.4518058356134418  1.0000
  H   H6        1.0  0.3626296250172487  0.1797511482508227  0.0481950419034973  1.0000
  H   H7        1.0  0.1373707271959859  0.1797557581411411  0.5481984671818125  1.0000
  H   H8        1.0  0.6373685581977782  0.8202470041819652  0.9518032839699161  1.0000
  H   H9        1.0  0.1924667610654964  0.5643481510172137  0.31785911309058434  1.0000
  H   H10       1.0  0.6924633314615605  0.4356515380456828  0.1821397490321246  1.0000
  H   H11       1.0  0.8075352039667081  0.4356538429908454  0.6821411589162097  1.0000
  H   H12       1.0  0.3075335911477453  0.5643473827021595  0.817858239455795  1.0000
  H   H13       1.0  0.3482158591438278  0.4456573049823618  0.6299500346482034  1.0000
  H   H14       1.0  0.8482162113570624  0.5543431523955888  0.87005030661944  1.0000
  H   H15       1.0  0.651787366494105  0.5543423840805346  0.370050644004941  1.0000
  H   H16       1.0  0.1517832324636856  0.4456573049823618  0.12994882362792035  1.0000
  H   H17       1.0  0.3623459887288547  0.3822743863608339  0.751552289082639  1.0000
  H   H18       1.0  0.862350122759274  0.6177253027020626  0.7484477840603603  1.0000
  H   H19       1.0  0.6376559763033498  0.6177253027020626  0.24844778406036028  1.0000
  H   H20       1.0  0.1376531028786587  0.3822736180457795  0.2515508099377044  1.0000
  H   H21       1.0  0.5020740486328492  0.2147148613727907  0.7240520549552586  1.0000
  H   H22       1.0  0.0020699146024299  0.7852855960051599  0.7759488918225304  1.0000
  H   H23       1.0  0.4979304376108118  0.7852855960051599  0.2759482863123851  1.0000
  H   H24       1.0  0.9979307898240535  0.2147125564276351  0.2240494340508903  1.0000
  H   H25       1.0  0.8484872415882023  0.9392643841143951  0.38275637896595066  1.0000
  H   H26       1.0  0.34848941058641  0.0607345366334542  0.1172452425828254  1.0000
  H   H27       1.0  0.1515109416268317  0.0607337683183999  0.6172419469074698  1.0000
  H   H28       1.0  0.6515112938400662  0.9392651524294424  0.8827548305601739  1.0000
  H   H29       1.0  0.8695897814448657  0.9764661989860741  0.2480017657878903  1.0000
  H   H30       1.0  0.3695881686259028  0.0235311851316595  0.2519993195115973  1.0000
  H   H31       1.0  0.1304096623758895  0.0235334900768223  0.7519977018449638  1.0000
  H   H32       1.0  0.630410014589124  0.9764677356161826  0.7480004855067578  1.0000
  H   H33       1.0  0.721918644860061  0.1266867007925896  0.24040759575780166  1.0000
  H   H34       1.0  0.2219157714353699  0.8733099150100969  0.25959201039675156  1.0000
  H   H35       1.0  0.2780858413836  0.8733145249004153  0.7595930136344933  1.0000
  H   H36       1.0  0.7780836723853852  0.1266874691076438  0.7404060473520175  1.0000
  C   C1        1.0  0.1357155518774817  0.5940888584081279  0.4540344986534421  1.0000
  C   C2        1.0  0.6357133828792669  0.4059100623397215  0.04596591187505082  1.0000
  C   C3        1.0  0.8642851525489945  0.4059139039149856  0.5459678580084244  1.0000
  C   C4        1.0  0.3642835397300317  0.5940888584081279  0.9540326821230212  1.0000
  C   C5        1.0  0.0487337567693515  0.6568540517269528  0.5306326574703705  1.0000
  C   C6        1.0  0.5487315877711367  0.3431456373359439  0.9693668101624838  1.0000
  C   C7        1.0  0.9512694688685812  0.34314871059615376  0.46936969919149624  1.0000
  C   C8        1.0  0.4512653348381619  0.6568540517269528  0.030632657470370417  1.0000
  C   C9        1.0  0.9499861722393064  0.7363738914089951  0.5280375440455743  1.0000
  C   C10       1.0  0.4499858200260647  0.2636257976539014  0.971962529097425  1.0000
  C   C11       1.0  0.0500170533986264  0.2636281025990641  0.47196515000179323  1.0000
  C   C12       1.0  0.5500136237946904  0.7363738914089951  0.02803693853542908  1.0000
  C   C13       1.0  0.9395244053175276  0.7572751341138542  0.4527188306855479  1.0000
  C   C14       1.0  0.4395215318928365  0.2427253232640965  0.04728151058209559  1.0000
  C   C15       1.0  0.0604800809261263  0.24272839652430636  0.5472843996111152  1.0000
  C   C16       1.0  0.5604741301107339  0.7572728291686985  0.9527174208014628  1.0000
  C   C17       1.0  0.0285716287844338  0.6946213464777318  0.37658522357250496  1.0000
  C   C18       1.0  0.5285694597862189  0.3053798792152733  0.1234153858197899  1.0000
  C   C19       1.0  0.971431596853499  0.3053821841604361  0.623416795703875  1.0000
  C   C20       1.0  0.4714299840345362  0.6946198098476233  0.8765834763029262  1.0000
  C   C21       1.0  0.1238797247141434  0.6123524755356513  0.3772824462888664  1.0000
  C   C22       1.0  0.6238788163216569  0.38764721352724524  0.12271762685413283  1.0000
  C   C23       1.0  0.8761222403180611  0.3876495184724078  0.622719642248363  1.0000
  C   C24       1.0  0.3761181062876418  0.6123509389055428  0.8772813045294258  1.0000
  C   C25       1.0  0.2483519341196043  0.5110363061118761  0.4567404019559121  1.0000
  C   C26       1.0  0.748352286332846  0.4889649195811288  0.043261418456665944  1.0000
  C   C27       1.0  0.7516475097011437  0.4889664562112373  0.5432625602161067  1.0000
  C   C28       1.0  0.2516471574879091  0.5110347694817676  0.9567380491761881  1.0000
  C   C29       1.0  0.0172236560371388  0.7126068335560305  0.29272914671898326  1.0000
  C   C30       1.0  0.517221487038924  0.2873936238219201  0.20727058903852222  1.0000
  C   C31       1.0  0.9827795696007939  0.2873959287670829  0.7072726044327453  1.0000
  C   C32       1.0  0.4827779567818311  0.712605296925922  0.7927292159798257  1.0000
  C   C33       1.0  0.4076269464141333  0.37253061485726857  0.6194525680917735  1.0000
  C   C34       1.0  0.9076285592330962  0.6274698425206823  0.88054777317587  1.0000
  C   C35       1.0  0.59237375801235  0.627469074205635  0.38054750505122575  1.0000
  C   C36       1.0  0.0923721451933801  0.37253061485726857  0.11945196258162842  1.0000
  C   C37       1.0  0.4177975134131486  0.33705827717013653  0.6869512082038227  1.0000
  C   C38       1.0  0.9177978656263903  0.6629414118927599  0.8130494704493219  1.0000
  C   C39       1.0  0.5822031910133276  0.6629406435777059  0.3130479913043872  1.0000
  C   C40       1.0  0.0822015781943648  0.3370590454851908  0.18695026530818382  1.0000
  C   C41       1.0  0.4956689109380008  0.24280599634467145  0.671755319134789  1.0000
  C   C42       1.0  0.995666741939786  0.7571944610332794  0.8282444166227166  1.0000
  C   C43       1.0  0.5043317934884826  0.7571929244031709  0.328243880373421  1.0000
  C   C44       1.0  0.0043327018809691  0.24280599634467145  0.1717541081145058  1.0000
  C   C45       1.0  0.5621696448124851  0.188116562549105  0.5878428117640129  1.0000
  C   C46       1.0  0.0621655107820658  0.8118838948288457  0.9121563184833478  1.0000
  C   C47       1.0  0.43782979900827  0.8118815898836829  0.41215551410940077  1.0000
  C   C48       1.0  0.93783141182724  0.188116562549105  0.08784220625387461  1.0000
  C   C49       1.0  0.6592060311928236  0.0890215919438759  0.5453717074907942  1.0000
  C   C50       1.0  0.1592018971624043  0.9109750238588106  0.9546327427448986  1.0000
  C   C51       1.0  0.3407934126279315  0.910976560488912  0.45462601287248117  1.0000
  C   C52       1.0  0.8407937648411732  0.0890223602589302  0.0453707645951553  1.0000
  C   C53       1.0  0.6986755964802924  0.078574812166714  0.4525979512669451  1.0000
  C   C54       1.0  0.198676504872779  0.9214248768961825  0.04740333289633723  1.0000
  C   C55       1.0  0.3013225867347344  0.9214225719510267  0.547400711991969  1.0000
  C   C56       1.0  0.8013254601594255  0.0785763487968225  0.9525966709858125  1.0000
  C   C57       1.0  0.7883223120936194  0.007879070869663  0.38187526161214447  1.0000
  C   C58       1.0  0.2883219598803848  0.9921198498781791  0.11812575442648665  1.0000
  C   C59       1.0  0.2116758711214075  0.9921198498781791  0.6181233323859203  1.0000
  C   C60       1.0  0.7116774839403703  0.0078783025546088  0.8818737824672171  1.0000
  C   C61       1.0  0.798316394290971  0.0276693300077255  0.30516308766583927  1.0000
  C   C62       1.0  0.2983173026834578  0.9723288224250696  0.19483705473800944  1.0000
  C   C63       1.0  0.2016830495297768  0.9723303590551781  0.6948339579264485  1.0000
  C   C64       1.0  0.7016834017430185  0.027668561692671303  0.8051640305614713  1.0000
  C   C65       1.0  0.7188515911281996  0.1129699721493793  0.3006997855038947  1.0000
  C   C66       1.0  0.2188512389149651  0.8870289485984628  0.19930001951446022  1.0000
  C   C67       1.0  0.2811503739040049  0.8870304852285713  0.6992993447434729  1.0000
  C   C68       1.0  0.7811494655115183  0.1129699721493793  0.8006991799937496  1.0000
  C   C69       1.0  0.6268147670579935  0.1631063709402056  0.44243543586684814  1.0000
  C   C70       1.0  0.1268131542390236  0.8368925498076436  0.057564369151499685  1.0000
  C   C71       1.0  0.3731859373684898  0.8368925498076436  0.5575643691514998  1.0000
  C   C72       1.0  0.8731862895817315  0.1631063709402056  0.9424342248465651  1.0000
  C   C73       1.0  0.5449308615066286  0.2303546825939407  0.5248875358485422  1.0000
  C   C74       1.0  0.04492924868766578  0.7696473114141187  0.9751121306481141  1.0000
  C   C75       1.0  0.4550673217083983  0.7696442381539016  0.4751110581495226  1.0000
  C   C76       1.0  0.9550689345273611  0.2303546825939407  0.024886930338396986  1.0000
  Br  Br1       1.0  0.8247311266778681  0.8171022906695811  0.6314155076754631  1.0000
  Br  Br2       1.0  0.3247307744646264  0.18289432513310547  0.8685840984790831  1.0000
  Br  Br3       1.0  0.1752670565371588  0.18289432513310547  0.36858652051965635  1.0000
  Br  Br4       1.0  0.6752686693561216  0.8171038272996896  0.13141241086390917  1.0000
  N   N1        1.0  0.4710001174818998  0.3186940107706562  0.5372993805629562  1.0000
  N   N2        1.0  0.9710004696951415  0.6813056782922474  0.9627019036003261  1.0000
  N   N3        1.0  0.5290005869445835  0.6813056782922474  0.4627012980901882  1.0000
  N   N4        1.0  0.0289989741256136  0.3186940107706562  0.03729816954267309  1.0000
  N   N5        1.0  0.6333056259422207  0.1819715787543146  0.37016701568538934  1.0000
  N   N6        1.0  0.133305273728979  0.8180273419935278  0.12983400035324885  1.0000
  N   N7        1.0  0.36669507848426247  0.8180296469386903  0.6298335937069055  1.0000
  N   N8        1.0  0.8666966913032255  0.18196927380915895  0.8701643947810214  1.0000
  O   O1        1.0  0.2714121946690682  0.43241693167207984  0.38434548862079515  1.0000
  O   O2        1.0  0.7714150680937664  0.567581220760708  0.1156558648033368  1.0000
  O   O3        1.0  0.7285872491516798  0.5675835257058708  0.6156566691772767  1.0000
  O   O4        1.0  0.2285843757269888  0.43241693167207984  0.884343672090367  1.0000
  O   O5        1.0  0.3169087159335291  0.5234061784669777  0.5298734364485612  1.0000
  O   O6        1.0  0.8169078075410425  0.4765950472260272  0.9701265674335887  1.0000
  O   O7        1.0  0.6830932490986754  0.4765958155410743  0.47012683555823304  1.0000
  O   O8        1.0  0.1830916362797126  0.5234046418368763  0.02987290019926547  1.0000
  O   O9        1.0  0.1050424933474687  0.6508212419299184  0.2272370006268787  1.0000
  O   O10       1.0  0.6050390637435257  0.3491776788179237  0.2727628043914692  1.0000
  O   O11       1.0  0.8949569504732864  0.349178447132978  0.7727642835364039  1.0000
  O   O12       1.0  0.3949578588657729  0.6508235468750742  0.7272365939805354  1.0000
  O   O13       1.0  0.923522276229086  0.7828677085330185  0.29039302363027275  1.0000
  O   O14       1.0  0.4235194028043949  0.21713198052988505  0.20960704951272652  1.0000
  O   O15       1.0  0.0764809494088468  0.2171335171599864  0.7096081912721602  1.0000
  O   O16       1.0  0.5764800410163602  0.7828669402179642  0.7903927555056286  1.0000
  O   O17       1.0  0.6979658754564397  0.0292758767837782  0.5788306088433688  1.0000
  O   O18       1.0  0.197965523243198  0.9707322637447007  0.9211687806098967  1.0000
  O   O19       1.0  0.3020348289700365  0.9707238122791182  0.4211676477692022  1.0000
  O   O20       1.0  0.8020389630004559  0.0292728035235683  0.0788295363447773  1.0000
