data_image0
_chemical_formula_structural       In4H20C16O28
_chemical_formula_sum              "In4 H20 C16 O28"
_cell_length_a       7.112847847713974
_cell_length_b       9.249180591756785
_cell_length_c       10.546350741177283
_cell_angle_alpha    89.99935328855356
_cell_angle_beta     89.99990172191961
_cell_angle_gamma    93.65696971433962

_space_group_name_H-M_alt    "P 1"
_space_group_IT_number       1

loop_
  _space_group_symop_operation_xyz
  'x, y, z'

loop_
  _atom_site_type_symbol
  _atom_site_label
  _atom_site_symmetry_multiplicity
  _atom_site_fract_x
  _atom_site_fract_y
  _atom_site_fract_z
  _atom_site_occupancy
  In  In1       1.0  0.32071242808586925  0.24994168248902326  0.20411658388807302  1.0000
  In  In2       1.0  0.6792869064551822  0.7500593793685937  0.7041134053452041  1.0000
  In  In3       1.0  0.5179545798599962  0.7326645176993835  0.0151558398051037  1.0000
  In  In4       1.0  0.48204049662506776  0.2673303572609384  0.5151548010645612  1.0000
  H   H1        1.0  0.16430424207025848  0.32245176521591645  0.9344002006678238  1.0000
  H   H2        1.0  0.8356962026227281  0.677552778963161  0.4343966821857208  1.0000
  H   H3        1.0  0.2295244978739461  0.16691626572236368  0.960013581658913  1.0000
  H   H4        1.0  0.7704872827522207  0.833090095930622  0.46001429218920714  1.0000
  H   H5        1.0  0.11587701417700198  0.6470325102840631  0.9794919504200194  1.0000
  H   H6        1.0  0.884120360811906  0.3529703633023474  0.47949537114210017  1.0000
  H   H7        1.0  0.23395424517138252  0.5840719220992553  0.8667110027810452  1.0000
  H   H8        1.0  0.7660389595554306  0.41592810034487115  0.36671203988991863  1.0000
  H   H9        1.0  0.995052704595551  0.0825674066943805  0.1840626972354542  1.0000
  H   H10       1.0  0.004945021770154832  0.9174306693996359  0.6840605280353103  1.0000
  H   H11       1.0  0.08880360548208438  0.38985610265928017  0.6410045863302757  1.0000
  H   H12       1.0  0.9111937025228299  0.6101522895627981  0.1410025953119316  1.0000
  H   H13       1.0  0.06805520100345319  0.8732521459574014  0.31298827988378974  1.0000
  H   H14       1.0  0.9319419584207155  0.12674315806648911  0.8129900145888271  1.0000
  H   H15       1.0  0.39172802572394966  0.8961652568594262  0.4105136609961662  1.0000
  H   H16       1.0  0.608279075288273  0.10383417461540032  0.9105178846194023  1.0000
  H   H17       1.0  0.3418389216921298  0.6215035441490642  0.35027240474948945  1.0000
  H   H18       1.0  0.6581561177045857  0.3785010254143444  0.850272914739044  1.0000
  H   H19       1.0  0.10312434808287921  0.616695954535345  0.5220940822319093  1.0000
  H   H20       1.0  0.8968784683818428  0.38330748798622954  0.0220933965224717  1.0000
  C   C1        1.0  0.2866762843040719  0.9262866277783743  0.1746585296555025  1.0000
  C   C2        1.0  0.7133282292278125  0.07370831270478818  0.6746610350176212  1.0000
  C   C3        1.0  0.16910478312928492  0.9638213050101  0.28961476236643346  1.0000
  C   C4        1.0  0.8308994911932431  0.0361742965538667  0.7896156083773319  1.0000
  C   C5        1.0  0.3114116374460282  0.9938020591261248  0.3983611542767491  1.0000
  C   C6        1.0  0.6885895169200396  0.0061932049041431  0.8983624571496875  1.0000
  C   C7        1.0  0.21028933724212354  0.0119563986859959  0.5262908714713745  1.0000
  C   C8        1.0  0.7897155385497143  0.9880383183149989  0.0262985657061137  1.0000
  C   C9        1.0  0.0979336983889354  0.5006009448773128  0.2861637597688897  1.0000
  C   C10       1.0  0.9020642965580309  0.4994033775502443  0.7861646974880544  1.0000
  C   C11       1.0  0.26765995183767904  0.5167705158892134  0.3761188701901332  1.0000
  C   C12       1.0  0.7323349002706012  0.48323263174524556  0.8761211078076769  1.0000
  C   C13       1.0  0.19763942992523917  0.5281605801223537  0.5135872572552316  1.0000
  C   C14       1.0  0.8023592005827141  0.4718429789807245  0.013587701776700102  1.0000
  C   C15       1.0  0.36850606378420997  0.5647916735039047  0.5964810558727862  1.0000
  C   C16       1.0  0.6314965951913225  0.43519562560079106  0.09648584804716621  1.0000
  O   O1        1.0  0.2598779858878473  0.26903079305164823  0.9794425304003981  1.0000
  O   O2        1.0  0.7401281001333687  0.7309753210162454  0.4794423860505006  1.0000
  O   O3        1.0  0.23631464295512217  0.6603021850517267  0.9308617254276969  1.0000
  O   O4        1.0  0.7636840406293999  0.3396980736109541  0.4308673098265103  1.0000
  O   O5        1.0  0.3495027328755071  0.0288243918203293  0.10361275103648641  1.0000
  O   O6        1.0  0.6505021344132301  0.9711725625950007  0.6036159580498648  1.0000
  O   O7        1.0  0.3226369554417019  0.7937757232378361  0.1622254780388701  1.0000
  O   O8        1.0  0.67735101101367  0.20622265091910208  0.6622257690028164  1.0000
  O   O9        1.0  0.0774428834609893  0.09455851565808622  0.2672094536697145  1.0000
  O   O10       1.0  0.9225659669401267  0.9054406243484439  0.7672101562888897  1.0000
  O   O11       1.0  0.4336240731953965  0.11354639209024239  0.36419151983486137  1.0000
  O   O12       1.0  0.5663733580982111  0.8864536581917261  0.8641918649172737  1.0000
  O   O13       1.0  0.2633866213407217  0.11817841531170362  0.5982223079595671  1.0000
  O   O14       1.0  0.7366087017356621  0.8818218718959228  0.0982273171660779  1.0000
  O   O15       1.0  0.08319588794618943  0.9163301640405024  0.5549134473504225  1.0000
  O   O16       1.0  0.9168113255999231  0.08365984113440562  0.0549147461567188  1.0000
  O   O17       1.0  0.09814494641683782  0.4033348803868293  0.2005905634271841  1.0000
  O   O18       1.0  0.9018506442682154  0.5966716496955371  0.7005924384559421  1.0000
  O   O19       1.0  0.965157679066145  0.5857043643453961  0.2971353648028412  1.0000
  O   O20       1.0  0.034837371862273904  0.41429873445861887  0.7971333830592401  1.0000
  O   O21       1.0  0.38705177054604434  0.40293653414397557  0.3613938912335257  1.0000
  O   O22       1.0  0.6129403242733601  0.5970668098087797  0.861395141349938  1.0000
  O   O23       1.0  0.10851641852362093  0.3905725962388615  0.5466638821926466  1.0000
  O   O24       1.0  0.8914790023673475  0.6094272829373252  0.046662868804475  1.0000
  O   O25       1.0  0.4767387141865171  0.46567300009209583  0.6271451705547831  1.0000
  O   O26       1.0  0.5232608117448478  0.5343279865127284  0.1271481594617754  1.0000
  O   O27       1.0  0.4000751242611855  0.6969358465043101  0.6275764505708353  1.0000
  O   O28       1.0  0.5999332030032464  0.30306945759850384  0.12758637449174873  1.0000
