data_image0
_chemical_formula_structural       Ag4H16C12S2O8
_chemical_formula_sum              "Ag4 H16 C12 S2 O8"
_cell_length_a       5.1496620238168855
_cell_length_b       8.02736523960822
_cell_length_c       10.904340935654819
_cell_angle_alpha    86.7054578164113
_cell_angle_beta     76.35655132327345
_cell_angle_gamma    71.3149612277559

_space_group_name_H-M_alt    "P 1"
_space_group_IT_number       1

loop_
  _space_group_symop_operation_xyz
  'x, y, z'

loop_
  _atom_site_type_symbol
  _atom_site_label
  _atom_site_symmetry_multiplicity
  _atom_site_fract_x
  _atom_site_fract_y
  _atom_site_fract_z
  _atom_site_occupancy
  Ag  Ag1       1.0  0.38877362945999067  0.8726589562726088  0.9529594124108054  1.0000
  Ag  Ag2       1.0  0.714581078102036  0.6274468553906158  0.5471591072176593  1.0000
  Ag  Ag3       1.0  0.6112654865696925  0.12734169050393257  0.04704840392867029  1.0000
  Ag  Ag4       1.0  0.2853972821381349  0.372549429147817  0.4528296077778292  1.0000
  H   H1        1.0  0.7515009398087431  0.49144229260694755  0.950061691995131  1.0000
  H   H2        1.0  0.692884255757704  0.008403816169902701  0.550002933961423  1.0000
  H   H3        1.0  0.24853263248024143  0.508538187156766  0.04992559061799537  1.0000
  H   H4        1.0  0.3070902554316677  0.9915888595305941  0.4500015537453378  1.0000
  H   H5        1.0  0.8076891292834887  0.38353731109876316  0.8062565876415774  1.0000
  H   H6        1.0  0.4967922664755522  0.11655604583537378  0.6936122450224216  1.0000
  H   H7        1.0  0.1923714934008417  0.616440631883506  0.19373489396352278  1.0000
  H   H8        1.0  0.5031771153937472  0.8834326646747923  0.30639135318256183  1.0000
  H   H9        1.0  0.18613129247072627  0.5253805623068287  0.7086667680735772  1.0000
  H   H10       1.0  0.9189724268529533  0.9753654594313512  0.7916738265260576  1.0000
  H   H11       1.0  0.8138804806267217  0.47463425277239674  0.29132726742455617  1.0000
  H   H12       1.0  0.08101396608151391  0.024642876647355594  0.20832490132047346  1.0000
  H   H13       1.0  0.11368051717914106  0.6391472682022081  0.8550427254368171  1.0000
  H   H14       1.0  0.10726245995100228  0.861497794341346  0.6454136432984183  1.0000
  H   H15       1.0  0.8863216063824028  0.36085981663615724  0.14495888984758656  1.0000
  H   H16       1.0  0.8927158416579746  0.13851587538830756  0.35458855394882244  1.0000
  C   C1        1.0  0.9125156526092086  0.43600245061361403  0.8638847658109368  1.0000
  C   C2        1.0  0.7117955248174681  0.06414672273530188  0.636203431952495  1.0000
  C   C3        1.0  0.08752477845928305  0.5639782245983155  0.13611161538936756  1.0000
  C   C4        1.0  0.2881714626907056  0.9358576526013563  0.36379470751737836  1.0000
  C   C5        1.0  0.13910714793728854  0.28336908265217176  0.903044863336802  1.0000
  C   C6        1.0  0.8248665913857425  0.21682327603210885  0.5969681399099256  1.0000
  C   C7        1.0  0.8609503829525594  0.7166288269598409  0.09695783412728079  1.0000
  C   C8        1.0  0.17510441985186276  0.7831852157726046  0.4030379732047605  1.0000
  C   C9        1.0  0.025106650439724532  0.577374508144544  0.7952038790576663  1.0000
  C   C10       1.0  0.8969421575825436  0.9231346420194624  0.7050923729666889  1.0000
  C   C11       1.0  0.9749109316440324  0.42262855843646446  0.20479423003056496  1.0000
  C   C12       1.0  0.10303239523559439  0.07687238829209518  0.29490687115814035  1.0000
  S   S1        1.0  0.7359300145940115  0.7500915939573997  0.7501147338084664  1.0000
  S   S2        1.0  0.2640751477983088  0.24990232950834465  0.24988640164543335  1.0000
  O   O1        1.0  0.3852071069001824  0.2921916254931815  0.8878672218697472  1.0000
  O   O2        1.0  0.06466668545473205  0.20800970247296385  0.6121625144854476  1.0000
  O   O3        1.0  0.6147904964455295  0.7078116942946477  0.11214286270270428  1.0000
  O   O4        1.0  0.9352708071669934  0.7920143897617036  0.3878353301741838  1.0000
  O   O5        1.0  0.06248665354277007  0.15300293403701196  0.9537385169473961  1.0000
  O   O6        1.0  0.6687519056269126  0.34712087880733816  0.5462456095034582  1.0000
  O   O7        1.0  0.9375582003153372  0.8469792468385644  0.04626674768690724  1.0000
  O   O8        1.0  0.3311789085614124  0.6528929456751339  0.45376413670182086  1.0000
