data_image0
_chemical_formula_structural       Zr6H52C84O32
_chemical_formula_sum              "Zr6 H52 C84 O32"
_cell_length_a       19.129927780649815
_cell_length_b       19.130018902007734
_cell_length_c       19.130031874874874
_cell_angle_alpha    59.99985089894493
_cell_angle_beta     59.999980741851424
_cell_angle_gamma    60.00024977267712

_space_group_name_H-M_alt    "P 1"
_space_group_IT_number       1

loop_
  _space_group_symop_operation_xyz
  'x, y, z'

loop_
  _atom_site_type_symbol
  _atom_site_label
  _atom_site_symmetry_multiplicity
  _atom_site_fract_x
  _atom_site_fract_y
  _atom_site_fract_z
  _atom_site_occupancy
  Zr  Zr1       1.0  0.9075418422845233  0.4075436046453261  0.5924571194734509  1.0000
  Zr  Zr2       1.0  0.09245493410065127  0.5924549832521038  0.40754420877977543  1.0000
  Zr  Zr3       1.0  0.09245653362336989  0.40754126168474164  0.5924586232417041  1.0000
  Zr  Zr4       1.0  0.9075408980387322  0.5924558905355328  0.4075441256339971  1.0000
  Zr  Zr5       1.0  0.9075394644109879  0.5924578355016689  0.5924605974928951  1.0000
  Zr  Zr6       1.0  0.09245815156514683  0.4075384555654439  0.407540907558264  1.0000
  H   H1        1.0  0.9271976911691269  0.4271997646381393  0.7183997483750416  1.0000
  H   H2        1.0  0.9271996634622466  0.7183948575748788  0.4272018254969152  1.0000
  H   H3        1.0  0.21839630425647294  0.4272011216443588  0.4272010114314994  1.0000
  H   H4        1.0  0.9271961885477323  0.42720057249905363  0.427203554943361  1.0000
  H   H5        1.0  0.3205258754548197  0.612562825136358  0.17836129679511717  1.0000
  H   H6        1.0  0.45001463346788745  0.6127815728072862  0.05043360291823984  1.0000
  H   H7        1.0  0.6783601225922737  0.3885476708305405  0.8205287544757593  1.0000
  H   H8        1.0  0.5504322659122919  0.3867648905069176  0.9500185234776805  1.0000
  H   H9        1.0  0.6783594950279479  0.6125600793936314  0.8205287436384195  1.0000
  H   H10       1.0  0.5504312143186  0.6127831335780273  0.9500189178022963  1.0000
  H   H11       1.0  0.32052416192657074  0.38855016643062606  0.17836453907690242  1.0000
  H   H12       1.0  0.45001303464028564  0.38676381573768026  0.050436653443299104  1.0000
  H   H13       1.0  0.11256016656647456  0.8205272564256916  0.3885496439957236  1.0000
  H   H14       1.0  0.11278027696487687  0.9500167049816212  0.3867673352072459  1.0000
  H   H15       1.0  0.8885443993109304  0.1783595709878441  0.6125651622645233  1.0000
  H   H16       1.0  0.8867636678123173  0.05043234438040413  0.6127837252924876  1.0000
  H   H17       1.0  0.11255693057436394  0.17836237765340715  0.3885520074020831  1.0000
  H   H18       1.0  0.11278101787505082  0.050434746386855536  0.38676680637325933  1.0000
  H   H19       1.0  0.8885479295844333  0.8205257895138729  0.6125618050475267  1.0000
  H   H20       1.0  0.8867611743723528  0.9500167323400177  0.6127854979496445  1.0000
  H   H21       1.0  0.3205239747656066  0.1783623818798574  0.38855156539634084  1.0000
  H   H22       1.0  0.45001277611503093  0.05043412807089002  0.38676675154032125  1.0000
  H   H23       1.0  0.6783599474755564  0.8205264940551161  0.6125621784766224  1.0000
  H   H24       1.0  0.5504318422833162  0.9500164814078789  0.6127854316376967  1.0000
  H   H25       1.0  0.6783601833082145  0.8205266575563711  0.38854969400063044  1.0000
  H   H26       1.0  0.5504327877364122  0.9500163177671723  0.386766751955811  1.0000
  H   H27       1.0  0.320527081250674  0.178360333311062  0.6125638730780665  1.0000
  H   H28       1.0  0.4500164761187265  0.05043266431221841  0.6127824131852789  1.0000
  H   H29       1.0  0.8885478889092369  0.6125618775640902  0.8205280166152986  1.0000
  H   H30       1.0  0.8867650075503946  0.6127826182639426  0.9500172099018654  1.0000
  H   H31       1.0  0.11255772134543923  0.38855076581378256  0.1783637738667778  1.0000
  H   H32       1.0  0.11278304297860596  0.3867651551467474  0.05043614127789907  1.0000
  H   H33       1.0  0.8885450409649068  0.6125639102530726  0.1783608117669074  1.0000
  H   H34       1.0  0.8867654542369294  0.6127817455106239  0.05043335421784421  1.0000
  H   H35       1.0  0.11255967150713535  0.38854888083498207  0.8205278874567694  1.0000
  H   H36       1.0  0.11278149262322765  0.38676492425439324  0.9500170825005437  1.0000
  H   H37       1.0  0.8885476880356079  0.8205263887205163  0.17836221170221467  1.0000
  H   H38       1.0  0.8867641493489699  0.9500158773959059  0.05043428421974728  1.0000
  H   H39       1.0  0.11255922037456396  0.1783617453965078  0.8205280183125722  1.0000
  H   H40       1.0  0.11278204887761234  0.05043437601393212  0.9500166707785876  1.0000
  H   H41       1.0  0.8885456951525795  0.178361008859824  0.8205299325226533  1.0000
  H   H42       1.0  0.8867643627010795  0.05043366520762775  0.9500188182861107  1.0000
  H   H43       1.0  0.11255948329878868  0.8205264407752254  0.17836271192341258  1.0000
  H   H44       1.0  0.11278157786360747  0.9500152850595927  0.05043497795579556  1.0000
  H   H45       1.0  0.3205255891234414  0.3885486619341875  0.6125606509629474  1.0000
  H   H46       1.0  0.450014263253401  0.38676469236647665  0.6127836419194846  1.0000
  H   H47       1.0  0.6783606284169895  0.6125599529298285  0.38855134871733554  1.0000
  H   H48       1.0  0.5504328337373323  0.6127830179494469  0.3867656085473001  1.0000
  H   H49       1.0  0.678358509898246  0.38854800705164666  0.6125638074201589  1.0000
  H   H50       1.0  0.5504312541711512  0.38676534377277955  0.6127832536865795  1.0000
  H   H51       1.0  0.32052636788362343  0.6125603135330876  0.38854918606985217  1.0000
  H   H52       1.0  0.4500146355993591  0.6127811593239372  0.3867684112119391  1.0000
  C   C1        1.0  0.7630124149129712  0.5019050289389497  0.7331774220026829  1.0000
  C   C2        1.0  0.0019032410001998384  0.7331754830055177  0.5019057162463626  1.0000
  C   C3        1.0  0.23317540244519813  0.501898816862287  0.2630157176847803  1.0000
  C   C4        1.0  0.0019051627920277086  0.2630134875962185  0.5019008106146146  1.0000
  C   C5        1.0  0.0019043706398350275  0.2630137816955056  0.73317734249553  1.0000
  C   C6        1.0  0.7630121614791322  0.5019036892405921  0.5019061824057542  1.0000
  C   C7        1.0  0.0019025769227810985  0.7331748112358554  0.26301558818158816  1.0000
  C   C8        1.0  0.23317544786518596  0.5019009609202385  0.5019062725600207  1.0000
  C   C9        1.0  0.0019037125483694405  0.5019042552045786  0.7331774171624943  1.0000
  C   C10       1.0  0.23317648110956685  0.26301295351174053  0.5019039968660904  1.0000
  C   C11       1.0  0.0019050627818161608  0.5019003295834138  0.263014415475368  1.0000
  C   C12       1.0  0.7630112072163514  0.7331765660702133  0.501905507680405  1.0000
  C   C13       1.0  0.3119606201259515  0.5009779670966594  0.18608581861956006  1.0000
  C   C14       1.0  0.6860809130712441  0.5009744201759218  0.8119636320646034  1.0000
  C   C15       1.0  0.3496851799920152  0.5635207591793189  0.14939013817615182  1.0000
  C   C16       1.0  0.4228070757468103  0.5628728038595838  0.07729172609897722  1.0000
  C   C17       1.0  0.6493870869265806  0.43739963356583894  0.8496881317643383  1.0000
  C   C18       1.0  0.5772887316765394  0.43702512876193095  0.9228111012258394  1.0000
  C   C19       1.0  0.6493867021922811  0.563520668656217  0.8496886618539604  1.0000
  C   C20       1.0  0.5772891145642518  0.5628688362273521  0.9228109751798923  1.0000
  C   C21       1.0  0.34968591819818334  0.43739798660698176  0.14939163231694153  1.0000
  C   C22       1.0  0.4228063910540456  0.4370287945893523  0.07729245575285397  1.0000
  C   C23       1.0  0.4613525924878418  0.49985585564861884  0.03892875508741868  1.0000
  C   C24       1.0  0.5389244774635531  0.49985846765495995  0.9613576022259236  1.0000
  C   C25       1.0  0.000977592536195104  0.8119607258461983  0.5009771206687147  1.0000
  C   C26       1.0  0.0009690040911252514  0.18608311217756324  0.5009816189198729  1.0000
  C   C27       1.0  0.0635218655203573  0.8496862469998803  0.4374019617843671  1.0000
  C   C28       1.0  0.06287041910445647  0.9228095034573514  0.4370281145281183  1.0000
  C   C29       1.0  0.9373971460618262  0.14938826179606934  0.5635237721848866  1.0000
  C   C30       1.0  0.9370227842282546  0.07728937961537954  0.5628746960822182  1.0000
  C   C31       1.0  0.06351991356312688  0.14938924640476614  0.43740108134048217  1.0000
  C   C32       1.0  0.06286654659184174  0.07729050124617491  0.43703087198104373  1.0000
  C   C33       1.0  0.9373992672857695  0.8496864771359114  0.5635226283988144  1.0000
  C   C34       1.0  0.9370262299211378  0.9228079550127359  0.5628715118179172  1.0000
  C   C35       1.0  0.9998544572218011  0.9613558428084373  0.4998603714359716  1.0000
  C   C36       1.0  0.9998573265608997  0.03892724750564734  0.4998567470500389  1.0000
  C   C37       1.0  0.3119627387342447  0.1860829018099609  0.5009795885565324  1.0000
  C   C38       1.0  0.6860806719472096  0.8119623304981972  0.5009770546075883  1.0000
  C   C39       1.0  0.34968642960838275  0.14938884990062462  0.4374004796781604  1.0000
  C   C40       1.0  0.4228078176375475  0.07728946188781559  0.4370304797958438  1.0000
  C   C41       1.0  0.6493867948948805  0.8496872363776831  0.5635230571348155  1.0000
  C   C42       1.0  0.5772893839477715  0.9228085052135526  0.5628715594055365  1.0000
  C   C43       1.0  0.6493867523880041  0.8496866962879467  0.43740200217603575  1.0000
  C   C44       1.0  0.5772878273516467  0.9228095862577065  0.43702761313665645  1.0000
  C   C45       1.0  0.3496866046535985  0.14938847705042954  0.5635229552589536  1.0000
  C   C46       1.0  0.42280863056155493  0.0772897281229278  0.5628738224558772  1.0000
  C   C47       1.0  0.46135302710573706  0.03892710555808788  0.49985768178498086  1.0000
  C   C48       1.0  0.5389249229753617  0.9613557909992069  0.4998605034169899  1.0000
  C   C49       1.0  0.0009759485920995343  0.5009761578286954  0.8119635213268876  1.0000
  C   C50       1.0  0.0009706838249955502  0.5009798848441491  0.18608426394534658  1.0000
  C   C51       1.0  0.9374006393564188  0.5635203287027437  0.8496882697275507  1.0000
  C   C52       1.0  0.9370269759201408  0.5628713923478442  0.9228093667823741  1.0000
  C   C53       1.0  0.06352177234134619  0.43739970781383164  0.1493904597650584  1.0000
  C   C54       1.0  0.06286854319758123  0.4370290752270094  0.07729146392746604  1.0000
  C   C55       1.0  0.937399342952034  0.563522074509045  0.14938900409177347  1.0000
  C   C56       1.0  0.9370247334742815  0.5628728229781713  0.07729000849840865  1.0000
  C   C57       1.0  0.06352250938764578  0.43739844813362794  0.8496878779674332  1.0000
  C   C58       1.0  0.06287110249581943  0.4370258705036036  0.9228109990089094  1.0000
  C   C59       1.0  0.9998568312891224  0.49985715713388873  0.9613572934501845  1.0000
  C   C60       1.0  0.999858577649789  0.49985559234243493  0.03892846057046047  1.0000
  C   C61       1.0  0.0009760882464748433  0.8119605895103561  0.1860840887990635  1.0000
  C   C62       1.0  0.0009721751157771221  0.18608388674814338  0.8119644361875585  1.0000
  C   C63       1.0  0.9374002847186061  0.8496861571977663  0.1493897856213665  1.0000
  C   C64       1.0  0.9370265696672674  0.9228072677673254  0.0772923188529972  1.0000
  C   C65       1.0  0.0635212244300548  0.14938876622451147  0.849688559156675  1.0000
  C   C66       1.0  0.06286851366295565  0.07729035800190333  0.9228108984985678  1.0000
  C   C67       1.0  0.9373987087032706  0.14938858127982282  0.849689201231655  1.0000
  C   C68       1.0  0.9370248804100284  0.07728991216152548  0.9228114165488532  1.0000
  C   C69       1.0  0.06352124727695266  0.8496858344562597  0.14938992395041598  1.0000
  C   C70       1.0  0.0628709315449925  0.9228084422263195  0.07729162400616488  1.0000
  C   C71       1.0  0.9998564660714708  0.9613556721127169  0.03892750547339581  1.0000
  C   C72       1.0  0.9998581925511518  0.03892715413745401  0.9613567990362238  1.0000
  C   C73       1.0  0.3119625523430826  0.5009753949640227  0.5009740885962657  1.0000
  C   C74       1.0  0.6860810617933311  0.5009748743846316  0.5009794673945436  1.0000
  C   C75       1.0  0.3496866307241577  0.43739899102710933  0.5635220606631106  1.0000
  C   C76       1.0  0.4228063681602875  0.4370277077416846  0.562871825515245  1.0000
  C   C77       1.0  0.6493866793082291  0.5635213913289833  0.43740285467460893  1.0000
  C   C78       1.0  0.5772895252052094  0.5628692662253911  0.4370295646508564  1.0000
  C   C79       1.0  0.6493860761195551  0.43739986590492197  0.5635241599482583  1.0000
  C   C80       1.0  0.5772874449910858  0.43702645118123945  0.5628729967463286  1.0000
  C   C81       1.0  0.34968568074440015  0.5635200087649752  0.4374015357934907  1.0000
  C   C82       1.0  0.42280801403101276  0.5628711339209573  0.4370275764056969  1.0000
  C   C83       1.0  0.46135378589389126  0.4998560921656647  0.49985963343100775  1.0000
  C   C84       1.0  0.5389250837702095  0.4998579423625102  0.4998579770520378  1.0000
  O   O1        1.0  0.7935803390388043  0.44249330202620757  0.7025217000460698  1.0000
  O   O2        1.0  0.06140260005217629  0.702520446694649  0.442494284922354  1.0000
  O   O3        1.0  0.2025209400150062  0.56139964577941  0.2935830860165893  1.0000
  O   O4        1.0  0.9424911243890933  0.2935810501249422  0.5614029453062128  1.0000
  O   O5        1.0  0.06140004326965002  0.2935839790871314  0.7025211272423063  1.0000
  O   O6        1.0  0.7935808005746595  0.5614015187256454  0.44249629811606184  1.0000
  O   O7        1.0  0.9424926468756073  0.7025186082411068  0.2935832754471334  1.0000
  O   O8        1.0  0.2025192525541045  0.442491214775515  0.5614033397138343  1.0000
  O   O9        1.0  0.942491377813191  0.5614020910831171  0.7025226320977181  1.0000
  O   O10       1.0  0.20252001195939331  0.2935818976149919  0.44249438749754677  1.0000
  O   O11       1.0  0.06139960197050715  0.4424917255004175  0.2935850343245789  1.0000
  O   O12       1.0  0.793579704719747  0.7025206962419828  0.5614042242332999  1.0000
  O   O13       1.0  0.2025217470979043  0.29357997976668326  0.5614034767680919  1.0000
  O   O14       1.0  0.9424898020912664  0.5614002009259522  0.2935829447569489  1.0000
  O   O15       1.0  0.793578897567386  0.7025204056578715  0.4424944947470593  1.0000
  O   O16       1.0  0.061401325386967354  0.44249271789330163  0.7025216304078652  1.0000
  O   O17       1.0  0.9424922687226598  0.29358158140379953  0.7025226475869814  1.0000
  O   O18       1.0  0.20251882676853253  0.561401067540558  0.44249536581891386  1.0000
  O   O19       1.0  0.061401290109401443  0.7025197836541962  0.2935833891306173  1.0000
  O   O20       1.0  0.7935787452056502  0.44249336670682726  0.5614056926307072  1.0000
  O   O21       1.0  0.061399033818382555  0.2935840992496921  0.4424917320844272  1.0000
  O   O22       1.0  0.7935811181295024  0.561402797629128  0.7025224252185254  1.0000
  O   O23       1.0  0.9424920403104622  0.7025199746449288  0.561403650708911  1.0000
  O   O24       1.0  0.20252002827709265  0.442488972042888  0.2935862325070104  1.0000
  O   O25       1.0  0.9478907278740821  0.44789377931736135  0.4478962608023735  1.0000
  O   O26       1.0  0.15631587757508217  0.4478942590038812  0.447894798744322  1.0000
  O   O27       1.0  0.947894133056579  0.6563159776011673  0.44789430135163133  1.0000
  O   O28       1.0  0.9478926129906214  0.4478926680601558  0.6563181881215809  1.0000
  O   O29       1.0  0.03827742630648604  0.5382795145712578  0.5382828113187941  1.0000
  O   O30       1.0  0.8851571996895446  0.5382811602866369  0.5382817169181704  1.0000
  O   O31       1.0  0.038279653201726785  0.5382761338056811  0.3851603622022494  1.0000
  O   O32       1.0  0.038279739923268656  0.38515903306372223  0.5382797147978164  1.0000
