data_image0
_chemical_formula_structural       Zn2H16C24N12Cl4
_chemical_formula_sum              "Zn2 H16 C24 N12 Cl4"
_cell_length_a       8.255371293869594
_cell_length_b       11.050332840778202
_cell_length_c       9.276131614542862
_cell_angle_alpha    94.76847026050544
_cell_angle_beta     98.31602969353764
_cell_angle_gamma    97.89351338334188

_space_group_name_H-M_alt    "P 1"
_space_group_IT_number       1

loop_
  _space_group_symop_operation_xyz
  'x, y, z'

loop_
  _atom_site_type_symbol
  _atom_site_label
  _atom_site_symmetry_multiplicity
  _atom_site_fract_x
  _atom_site_fract_y
  _atom_site_fract_z
  _atom_site_occupancy
  Zn  Zn1       1.0  0.6675254901548656  0.7600610630750424  0.8019693128215336  1.0000
  Zn  Zn2       1.0  0.3324817755565448  0.2399410939346041  0.19802143746050394  1.0000
  H   H1        1.0  0.005424108982175771  0.8842756107972817  0.9639896175928938  1.0000
  H   H2        1.0  0.9945725813546815  0.11572518011682582  0.03601551841384068  1.0000
  H   H3        1.0  0.24492103090981493  0.8261728522756756  0.1288492209382994  1.0000
  H   H4        1.0  0.755078237306833  0.17382634478177292  0.8711442617874139  1.0000
  H   H5        1.0  0.20598512082005266  0.6214646295639098  0.2340775450519459  1.0000
  H   H6        1.0  0.7940078128671503  0.3785326741458519  0.7659115008611932  1.0000
  H   H7        1.0  0.9239034110016392  0.4974199468624504  0.18957868907947525  1.0000
  H   H8        1.0  0.0760945499854984  0.5025791919610042  0.8104167421128492  1.0000
  H   H9        1.0  0.4066659920211039  0.6010805524650139  0.5684225450321704  1.0000
  H   H10       1.0  0.5933602723335838  0.3989320519123681  0.43157020580156297  1.0000
  H   H11       1.0  0.107989985343373  0.5911058679135835  0.46613305876908834  1.0000
  H   H12       1.0  0.8920243775189147  0.40888983640986243  0.5338688226449404  1.0000
  H   H13       1.0  0.9542431091443717  0.7607776370066902  0.5517885259440403  1.0000
  H   H14       1.0  0.04575454543202541  0.239213205695826  0.4482091252365023  1.0000
  H   H15       1.0  0.10548631410004818  0.9254730594734608  0.7413648821099128  1.0000
  H   H16       1.0  0.8944956584027608  0.07451454597084252  0.25864291044874216  1.0000
  C   C1        1.0  0.9936309702042722  0.7994810527191308  0.016465939471743192  1.0000
  C   C2        1.0  0.00635324801132241  0.200516887772153  0.9835293839853844  1.0000
  C   C3        1.0  0.1271059787881796  0.7651047490835694  0.10629273294039615  1.0000
  C   C4        1.0  0.8728950668119708  0.2348981071021115  0.893703609351327  1.0000
  C   C5        1.0  0.1045461467823472  0.6542476008801187  0.16700831268158106  1.0000
  C   C6        1.0  0.8954419931217643  0.34575051431315273  0.8329811653757273  1.0000
  C   C7        1.0  0.9475620428076681  0.5835924541387383  0.14169476051806368  1.0000
  C   C8        1.0  0.05243560214319841  0.4164056943386925  0.8583048209976026  1.0000
  C   C9        1.0  0.8200380197631959  0.6251735666522436  0.05227452587983813  1.0000
  C   C10       1.0  0.17995415468744372  0.374828161916824  0.9477235490069658  1.0000
  C   C11       1.0  0.6505751197843423  0.5570497577215293  0.024289982369680267  1.0000
  C   C12       1.0  0.3494190370527761  0.44295010662349205  0.9757124962306133  1.0000
  C   C13       1.0  0.3348812010989874  0.6703269805156538  0.6050944358660928  1.0000
  C   C14       1.0  0.6651315254871191  0.3296789021772639  0.3948997513799311  1.0000
  C   C15       1.0  0.16828517442502292  0.6670489249189941  0.546808563161285  1.0000
  C   C16       1.0  0.8317203901816655  0.3329513013115672  0.4531860134362588  1.0000
  C   C17       1.0  0.0843857076301546  0.7602566126034488  0.5937250764561312  1.0000
  C   C18       1.0  0.9156184498994193  0.2397288897698076  0.40627079933665994  1.0000
  C   C19       1.0  0.1683000192269547  0.852252114086419  0.701114546110574  1.0000
  C   C20       1.0  0.8316884385381442  0.1477439164283751  0.2988909183235363  1.0000
  C   C21       1.0  0.3320425485548029  0.8454556909114501  0.7596165312400841  1.0000
  C   C22       1.0  0.6679653479335385  0.154547064065909  0.2403948819095091  1.0000
  C   C23       1.0  0.4206990198403204  0.9298046379458212  0.8858899878304383  1.0000
  C   C24       1.0  0.5792921934911136  0.0702053465346779  0.11410674506845452  1.0000
  N   N1        1.0  0.8444526364662792  0.730329376983825  0.987746548622347  1.0000
  N   N2        1.0  0.15554107717053972  0.269675902566533  0.01226080862826959  1.0000
  N   N3        1.0  0.5324683359872537  0.6083973742630561  0.9451610246707032  1.0000
  N   N4        1.0  0.46752910396064346  0.39160629756666054  0.054837012697490195  1.0000
  N   N5        1.0  0.379164002896296  0.5513492233880657  0.9200430890783833  1.0000
  N   N6        1.0  0.6208309100570659  0.4486479083978096  0.07995918736234123  1.0000
  N   N7        1.0  0.4149050299178399  0.7573221285848247  0.7098518154078589  1.0000
  N   N8        1.0  0.5851034874573459  0.24269075900957648  0.2901576408372151  1.0000
  N   N9        1.0  0.5630049364403505  0.8996016670643457  0.9557131039416402  1.0000
  N   N10       1.0  0.436974425921214  0.10041337073595002  0.04429640961033237  1.0000
  N   N11       1.0  0.6445518219885358  0.9702690724975582  0.07155938007417718  1.0000
  N   N12       1.0  0.3554436023785357  0.029730832056962708  0.9284422205258093  1.0000
  Cl  Cl1       1.0  0.7208646665686019  0.5866084571564442  0.6660529799560633  1.0000
  Cl  Cl2       1.0  0.2791607768413016  0.41339477063151264  0.3339514935207503  1.0000
  Cl  Cl3       1.0  0.7867506368361463  0.9386409593218876  0.7243416874036156  1.0000
  Cl  Cl4       1.0  0.2132748859728579  0.0613623045150504  0.2756606451405901  1.0000
