data_image0
_chemical_formula_structural       Cu6H30C30S6I6N6
_chemical_formula_sum              "Cu6 H30 C30 S6 I6 N6"
_cell_length_a       7.793833283523326
_cell_length_b       13.194394139873571
_cell_length_c       13.2709610685108
_cell_angle_alpha    65.74887708557695
_cell_angle_beta     82.60669129007543
_cell_angle_gamma    83.10739352546085

_space_group_name_H-M_alt    "P 1"
_space_group_IT_number       1

loop_
  _space_group_symop_operation_xyz
  'x, y, z'

loop_
  _atom_site_type_symbol
  _atom_site_label
  _atom_site_symmetry_multiplicity
  _atom_site_fract_x
  _atom_site_fract_y
  _atom_site_fract_z
  _atom_site_occupancy
  Cu  Cu1       1.0  0.45722848170927927  0.09165960905365012  0.6224889849282674  1.0000
  Cu  Cu2       1.0  0.5427810503760071  0.9083440023469935  0.3775068943902936  1.0000
  Cu  Cu3       1.0  0.21747235205420884  0.10446980943241609  0.4889369121694643  1.0000
  Cu  Cu4       1.0  0.7825341165063406  0.8955279885019466  0.5110646816434821  1.0000
  Cu  Cu5       1.0  0.7000798950012809  0.21637062233194376  0.33237203274881466  1.0000
  Cu  Cu6       1.0  0.2999301691017422  0.7836288288582697  0.6676262916301352  1.0000
  H   H1        1.0  0.5754064342484709  0.41764250783166573  0.3009214033929765  1.0000
  H   H2        1.0  0.4245935769179994  0.5823661220710646  0.6990769882406055  1.0000
  H   H3        1.0  0.9782057601908108  0.11642718684429812  0.6547651376917614  1.0000
  H   H4        1.0  0.021816329042032054  0.883567229281745  0.3452281990023777  1.0000
  H   H5        1.0  0.4826712876232831  0.956940426360916  0.8224707168455151  1.0000
  H   H6        1.0  0.5173217992346367  0.043061526079704  0.17753182994643169  1.0000
  H   H7        1.0  0.19843306730520277  0.3145847750072193  0.5719894832091015  1.0000
  H   H8        1.0  0.8015788133828678  0.6854096557336505  0.42800851732528145  1.0000
  H   H9        1.0  0.1347821157031035  0.5137809133023551  0.547850832217577  1.0000
  H   H10       1.0  0.8652120641111624  0.4862101444032518  0.4521501404496462  1.0000
  H   H11       1.0  0.30554256058541535  0.6623473156488303  0.3991658417432901  1.0000
  H   H12       1.0  0.694439346091542  0.33765129242536324  0.6008405969812429  1.0000
  H   H13       1.0  0.5334666821972647  0.6051517587766639  0.2751491398749194  1.0000
  H   H14       1.0  0.46652097376422574  0.3948544165034207  0.7248589055327131  1.0000
  H   H15       1.0  0.16356986655054573  0.8092040344970358  0.8883605773214783  1.0000
  H   H16       1.0  0.8364186445117882  0.19079204268428643  0.11164181342554258  1.0000
  H   H17       1.0  0.9414553335473458  0.8358732039553515  0.03187703124861943  1.0000
  H   H18       1.0  0.05854043198850431  0.16412705751230308  0.9681229706699241  1.0000
  H   H19       1.0  0.737395797439433  0.006576394215350901  0.979149849258043  1.0000
  H   H20       1.0  0.2626147610536975  0.9934305909189758  0.020848298436433887  1.0000
  H   H21       1.0  0.766428662722845  0.1500753066057001  0.779808709352693  1.0000
  H   H22       1.0  0.23358423566632783  0.8499316177092453  0.22018247356724158  1.0000
  H   H23       1.0  0.8611425701259279  0.7445592243386017  0.7378279519342995  1.0000
  H   H24       1.0  0.13885600240006823  0.25543852001498385  0.2621705927102198  1.0000
  H   H25       1.0  0.821305614113747  0.6014390001012869  0.9309308712900446  1.0000
  H   H26       1.0  0.17868510699735657  0.3985604240921247  0.06907067956269228  1.0000
  H   H27       1.0  0.6043297524254144  0.6408360468583324  0.06930497183707732  1.0000
  H   H28       1.0  0.3956619317049642  0.35916587329413124  0.9306946973520666  1.0000
  H   H29       1.0  0.4335911289967028  0.829556812009841  0.005927323456681581  1.0000
  H   H30       1.0  0.5664006185222448  0.17044598591726162  0.9940764957719707  1.0000
  C   C1        1.0  0.397268298532893  0.3527855437218649  0.43632421161444057  1.0000
  C   C2        1.0  0.6027433615335128  0.6472114096996435  0.5636750155265701  1.0000
  C   C3        1.0  0.267201978530764  0.3811870455390505  0.5064624390711217  1.0000
  C   C4        1.0  0.7328072696340939  0.6188082279050207  0.49353694923367186  1.0000
  C   C5        1.0  0.23351074151986498  0.4913778530636678  0.4927928383124253  1.0000
  C   C6        1.0  0.7664822272676447  0.5086132239873039  0.5072104943908826  1.0000
  C   C7        1.0  0.32747020603412125  0.5758181618415462  0.40894155098855817  1.0000
  C   C8        1.0  0.6725204141506042  0.4241820958691988  0.5910596604989209  1.0000
  C   C9        1.0  0.4524439484024398  0.5458285930772959  0.3408940781196321  1.0000
  C   C10       1.0  0.5475454419866213  0.4541725396247926  0.6591113987410537  1.0000
  C   C11       1.0  0.08951520172234229  0.9670373038374795  0.7598971918688519  1.0000
  C   C12       1.0  0.9104884426142233  0.03296128516656441  0.24010055207561007  1.0000
  C   C13       1.0  0.07694625470038824  0.8847729210100185  0.8690395011709313  1.0000
  C   C14       1.0  0.9230545927980104  0.1152264664399212  0.13095514113917517  1.0000
  C   C15       1.0  0.9526510061003179  0.8994211986890691  0.9473075271769033  1.0000
  C   C16       1.0  0.047355298145276885  0.1005765549879882  0.052689577231277  1.0000
  C   C17       1.0  0.8379360708374365  0.9960394974967458  0.9185500673980723  1.0000
  C   C18       1.0  0.16206993924593147  0.0039616197544987  0.0814486724855996  1.0000
  C   C19       1.0  0.8533284466580257  0.075049151771637  0.8114388522721611  1.0000
  C   C20       1.0  0.14667472043245766  0.9249536121952672  0.18855794308015558  1.0000
  C   C21       1.0  0.668210653126877  0.8632812655533685  0.7663108137277703  1.0000
  C   C22       1.0  0.33179097286168974  0.13671402807209182  0.23369300774986357  1.0000
  C   C23       1.0  0.7658632807538693  0.7597303850838698  0.7986942455994069  1.0000
  C   C24       1.0  0.2341267715001933  0.24026317957630985  0.2013075514414169  1.0000
  C   C25       1.0  0.7434036910786689  0.6807838824307666  0.9062991025278818  1.0000
  C   C26       1.0  0.25659479775478644  0.31921642148454055  0.09370440989388834  1.0000
  C   C27       1.0  0.6230073137498167  0.702778128489264  0.9847044748956078  1.0000
  C   C28       1.0  0.37697277787714983  0.2972229183438984  0.015295075193847632  1.0000
  C   C29       1.0  0.5282153446138123  0.804100851455836  0.9513774600327307  1.0000
  C   C30       1.0  0.4717786778775448  0.1959035895676209  0.048622456861501503  1.0000
  S   S1        1.0  0.4544826299580508  0.21940178521710152  0.4439638569766657  1.0000
  S   S2        1.0  0.5455222801769182  0.780596799194001  0.5560330233999693  1.0000
  S   S3        1.0  0.24117881675095987  0.9586025878853164  0.6563953143562314  1.0000
  S   S4        1.0  0.7588347780607236  0.0413902376139106  0.3436092354479712  1.0000
  S   S5        1.0  0.6959154589632705  0.9710747399321845  0.6376157731991725  1.0000
  S   S6        1.0  0.3040819659245386  0.028923901541396905  0.3623892815209331  1.0000
  I   I1        1.0  0.3762422200483897  0.16206457077318248  0.7812031557213999  1.0000
  I   I2        1.0  0.6237653960605272  0.8379423129037633  0.21878549559683344  1.0000
  I   I3        1.0  0.7456816410847935  0.38671456398881787  0.1473831111864285  1.0000
  I   I4        1.0  0.2543145007707608  0.6132823560333024  0.8526174999589954  1.0000
  I   I5        1.0  0.9372927812151985  0.23854757667894697  0.46011317951346337  1.0000
  I   I6        1.0  0.06270973425208129  0.7614510537991138  0.5398891691694557  1.0000
  N   N1        1.0  0.48306125171174596  0.43784744231265194  0.35565065028932713  1.0000
  N   N2        1.0  0.5169405572708642  0.5621570227867139  0.644349322836824  1.0000
  N   N3        1.0  0.9768619213142954  0.05925336282346191  0.7369056976502436  1.0000
  N   N4        1.0  0.02315414008075577  0.940751140268219  0.263093755039314  1.0000
  N   N5        1.0  0.551224779856497  0.8796048268873805  0.8452943832649351  1.0000
  N   N6        1.0  0.4487683257703239  0.1203962699072605  0.1547062581898828  1.0000
