data_image0
_chemical_formula_structural       Zn4H60C48S4N12O16
_chemical_formula_sum              "Zn4 H60 C48 S4 N12 O16"
_cell_length_a       8.357186096906771
_cell_length_b       13.400300446872404
_cell_length_c       14.374288684405252
_cell_angle_alpha    89.99919146371911
_cell_angle_beta     90.00048866405888
_cell_angle_gamma    102.80599755444076

_space_group_name_H-M_alt    "P 1"
_space_group_IT_number       1

loop_
  _space_group_symop_operation_xyz
  'x, y, z'

loop_
  _atom_site_type_symbol
  _atom_site_label
  _atom_site_symmetry_multiplicity
  _atom_site_fract_x
  _atom_site_fract_y
  _atom_site_fract_z
  _atom_site_occupancy
  Zn  Zn1       1.0  0.8327241724309572  0.7037590375888453  0.7793799950282007  1.0000
  Zn  Zn2       1.0  0.8327251315923191  0.20376584150519508  0.7206228370789629  1.0000
  Zn  Zn3       1.0  0.16727449365121314  0.29623493825068437  0.22062085207638654  1.0000
  Zn  Zn4       1.0  0.16727914610938652  0.7962395970345924  0.2793752272173505  1.0000
  H   H1        1.0  0.31931573727537443  0.7605481304882602  0.7596465679984943  1.0000
  H   H2        1.0  0.3193172051658096  0.260549279039104  0.740359884938833  1.0000
  H   H3        1.0  0.6806811358390661  0.23944740474671986  0.24035636615103326  1.0000
  H   H4        1.0  0.6806864955856256  0.739451553988253  0.2596472233123421  1.0000
  H   H5        1.0  0.4089085968404689  0.6896015684184531  0.881981665027858  1.0000
  H   H6        1.0  0.4089088917052521  0.18960439195200957  0.6180247880185801  1.0000
  H   H7        1.0  0.5910870850819308  0.3103939813817859  0.11801987774538956  1.0000
  H   H8        1.0  0.5910966020172521  0.8103948816751367  0.38198092887424906  1.0000
  H   H9        1.0  0.9901560072701017  0.7041136499874198  0.5850257280119067  1.0000
  H   H10       1.0  0.9901591371384341  0.20411548281958147  0.9149813699364912  1.0000
  H   H11       1.0  0.00984741115751576  0.2958833427766478  0.4149758147712318  1.0000
  H   H12       1.0  0.00983324112895174  0.795887026096764  0.08502086846890218  1.0000
  H   H13       1.0  0.0803607226390567  0.6167297598729532  0.6500074081507561  1.0000
  H   H14       1.0  0.08036977475575208  0.11673393991874549  0.8500025323010688  1.0000
  H   H15       1.0  0.9196432851815641  0.3832687631893774  0.3499941346237134  1.0000
  H   H16       1.0  0.9196285594551623  0.8832684961950856  0.1500031845527801  1.0000
  H   H17       1.0  0.20935362284119916  0.7252681399993363  0.5947409739787087  1.0000
  H   H18       1.0  0.20935872241565076  0.2252754619134975  0.9052633064301856  1.0000
  H   H19       1.0  0.7906482973051823  0.27473117732359487  0.4052605687852519  1.0000
  H   H20       1.0  0.7906351417502863  0.7747277975724176  0.09474241040695827  1.0000
  H   H21       1.0  0.014190254517501355  0.8766348655805415  0.6433157962181466  1.0000
  H   H22       1.0  0.01418985366250067  0.37663599537354026  0.8566834081606912  1.0000
  H   H23       1.0  0.985809590354009  0.12336217085074708  0.35668574655571206  1.0000
  H   H24       1.0  0.9858055087579912  0.6233649395916103  0.14331674320285254  1.0000
  H   H25       1.0  0.23041001577901435  0.8970689599902284  0.6642932426689752  1.0000
  H   H26       1.0  0.23040970847951298  0.3970711421449165  0.8357067785974334  1.0000
  H   H27       1.0  0.769590123795666  0.10292884158066326  0.3357096914737525  1.0000
  H   H28       1.0  0.7695871398328507  0.6029305433993385  0.16429545982465743  1.0000
  H   H29       1.0  0.09111754313113343  0.909225420960709  0.7573582863787534  1.0000
  H   H30       1.0  0.091114562873102  0.4092273616172477  0.7426387858216044  1.0000
  H   H31       1.0  0.9088799193662993  0.09077164458682317  0.24264256070232185  1.0000
  H   H32       1.0  0.9088834766079613  0.5907743093950798  0.25735997417059037  1.0000
  H   H33       1.0  0.23681012968139467  0.6225865366825758  0.04005758081081719  1.0000
  H   H34       1.0  0.23680384176424946  0.12259325540880889  0.45995158612954157  1.0000
  H   H35       1.0  0.7631894080975812  0.37741280974707786  0.9599446576335492  1.0000
  H   H36       1.0  0.7631954137509425  0.8774022506718351  0.5400576092055684  1.0000
  H   H37       1.0  0.3944875979055879  0.567807905637231  0.9917583030349346  1.0000
  H   H38       1.0  0.3944794107511241  0.06780847924287767  0.508247605348245  1.0000
  H   H39       1.0  0.6055152063302957  0.432193707133095  0.008243239716023299  1.0000
  H   H40       1.0  0.6055237130033431  0.9321877483387195  0.49175880724541077  1.0000
  H   H41       1.0  0.18368554775844356  0.5125432120577429  0.9672943199045388  1.0000
  H   H42       1.0  0.18367846688190068  0.012548821291254297  0.5327140434040485  1.0000
  H   H43       1.0  0.816314898918776  0.48745227950050196  0.03271000562747159  1.0000
  H   H44       1.0  0.816324951589074  0.9874481714109038  0.46729654330486864  1.0000
  H   H45       1.0  0.5298687124376329  0.7148753591468875  0.5230186479278912  1.0000
  H   H46       1.0  0.5298685437989406  0.21488177184197343  0.9769846001107109  1.0000
  H   H47       1.0  0.47013648657502927  0.28512314935018407  0.4769842862228727  1.0000
  H   H48       1.0  0.4701300850751195  0.785121429468617  0.0230141598728224  1.0000
  H   H49       1.0  0.10655063369600977  0.49357570827720554  0.42985409232692  1.0000
  H   H50       1.0  0.10654586286727866  0.9935764037378546  0.07013836907209028  1.0000
  H   H51       1.0  0.8934533492825166  0.5064289651515493  0.5701384064809358  1.0000
  H   H52       1.0  0.8934492171993753  0.006420691006880497  0.9298499556440302  1.0000
  H   H53       1.0  0.14328937968923572  0.3768385870011881  0.5606266470490905  1.0000
  H   H54       1.0  0.14329017492103446  0.8768488085909637  0.9393655515428134  1.0000
  H   H55       1.0  0.8567059950939324  0.6231592728641002  0.4393658517822842  1.0000
  H   H56       1.0  0.8567111309468912  0.12315512886205936  0.06061790333740898  1.0000
  H   H57       1.0  0.3785601333346165  0.43294760036951624  0.6711568579784171  1.0000
  H   H58       1.0  0.37856522290001476  0.9329608073417787  0.8288420414858492  1.0000
  H   H59       1.0  0.6214325643979846  0.5670495234343063  0.32883911928409754  1.0000
  H   H60       1.0  0.6214417070201677  0.06705151761160978  0.1711455874725019  1.0000
  C   C1        1.0  0.16195323504685183  0.6697622134583695  0.8505862305033175  1.0000
  C   C2        1.0  0.161952345067526  0.1697638565417421  0.6494199388170045  1.0000
  C   C3        1.0  0.8380430362718839  0.33023486663537227  0.14941600794786314  1.0000
  C   C4        1.0  0.8380519574696094  0.8302354316411423  0.35058577807272673  1.0000
  C   C5        1.0  0.09194585278738289  0.6971487320194  0.630827520291916  1.0000
  C   C6        1.0  0.0919491452638823  0.1971496471159355  0.8691779336828346  1.0000
  C   C7        1.0  0.9080569638445297  0.30284980560342933  0.3691733267928682  1.0000
  C   C8        1.0  0.9080465118664518  0.8028520529792968  0.13082500042276018  1.0000
  C   C9        1.0  0.10737917701533202  0.8672578674436405  0.6941860882662849  1.0000
  C   C10       1.0  0.10737799369373843  0.3672589285824869  0.8058144049872451  1.0000
  C   C11       1.0  0.8926197713706401  0.1327399486877496  0.30581615018675  1.0000
  C   C12       1.0  0.8926206475963737  0.6327411975520291  0.19418783344969626  1.0000
  C   C13       1.0  0.27394532278290024  0.5844722397330171  0.9784417521343866  1.0000
  C   C14       1.0  0.2739396332933026  0.08447567704381238  0.5215654158574239  1.0000
  C   C15       1.0  0.7260551114882788  0.4155263269870062  0.021561182004006696  1.0000
  C   C16       1.0  0.7260646816598779  0.9155205359630045  0.4784437794857225  1.0000
  C   C17       1.0  0.6023950859140967  0.6080750817331902  0.6731660985646996  1.0000
  C   C18       1.0  0.6023991264169763  0.10808578740900286  0.8268410175598006  1.0000
  C   C19       1.0  0.3975996995261042  0.3919212477623972  0.3268368355743121  1.0000
  C   C20       1.0  0.39760334590429375  0.8919242856975412  0.17315635101464716  1.0000
  C   C21       1.0  0.46656263870085  0.576958928343778  0.6040168023328645  1.0000
  C   C22       1.0  0.4665697370027002  0.07696558300599317  0.8959865645857972  1.0000
  C   C23       1.0  0.5334377955503129  0.42303963840482334  0.3959819576859401  1.0000
  C   C24       1.0  0.5334354371778715  0.9230390758432135  0.10400941265814367  1.0000
  C   C25       1.0  0.4456404966961856  0.6407545969732524  0.5302658947521691  1.0000
  C   C26       1.0  0.44563996385251403  0.14076034377151808  0.9697337382263667  1.0000
  C   C27       1.0  0.5543617181400222  0.3592454855083389  0.4697342566342541  1.0000
  C   C28       1.0  0.5543565773306298  0.8592436518234904  0.03026154331364949  1.0000
  C   C29       1.0  0.3156448113031372  0.610325063432853  0.4677882431304211  1.0000
  C   C30       1.0  0.3156392363176579  0.11032527979432419  0.03220896071406539  1.0000
  C   C31       1.0  0.684363039944678  0.38968033145400216  0.5322077341153743  1.0000
  C   C32       1.0  0.684354947286806  0.889672594617174  0.9677849294874078  1.0000
  C   C33       1.0  0.2070751766977637  0.5151243099951088  0.47902463543507406  1.0000
  C   C34       1.0  0.2070697886406236  0.015125445389642798  0.020967023329930595  1.0000
  C   C35       1.0  0.7929291009806007  0.4848811285780172  0.520968559055049  1.0000
  C   C36       1.0  0.7929249843234912  0.9848739593677392  0.9790199099968998  1.0000
  C   C37       1.0  0.22824638447905693  0.45063296071224807  0.5517834991651893  1.0000
  C   C38       1.0  0.22824668751156443  0.950638455772271  0.948208844081918  1.0000
  C   C39       1.0  0.7717534479497202  0.5493671509332073  0.4482089996624693  1.0000
  C   C40       1.0  0.7717540289700295  0.04936395137296759  0.05177600218016919  1.0000
  C   C41       1.0  0.35773968434016007  0.48165980446474066  0.6139077367710115  1.0000
  C   C42       1.0  0.3577387899152953  0.9816676949386576  0.8860890206748592  1.0000
  C   C43       1.0  0.6422589569199245  0.5183403217126423  0.3860882404865435  1.0000
  C   C44       1.0  0.6422625035699453  0.018339317642805494  0.11389791261792938  1.0000
  C   C45       1.0  0.28528600109473234  0.680758127074007  0.3930528712687646  1.0000
  C   C46       1.0  0.2852754938926978  0.18075508294546688  0.10694533297592557  1.0000
  C   C47       1.0  0.7147206589843903  0.3192472823447758  0.606946584406934  1.0000
  C   C48       1.0  0.7147142320895056  0.819240539652526  0.8930534270354611  1.0000
  S   S1        1.0  0.9654361545961334  0.6097313869708855  0.8768097733280624  1.0000
  S   S2        1.0  0.9654364866380405  0.10973721486561056  0.6231935818986185  1.0000
  S   S3        1.0  0.03455773435519658  0.3902657222295716  0.12319316080353097  1.0000
  S   S4        1.0  0.03456959646412369  0.8902635890788488  0.3768093522391496  1.0000
  N   N1        1.0  0.0819561187905363  0.757230433111374  0.7158532172048736  1.0000
  N   N2        1.0  0.08195353653192679  0.2572318054579625  0.7841486070747404  1.0000
  N   N3        1.0  0.9180422401990994  0.24276585272652076  0.2841483255702285  1.0000
  N   N4        1.0  0.918043017080606  0.7427691149419218  0.21585293566509015  1.0000
  N   N5        1.0  0.19984557723419258  0.7422970959880429  0.7817887015175555  1.0000
  N   N6        1.0  0.19984594872074268  0.24229625225871837  0.7182173923561235  1.0000
  N   N7        1.0  0.8001509887810415  0.25770074925483033  0.21821353692929074  1.0000
  N   N8        1.0  0.800158353813053  0.7577030359289263  0.28178762884700587  1.0000
  N   N9        1.0  0.28912860014465736  0.6496648521779707  0.8967670557624243  1.0000
  N   N10       1.0  0.2891281638578248  0.14966634783273486  0.6032421069519315  1.0000
  N   N11       1.0  0.7108688623594472  0.35033221336002635  0.10323518269184717  1.0000
  N   N12       1.0  0.7108791228590975  0.8503313663608623  0.396767088388735  1.0000
  O   O1        1.0  0.7023538436264332  0.696831307987786  0.6614239631679409  1.0000
  O   O2        1.0  0.7023553196264628  0.19684111689340256  0.8385776091743009  1.0000
  O   O3        1.0  0.29764511715223546  0.3031634330008756  0.3385768839323191  1.0000
  O   O4        1.0  0.2976444756242316  0.8031682201802539  0.16141906371169054  1.0000
  O   O5        1.0  0.6158730807064072  0.5505250361708676  0.7402842699812453  1.0000
  O   O6        1.0  0.615897022523285  0.05053717846079309  0.7597306339616592  1.0000
  O   O7        1.0  0.3841133788389044  0.4494683200578677  0.2597193598431317  1.0000
  O   O8        1.0  0.38412243351238107  0.9494703808289412  0.24027160447836585  1.0000
  O   O9        1.0  0.39003649443328914  0.7631966811658939  0.37473098596326787  1.0000
  O   O10       1.0  0.39002825061119495  0.26319259188367267  0.12527221769045838  1.0000
  O   O11       1.0  0.6099731498122762  0.23680715428265128  0.6252691654169735  1.0000
  O   O12       1.0  0.609969236711656  0.7367983233212384  0.8747341949242438  1.0000
  O   O13       1.0  0.14719978125607006  0.6593140735225446  0.35043212230180376  1.0000
  O   O14       1.0  0.1471884915278352  0.1593104604185598  0.1495628888017251  1.0000
  O   O15       1.0  0.8528080699984171  0.3406913213547894  0.6495652463171948  1.0000
  O   O16       1.0  0.8527961873957393  0.8406813801295738  0.8504316971024435  1.0000
