data_image0
_chemical_formula_structural       Hg8H32C40S4I16N8
_chemical_formula_sum              "Hg8 H32 C40 S4 I16 N8"
_cell_length_a       8.863284921391992
_cell_length_b       13.848535122747691
_cell_length_c       17.4231
_cell_angle_alpha    113.63114031268579
_cell_angle_beta     104.76246990828048
_cell_angle_gamma    89.98884010245014

_space_group_name_H-M_alt    "P 1"
_space_group_IT_number       1

loop_
  _space_group_symop_operation_xyz
  'x, y, z'

loop_
  _atom_site_type_symbol
  _atom_site_label
  _atom_site_symmetry_multiplicity
  _atom_site_fract_x
  _atom_site_fract_y
  _atom_site_fract_z
  _atom_site_occupancy
  Hg  Hg1       1.0  0.4013304658890675  0.1928004147700548  0.5001921408702898  1.0000
  Hg  Hg2       1.0  0.5986578487164849  0.6928400408706281  0.5000664991143181  1.0000
  Hg  Hg3       1.0  0.1603238937946045  0.6238849272213756  0.1311352501261638  1.0000
  Hg  Hg4       1.0  0.8378793939674055  0.4922430580862382  0.8681119756373761  1.0000
  Hg  Hg5       1.0  0.4713920596842698  0.1238603769189197  0.13113705196931846  1.0000
  Hg  Hg6       1.0  0.5298449189242902  0.9924873976559495  0.8681699563132241  1.0000
  Hg  Hg7       1.0  0.8176997240056565  0.3437535878267113  0.500417265051361  1.0000
  Hg  Hg8       1.0  0.18229788436197228  0.8433393530577291  0.4994681431016729  1.0000
  H   H1        1.0  0.8554069419099619  0.960095855212522  0.3771513415648187  1.0000
  H   H2        1.0  0.14493705595186407  0.5831477403270355  0.6227504747875442  1.0000
  H   H3        1.0  0.022062955047765294  0.460059402964184  0.3771679337666498  1.0000
  H   H4        1.0  0.9771610798041691  0.0831279508029255  0.6227100283556124  1.0000
  H   H5        1.0  0.1096701034350858  0.0705007796875066  0.4359653085279405  1.0000
  H   H6        1.0  0.8909401684511167  0.6345506576558009  0.5640401635119261  1.0000
  H   H7        1.0  0.8266250416898727  0.5703817131763529  0.4359604786656277  1.0000
  H   H8        1.0  0.1724064321564356  0.134292035751038  0.5639851717186772  1.0000
  H   H9        1.0  0.100360791328832  0.0116599396469184  0.17068881784571488  1.0000
  H   H10       1.0  0.8992089374020721  0.8415437461559989  0.8295711682829392  1.0000
  H   H11       1.0  0.5707421809431638  0.5119717235766075  0.17072884323728496  1.0000
  H   H12       1.0  0.43011576882430086  0.3412668746008904  0.8295244402164315  1.0000
  H   H13       1.0  0.8388274996672395  0.9100973674975705  0.12202033382755673  1.0000
  H   H14       1.0  0.16035112786560998  0.7886753025578911  0.8782219689520615  1.0000
  H   H15       1.0  0.7834520204498078  0.4103378338567012  0.12204494069781185  1.0000
  H   H16       1.0  0.21773176977686154  0.2885666451712154  0.8781736177654479  1.0000
  H   H17       1.0  0.4847713225146961  0.6322654840468758  0.07100864144671702  1.0000
  H   H18       1.0  0.5141770009117721  0.561907527709927  0.9283948036305814  1.0000
  H   H19       1.0  0.086366585333991  0.1322901284540592  0.0708730551187315  1.0000
  H   H20       1.0  0.9140890233292893  0.0623043062916153  0.9286319531546353  1.0000
  H   H21       1.0  0.7404510340349831  0.7416816594460656  0.10836888055720109  1.0000
  H   H22       1.0  0.2587524075882826  0.6339825381058048  0.8911269639868207  1.0000
  H   H23       1.0  0.8680607037259378  0.24165710914360258  0.10829053436686557  1.0000
  H   H24       1.0  0.1321492622846492  0.1343039376969202  0.8913928234964459  1.0000
  H   H25       1.0  0.5994219729841177  0.9798879977475821  0.3219581429139353  1.0000
  H   H26       1.0  0.4009534079213424  0.6581633248182825  0.6783610631598407  1.0000
  H   H27       1.0  0.2229043674127666  0.4797539495430314  0.32197698455927076  1.0000
  H   H28       1.0  0.7769296367011195  0.1577198260208519  0.6781790626894874  1.0000
  H   H29       1.0  0.352908811275725  0.8592141684722207  0.27625435792571557  1.0000
  H   H30       1.0  0.6471613622193928  0.5830929913759846  0.7238964890322208  1.0000
  H   H31       1.0  0.4236698408814306  0.35907773987848657  0.27626886060142647  1.0000
  H   H32       1.0  0.5764376848221815  0.0826725030072595  0.7236833324300775  1.0000
  C   C1        1.0  0.9121114935724464  0.9771084966531163  0.33476998777433653  1.0000
  C   C2        1.0  0.08811901946458528  0.6426471547063031  0.6652347457943931  1.0000
  C   C3        1.0  0.9229428472829895  0.47710219600100595  0.3347708696922638  1.0000
  C   C4        1.0  0.0766340604124451  0.1425472254132742  0.6652068968587413  1.0000
  C   C5        1.0  0.0549187070645232  0.0372483298254451  0.3661284943298284  1.0000
  C   C6        1.0  0.9453821724701471  0.6713498873900505  0.6339182981935139  1.0000
  C   C7        1.0  0.8115068153905227  0.5372419350686144  0.36613261700235  1.0000
  C   C8        1.0  0.188036545295553  0.1711285582490447  0.6338828971875969  1.0000
  C   C9        1.0  0.1306941047014263  0.0530628420474741  0.3092956388570513  1.0000
  C   C10       1.0  0.8695171594537641  0.7442286758643419  0.6908514165303288  1.0000
  C   C11       1.0  0.6788913742823935  0.5531469020793338  0.3092984200933627  1.0000
  C   C12       1.0  0.3209961866769148  0.2439224461760645  0.6907984506925118  1.0000
  C   C13       1.0  0.0494867284220177  0.0041688549101693  0.2190710294318663  1.0000
  C   C14       1.0  0.9503406335628952  0.7856498279152504  0.7811196567039573  1.0000
  C   C15       1.0  0.6699787809327518  0.5044020859970502  0.21909929579334889  1.0000
  C   C16       1.0  0.3305099732130046  0.2853745432862524  0.7810546742811794  1.0000
  C   C17       1.0  0.9057228704285691  0.9455707204608075  0.19051556217050344  1.0000
  C   C18       1.0  0.0938969144810926  0.7555656760463876  0.8096359260478038  1.0000
  C   C19       1.0  0.7851422075288284  0.44576675288865175  0.19054068924852874  1.0000
  C   C20       1.0  0.2154762079270611  0.2554078239500726  0.8095931974316598  1.0000
  C   C21       1.0  0.514731360506751  0.7106278957195329  0.12543667251961918  1.0000
  C   C22       1.0  0.48452939579300386  0.5857629945683556  0.8741734972469715  1.0000
  C   C23       1.0  0.1108843661015513  0.21062238853048137  0.12536085869264474  1.0000
  C   C24       1.0  0.889427893297544  0.0859526792917293  0.8742931143854662  1.0000
  C   C25       1.0  0.6563110386457112  0.7714079594754678  0.1460703743191444  1.0000
  C   C26       1.0  0.34309230201795055  0.6259503115630523  0.8536107640506783  1.0000
  C   C27       1.0  0.9899453198221835  0.2713818222468944  0.14603579905185166  1.0000
  C   C28       1.0  0.0102716469997191  0.1261066708379701  0.8537392626535976  1.0000
  C   C29       1.0  0.6886594189883439  0.8686127384019713  0.218851092653054  1.0000
  C   C30       1.0  0.3111480155135594  0.6502755085522054  0.7810913673217426  1.0000
  C   C31       1.0  0.030411274385109304  0.3685667645969275  0.2188474087165062  1.0000
  C   C32       1.0  0.9696342189449111  0.1501962092986986  0.781087488948742  1.0000
  C   C33       1.0  0.5792411722749193  0.902987938492032  0.26636062373435004  1.0000
  C   C34       1.0  0.4208488805010617  0.6370183277682173  0.73377683325414  1.0000
  C   C35       1.0  0.1874315780858424  0.4028927699773561  0.2663696653305436  1.0000
  C   C36       1.0  0.8125762032339523  0.1367105111538152  0.7336640881546471  1.0000
  C   C37       1.0  0.4411950464501189  0.8363894101269835  0.24043804134863223  1.0000
  C   C38       1.0  0.5586967655114137  0.5962747931693997  0.7595996072996128  1.0000
  C   C39       1.0  0.2995291732737114  0.3362736115727785  0.24041946558591573  1.0000
  C   C40       1.0  0.7006052683248711  0.0959907804467619  0.7594875842021409  1.0000
  S   S1        1.0  0.31144815224774186  0.124365019424225  0.34107742003629227  1.0000
  S   S2        1.0  0.6891069175458427  0.7840271959602987  0.6592482744342973  1.0000
  S   S3        1.0  0.5297736405185702  0.6243832220222103  0.3409520521261696  1.0000
  S   S4        1.0  0.46995313711178005  0.2837082708630803  0.6593288724102209  1.0000
  I   I1        1.0  0.2606533973614802  0.4327785560815514  0.05220628169078625  1.0000
  I   I2        1.0  0.7379031634342326  0.3823198597925739  0.9482766237239914  1.0000
  I   I3        1.0  0.2919389563364447  0.9328546814828229  0.05202446765485295  1.0000
  I   I4        1.0  0.7099015466539597  0.8827498697180047  0.9486415470476075  1.0000
  I   I5        1.0  0.05031980649637549  0.710999236430979  0.2747969747229462  1.0000
  I   I6        1.0  0.9496590531061669  0.43609999244507236  0.7252793754512936  1.0000
  I   I7        1.0  0.724860561989729  0.21106990169555928  0.274884427921414  1.0000
  I   I8        1.0  0.2756209647379393  0.9361856394030497  0.7251444549704046  1.0000
  I   I9        1.0  0.00010782545017919663  0.6982578066351195  6.84812024971379e-05  1.0000
  I   I10       1.0  0.500367143082002  0.1986736283302122  0.0002590011728997985  1.0000
  I   I11       1.0  0.7428100413066688  0.1451997724183514  0.5000828069345644  1.0000
  I   I12       1.0  0.2573062072512542  0.6453147775094975  0.5003084922720404  1.0000
  I   I13       1.0  0.1222011462965398  0.3649192149162985  0.49979150347810736  1.0000
  I   I14       1.0  0.8776271994497122  0.8649747102780481  0.4997795032106183  1.0000
  I   I15       1.0  0.561566136634255  0.4519200589085131  0.5004801903177238  1.0000
  I   I16       1.0  0.4390240205473504  0.9515216934007071  0.5000774095308458  1.0000
  N   N1        1.0  0.83682233864684  0.9321072392815707  0.247884925183797  1.0000
  N   N2        1.0  0.1630867883949847  0.6846864144798985  0.7521635252074503  1.0000
  N   N3        1.0  0.9113492044042957  0.43212553598427667  0.24790424612972828  1.0000
  N   N4        1.0  0.0887028474613558  0.1845460185708774  0.7521293390460925  1.0000
  N   N5        1.0  0.41039818985882454  0.7416967352441759  0.1720124107369969  1.0000
  N   N6        1.0  0.5890691586446765  0.570105588031943  0.8277600531730869  1.0000
  N   N7        1.0  0.2618689966184107  0.2416333052518453  0.1719450531068958  1.0000
  N   N8        1.0  0.7384424304952191  0.0700738965619507  0.8277869069608242  1.0000
