data_image0
_chemical_formula_structural       Sm4H48C44O32
_chemical_formula_sum              "Sm4 H48 C44 O32"
_cell_length_a       5.866191292211285
_cell_length_b       13.333430263830904
_cell_length_c       15.596592648783442
_cell_angle_alpha    93.46638869750316
_cell_angle_beta     90.00015696911731
_cell_angle_gamma    89.99970850557943

_space_group_name_H-M_alt    "P 1"
_space_group_IT_number       1

loop_
  _space_group_symop_operation_xyz
  'x, y, z'

loop_
  _atom_site_type_symbol
  _atom_site_label
  _atom_site_symmetry_multiplicity
  _atom_site_fract_x
  _atom_site_fract_y
  _atom_site_fract_z
  _atom_site_occupancy
  Sm  Sm1       1.0  0.06029252265529549  0.1328280405741964  0.5823468780487816  1.0000
  Sm  Sm2       1.0  0.5602798699968048  0.3671760777781827  0.9176531830508665  1.0000
  Sm  Sm3       1.0  0.9397268312111106  0.8671799749655376  0.4176514248902451  1.0000
  Sm  Sm4       1.0  0.4397173234194369  0.6328176611934141  0.0823469446767007  1.0000
  H   H1        1.0  0.30908312782602104  0.9721624934440525  0.8432750625669883  1.0000
  H   H2        1.0  0.8090788814278439  0.5278322063968659  0.6567279666086776  1.0000
  H   H3        1.0  0.6909277028840319  0.0278372566442897  0.1567247355093428  1.0000
  H   H4        1.0  0.19090126496178778  0.47217054846785805  0.3432751930817589  1.0000
  H   H5        1.0  0.5536401420129023  0.8634225375457589  0.9305361371825002  1.0000
  H   H6        1.0  0.05362990167195389  0.6365721019873761  0.5694703928597633  1.0000
  H   H7        1.0  0.4463689840887212  0.1365734559339558  0.0694621838709608  1.0000
  H   H8        1.0  0.946358768238184  0.36343215430724723  0.430539897452583  1.0000
  H   H9        1.0  0.9039159510359693  0.7846327594271613  0.8630240799367428  1.0000
  H   H10       1.0  0.40389381160382226  0.7153670281805875  0.6369814288989133  1.0000
  H   H11       1.0  0.09609317490524208  0.21536774263181263  0.1369725512868101  1.0000
  H   H12       1.0  0.5960931536039452  0.28463647710359646  0.36302689899670076  1.0000
  H   H13       1.0  0.9886026525910551  0.8056208120630045  0.7103242384417925  1.0000
  H   H14       1.0  0.48858447088123563  0.6943824994255083  0.7896792181114095  1.0000
  H   H15       1.0  0.011401359130317697  0.19438645218192357  0.2896733844222226  1.0000
  H   H16       1.0  0.511400789892967  0.305611238175011  0.21032796238966261  1.0000
  H   H17       1.0  0.6193522235698055  0.37773805578815006  0.5936565044571296  1.0000
  H   H18       1.0  0.11935133215180828  0.12225891175299348  0.9063346336850275  1.0000
  H   H19       1.0  0.3806517881125515  0.6222692088207536  0.4063391949286697  1.0000
  H   H20       1.0  0.8806509753195682  0.8777235594865401  0.09365016324687052  1.0000
  H   H21       1.0  0.42770701099455977  0.46122729431074566  0.6459930774759003  1.0000
  H   H22       1.0  0.9277101533567274  0.0387708066212298  0.8540046795012801  1.0000
  H   H23       1.0  0.5722850680269785  0.5387792179218421  0.354007712263801  1.0000
  H   H24       1.0  0.07227340261251666  0.9612206785649988  0.1459934079468326  1.0000
  H   H25       1.0  0.23860441179212438  0.4943610018218223  0.5065881609423144  1.0000
  H   H26       1.0  0.738613357018494  0.005641953463943099  0.9934099018168396  1.0000
  H   H27       1.0  0.7613774389862795  0.5056507699639781  0.49341290140426264  1.0000
  H   H28       1.0  0.26138724571289623  0.9943517860033922  0.006587661267381907  1.0000
  H   H29       1.0  0.4118050983044696  0.4037596302731927  0.4518518067714155  1.0000
  H   H30       1.0  0.9118147814128647  0.09624351595014956  0.0481425799227964  1.0000
  H   H31       1.0  0.5881852759077615  0.5962491366684476  0.5481458939982815  1.0000
  H   H32       1.0  0.08819945858778057  0.9037547325021292  0.9518513698303934  1.0000
  H   H33       1.0  0.5982803628520158  0.1908052112015425  0.49070501128123584  1.0000
  H   H34       1.0  0.0982716605308624  0.3091930104473093  0.009296684774035701  1.0000
  H   H35       1.0  0.4017355817729396  0.8092005496134932  0.5092963806363856  1.0000
  H   H36       1.0  0.9017204189068763  0.6907999766541266  0.9907059686583609  1.0000
  H   H37       1.0  0.7032568923660278  0.09071955527458185  0.45688191385362137  1.0000
  H   H38       1.0  0.2032422564687977  0.40928306558538446  0.0431183418589853  1.0000
  H   H39       1.0  0.296760756896269  0.9092869571575336  0.5431182346837105  1.0000
  H   H40       1.0  0.7967464135815373  0.5907106728748487  0.9568843505205182  1.0000
  H   H41       1.0  0.8039463887079419  0.21368411087703978  0.7429471452853279  1.0000
  H   H42       1.0  0.3039353768519105  0.28631924404400166  0.757050697946113  1.0000
  H   H43       1.0  0.1960576232475404  0.7863163905596621  0.2570526917438443  1.0000
  H   H44       1.0  0.696065225737854  0.7136797550078239  0.2429471377278034  1.0000
  H   H45       1.0  0.6197929351278617  0.21637868662556772  0.6677617083473351  1.0000
  H   H46       1.0  0.11977830449342969  0.28362429343115986  0.832235510302752  1.0000
  H   H47       1.0  0.3802161906587216  0.783627075139222  0.33223455430650267  1.0000
  H   H48       1.0  0.8802171842464543  0.71636869428734  0.16776393732689607  1.0000
  C   C1        1.0  0.6946763919176958  0.8982835906006411  0.6896229450063132  1.0000
  C   C2        1.0  0.19464889261363535  0.6017231826207592  0.8103811306399535  1.0000
  C   C3        1.0  0.3053463713071949  0.10172667857185763  0.31037803938875197  1.0000
  C   C4        1.0  0.8053363680550731  0.39827205832482093  0.18962292194686375  1.0000
  C   C5        1.0  0.5043137980454659  0.9469401053839376  0.7282541968461302  1.0000
  C   C6        1.0  0.004299387604724799  0.5530617467063833  0.7717496825656909  1.0000
  C   C7        1.0  0.49570044180197204  0.05306866102407069  0.2717467096804924  1.0000
  C   C8        1.0  0.9956892824326076  0.446931991875168  0.22825236865441673  1.0000
  C   C9        1.0  0.4580780722681652  0.9344754557394096  0.8151985600556487  1.0000
  C   C10       1.0  0.958062627342066  0.5655269180336404  0.6848030366416396  1.0000
  C   C11       1.0  0.5419395770028146  0.0655288030703716  0.1847989070199105  1.0000
  C   C12       1.0  0.04192263309253969  0.43447508572015886  0.3151988017800136  1.0000
  C   C13       1.0  0.5969408334191684  0.8751875663484654  0.8638695726038534  1.0000
  C   C14       1.0  0.09693225034801149  0.6248080897928927  0.6361349274003842  1.0000
  C   C15       1.0  0.4030699972388661  0.1248121842251848  0.1361276608348589  1.0000
  C   C16       1.0  0.9030564195708023  0.37519391287939635  0.36387268145018237  1.0000
  C   C17       1.0  0.7907416828980371  0.8303441535870631  0.8260027274279482  1.0000
  C   C18       1.0  0.2907270121351928  0.6696504346341428  0.6739971575988906  1.0000
  C   C19       1.0  0.20926062434930504  0.1696548457126283  0.17399382592429197  1.0000
  C   C20       1.0  0.7092616577460545  0.33035006602767664  0.32600652641248473  1.0000
  C   C21       1.0  0.8390929569317506  0.8419168233109598  0.7395994392554144  1.0000
  C   C22       1.0  0.33908073308221276  0.6580825685333663  0.760402440424528  1.0000
  C   C23       1.0  0.16091446423772027  0.158087435467543  0.2603980278373328  1.0000
  C   C24       1.0  0.6609045275460373  0.34191417515063444  0.23960169004505624  1.0000
  C   C25       1.0  0.7561163668578034  0.8998169665748962  0.5962889493925444  1.0000
  C   C26       1.0  0.25610296678062383  0.600184171806376  0.9037133259303618  1.0000
  C   C27       1.0  0.24389275899379467  0.10018879458326779  0.403710519058322  1.0000
  C   C28       1.0  0.7438891127163599  0.3998080635618777  0.09629121203886372  1.0000
  C   C29       1.0  0.34928609216884604  0.0107832683958122  0.6792776332961452  1.0000
  C   C30       1.0  0.8492643839523308  0.4892211143550255  0.8207245846606028  1.0000
  C   C31       1.0  0.6507349662987635  0.9892292550004455  0.3207228267665344  1.0000
  C   C32       1.0  0.1507157625615889  0.5107741275455098  0.17927433865956033  1.0000
  C   C33       1.0  0.2804082509353663  0.3238174448274124  0.6018066289799577  1.0000
  C   C34       1.0  0.7804157243837296  0.1761812580736191  0.8981904185052515  1.0000
  C   C35       1.0  0.7195940561746708  0.6761890675577789  0.3981935195831525  1.0000
  C   C36       1.0  0.21959851589581794  0.8238109783330145  0.101808990151504  1.0000
  C   C37       1.0  0.4452332108646643  0.4078301949859976  0.5894767015121261  1.0000
  C   C38       1.0  0.9452254290957071  0.09217177045155013  0.9105186266614071  1.0000
  C   C39       1.0  0.554767391495318  0.5921778203750633  0.41052224261780884  1.0000
  C   C40       1.0  0.0547649454373698  0.9078212187072194  0.08947312706397531  1.0000
  C   C41       1.0  0.409286806326662  0.460221268506096  0.5063636886550071  1.0000
  C   C42       1.0  0.9092938501950342  0.0397827315645642  0.9936299536261828  1.0000
  C   C43       1.0  0.5906984536946424  0.5397912556299502  0.4936322833519853  1.0000
  C   C44       1.0  0.0907067523846266  0.9602132628596891  0.006363238166358101  1.0000
  O   O1        1.0  0.3772974106654842  0.0135309433091564  0.5969224788137383  1.0000
  O   O2        1.0  0.8772928336937723  0.4864691029877761  0.9030774878644509  1.0000
  O   O3        1.0  0.6227168292701107  0.9864740663741072  0.4030775918465538  1.0000
  O   O4        1.0  0.12270265496518111  0.5135268902075794  0.0969221155307309  1.0000
  O   O5        1.0  0.1918408553992208  0.06169194522092879  0.7169272311008684  1.0000
  O   O6        1.0  0.6918170596006374  0.4383107235484402  0.7830729123257854  1.0000
  O   O7        1.0  0.8081802031883355  0.9383175723344904  0.28307499667449326  1.0000
  O   O8        1.0  0.3081647916026427  0.5616852694838741  0.21692733225170707  1.0000
  O   O9        1.0  0.8842362083732808  0.9688919331869812  0.5696870853124879  1.0000
  O   O10       1.0  0.38420900090658705  0.5311092366415407  0.9303192087014693  1.0000
  O   O11       1.0  0.11578485030820929  0.031114578770257098  0.4303156278567358  1.0000
  O   O12       1.0  0.6157745552461761  0.4688807444716687  0.0696858536173295  1.0000
  O   O13       1.0  0.7011277379239542  0.8253334310803098  0.5455050639907455  1.0000
  O   O14       1.0  0.2011122295719119  0.6746681221774294  0.9544980762085586  1.0000
  O   O15       1.0  0.2988916160219261  0.17467308135702803  0.45449508454372284  1.0000
  O   O16       1.0  0.7988849640625375  0.3253218588561707  0.0455076272467352  1.0000
  O   O17       1.0  0.7463619993791468  0.15653604271299323  0.48719302743149484  1.0000
  O   O18       1.0  0.2463498171561227  0.3434645873564365  0.012808890089843301  1.0000
  O   O19       1.0  0.2536522405419958  0.8434704694660481  0.5128084034303768  1.0000
  O   O20       1.0  0.7536422622816159  0.6565283997450067  0.9871937633425463  1.0000
  O   O21       1.0  0.772450125856693  0.18911257830166764  0.6829596215892695  1.0000
  O   O22       1.0  0.27243505777278887  0.3108920869256763  0.8170371230462693  1.0000
  O   O23       1.0  0.22755388605254717  0.8108886747469058  0.3170389720624769  1.0000
  O   O24       1.0  0.7275621356434526  0.6891016520459203  0.18296300468129806  1.0000
  O   O25       1.0  0.3478417183009056  0.2493626704713279  0.6471950160249733  1.0000
  O   O26       1.0  0.847832956710114  0.2506356931368074  0.8528036894352908  1.0000
  O   O27       1.0  0.6521759308949198  0.7506453449418731  0.35280392807631966  1.0000
  O   O28       1.0  0.15217105562688  0.749353537033734  0.14719941042953616  1.0000
  O   O29       1.0  0.08421564959467528  0.3203516864957052  0.5690343522222464  1.0000
  O   O30       1.0  0.5842106206593342  0.1796465685984359  0.9309582641938905  1.0000
  O   O31       1.0  0.915773020087151  0.6796533231093489  0.430965718481005  1.0000
  O   O32       1.0  0.4157797538838466  0.8203494251879063  0.0690381334128602  1.0000
