data_image0
_chemical_formula_structural       Zn2H28C36N4O8
_chemical_formula_sum              "Zn2 H28 C36 N4 O8"
_cell_length_a       5.776216193556538
_cell_length_b       9.409989775181376
_cell_length_c       17.611260832322223
_cell_angle_alpha    82.02708478036449
_cell_angle_beta     80.54463380239294
_cell_angle_gamma    72.01448164207288

_space_group_name_H-M_alt    "P 1"
_space_group_IT_number       1

loop_
  _space_group_symop_operation_xyz
  'x, y, z'

loop_
  _atom_site_type_symbol
  _atom_site_label
  _atom_site_symmetry_multiplicity
  _atom_site_fract_x
  _atom_site_fract_y
  _atom_site_fract_z
  _atom_site_occupancy
  Zn  Zn1       1.0  0.5124673899089416  0.2494071984895143  0.7498312377560268  1.0000
  Zn  Zn2       1.0  0.4875432954432099  0.7505957287729783  0.2501610750373047  1.0000
  H   H1        1.0  0.9701652841337983  0.9440021230679817  0.6947745780269654  1.0000
  H   H2        1.0  0.6079176776927186  0.554041458182368  0.8051343645605087  1.0000
  H   H3        1.0  0.0298142856045942  0.056000150198684706  0.305238865461007  1.0000
  H   H4        1.0  0.39209068181983037  0.4459315121610031  0.1948625094197496  1.0000
  H   H5        1.0  0.553885253603454  0.22425181858457677  0.5831156227317749  1.0000
  H   H6        1.0  0.36266563558680803  0.2758664113327995  0.9167708364107054  1.0000
  H   H7        1.0  0.44607688522378225  0.7757504375098563  0.4168800209035767  1.0000
  H   H8        1.0  0.6373509118140176  0.7241226920234708  0.0832195781472223  1.0000
  H   H9        1.0  0.3468033888391916  0.13883357316549189  0.49371903502735387  1.0000
  H   H10       1.0  0.9804912117782437  0.36162179067375877  0.006198291065601331  1.0000
  H   H11       1.0  0.6531392414042894  0.8611697846186315  0.5062850697314545  1.0000
  H   H12       1.0  0.01952222569392597  0.6383427361696475  0.9937945351217152  1.0000
  H   H13       1.0  0.1914193962193309  0.042365453707780894  0.7760284469298852  1.0000
  H   H14       1.0  0.009402355703585321  0.45576456660013054  0.723832331915979  1.0000
  H   H15       1.0  0.8085818284373826  0.9576382085537175  0.223978318020535  1.0000
  H   H16       1.0  0.9906097396711003  0.5442352306794972  0.27616203874320894  1.0000
  H   H17       1.0  0.7061206133948091  0.8905851939739334  0.9778569102073859  1.0000
  H   H18       1.0  0.5742930942745164  0.6113884546067324  0.5227955000260209  1.0000
  H   H19       1.0  0.293855708407392  0.10944327513648489  0.02215788116097169  1.0000
  H   H20       1.0  0.42575182622955055  0.3886407874837656  0.4772080629399725  1.0000
  H   H21       1.0  0.9049858842409008  0.9026612020721742  0.5686235646872149  1.0000
  H   H22       1.0  0.3751742717112947  0.5962015356166858  0.9312205473148438  1.0000
  H   H23       1.0  0.09496779873703093  0.09734314910299698  0.43138831348626633  1.0000
  H   H24       1.0  0.6248403848391245  0.4037613671234368  0.0687772458358609  1.0000
  H   H25       1.0  0.016244390535902736  0.10856812645887  0.9249392188521098  1.0000
  H   H26       1.0  0.04935227382542716  0.38916792464112854  0.5743361315672358  1.0000
  H   H27       1.0  0.9837805261965754  0.8914280007752353  0.07505307121262209  1.0000
  H   H28       1.0  0.950697459653185  0.6108689806255467  0.4256654664538004  1.0000
  C   C1        1.0  0.09897212260562331  0.0051549742818580106  0.6672049089273315  1.0000
  C   C2        1.0  0.7708576603551478  0.4933709467966095  0.8326708696892382  1.0000
  C   C3        1.0  0.901009624481553  0.9948499915741347  0.33280309654528395  1.0000
  C   C4        1.0  0.22915067941863038  0.5066153479426916  0.1673240511200973  1.0000
  C   C5        1.0  0.4222421414305585  0.1620416968679947  0.6051021305138917  1.0000
  C   C6        1.0  0.19038524861166198  0.3377439659880039  0.894759291379053  1.0000
  C   C7        1.0  0.577720048722746  0.8379614042433088  0.39490007846791286  1.0000
  C   C8        1.0  0.8096375713377951  0.6622445925332056  0.10523571119173881  1.0000
  C   C9        1.0  0.6618634111226527  0.03463287570318131  0.8701287427417057  1.0000
  C   C10       1.0  0.5663390231248401  0.46522100503636915  0.6298160752370237  1.0000
  C   C11       1.0  0.33812838505425463  0.9653636789993879  0.12987549124224532  1.0000
  C   C12       1.0  0.4336898371768994  0.5347892402759769  0.3701804478478294  1.0000
  C   C13       1.0  0.13740551224914546  0.03281134269901291  0.5863266568562722  1.0000
  C   C14       1.0  0.7565321931678071  0.4665645404831124  0.9135851339453963  1.0000
  C   C15       1.0  0.8625465679874293  0.9671917212933538  0.4136840022944241  1.0000
  C   C16       1.0  0.24348866486640464  0.5334102968010014  0.0864087287007891  1.0000
  C   C17       1.0  0.3062857588848118  0.11310130257772495  0.5556875200461633  1.0000
  C   C18       1.0  0.9757715374940897  0.3869121975059501  0.9441949265569533  1.0000
  C   C19       1.0  0.6936696384144482  0.8868996615614929  0.444315631039558  1.0000
  C   C20       1.0  0.024242178586213498  0.6130696395153024  0.0558005460414606  1.0000
  C   C21       1.0  0.21984605083008554  0.059795889753473795  0.7132325936767074  1.0000
  C   C22       1.0  0.9927435258892526  0.4387016778663693  0.7866259630423542  1.0000
  C   C23       1.0  0.7801409406717784  0.9402086494911612  0.28677212374783784  1.0000
  C   C24       1.0  0.007260799823527069  0.5612969456817537  0.21336803900626222  1.0000
  C   C25       1.0  0.949891101163452  0.025060097015717986  0.9639920003294761  1.0000
  C   C26       1.0  0.9387238170969141  0.47443026767145813  0.5358343352551954  1.0000
  C   C27       1.0  0.05011662452537992  0.9749514411089492  0.036005671176155815  1.0000
  C   C28       1.0  0.06130907266341282  0.5256069887313115  0.46416990610394754  1.0000
  C   C29       1.0  0.7786097284029122  0.9747027410719937  0.941532435542122  1.0000
  C   C30       1.0  0.6945631273485875  0.5256624795673303  0.5585710811006734  1.0000
  C   C31       1.0  0.22138414006778354  0.025310905111652498  0.0584727547781796  1.0000
  C   C32       1.0  0.3054754382665763  0.4743662604365467  0.4414285491072718  1.0000
  C   C33       1.0  0.004211373626092024  0.980092585625847  0.5382942223911868  1.0000
  C   C34       1.0  0.5222926266076089  0.5194265573897211  0.9616467963069723  1.0000
  C   C35       1.0  0.9957427968685262  0.019908322406408305  0.4617172760123012  1.0000
  C   C36       1.0  0.47771347619183036  0.48054055202513973  0.0383484786756227  1.0000
  N   N1        1.0  0.37899851890335146  0.137726687557219  0.6827174540839565  1.0000
  N   N2        1.0  0.2000377494658992  0.36137002331192747  0.8171421952070688  1.0000
  N   N3        1.0  0.6209815198143783  0.8622774224997227  0.31728389394078255  1.0000
  N   N4        1.0  0.7999851050468076  0.6386305832045948  0.1828497272714316  1.0000
  O   O1        1.0  0.7305558747399413  0.14413886247295687  0.8277690579296291  1.0000
  O   O2        1.0  0.7024175072158629  0.35423301878797986  0.6715532625580278  1.0000
  O   O3        1.0  0.26943983462034976  0.855849596432293  0.1722250343766163  1.0000
  O   O4        1.0  0.2976009740619502  0.6457674824830804  0.3284378202579461  1.0000
  O   O5        1.0  0.49856336761346387  0.9841125659540848  0.8555930530967473  1.0000
  O   O6        1.0  0.3381088260967643  0.5170797776212908  0.6448704367782625  1.0000
  O   O7        1.0  0.5014255429409075  0.01587799881409069  0.14441736584905837  1.0000
  O   O8        1.0  0.661923567274286  0.4829313066981483  0.35512383307845846  1.0000
