data_image0
_chemical_formula_structural       Cu8H48C72S8N8
_chemical_formula_sum              "Cu8 H48 C72 S8 N8"
_cell_length_a       7.899978429
_cell_length_b       10.841654588737276
_cell_length_c       18.949
_cell_angle_alpha    90.0
_cell_angle_beta     90.0
_cell_angle_gamma    110.12813466947638

_space_group_name_H-M_alt    "P 1"
_space_group_IT_number       1

loop_
  _space_group_symop_operation_xyz
  'x, y, z'

loop_
  _atom_site_type_symbol
  _atom_site_label
  _atom_site_symmetry_multiplicity
  _atom_site_fract_x
  _atom_site_fract_y
  _atom_site_fract_z
  _atom_site_occupancy
  Cu  Cu1       1.0  0.6234045921556086  0.5184230606400319  0.4489065386036231  1.0000
  Cu  Cu2       1.0  0.37659596304175114  0.9815782065139516  0.9489065386036231  1.0000
  Cu  Cu3       1.0  0.3765923560720522  0.48157843903999975  0.5510934613963769  1.0000
  Cu  Cu4       1.0  0.6234041927646172  0.018419363701824  0.0510924059317119  1.0000
  Cu  Cu5       1.0  0.8464975520997271  0.4105651609985301  0.509597867961368  1.0000
  Cu  Cu6       1.0  0.15350304615256494  0.0894385359396779  0.0095994511583726  1.0000
  Cu  Cu7       1.0  0.15350171578575095  0.5894412505118254  0.490402132038632  1.0000
  Cu  Cu8       1.0  0.8465001052378439  0.9105600166421581  0.9904016043062925  1.0000
  H   H1        1.0  0.1813497917877598  0.5314138694716561  0.3287556071560473  1.0000
  H   H2        1.0  0.8186519032673869  0.9685844505841388  0.8287540239590498  1.0000
  H   H3        1.0  0.8186509539186202  0.46858763020837557  0.6712449205762852  1.0000
  H   H4        1.0  0.18135112215457375  0.0314111548995157  0.1712454483086177  1.0000
  H   H5        1.0  0.14651531067334383  0.3856258337292928  0.2244055095255675  1.0000
  H   H6        1.0  0.8534851616105  0.11437491611072659  0.7244028708638979  1.0000
  H   H7        1.0  0.8534861109592666  0.6143717364864898  0.7755934350097604  1.0000
  H   H8        1.0  0.14651465623275325  0.8856246188371769  0.2755960736714371  1.0000
  H   H9        1.0  0.8415891368238844  0.24456592585342207  0.1835690537759262  1.0000
  H   H10       1.0  0.15842091211211334  0.25544170054904203  0.6835685260435937  1.0000
  H   H11       1.0  0.15840954116158193  0.7554365561926771  0.8164320016887459  1.0000
  H   H12       1.0  0.8415832931098777  0.7445617638631177  0.3164320016887459  1.0000
  H   H13       1.0  0.507037435028721  0.1687783487404388  0.2000596337537601  1.0000
  H   H14       1.0  0.49296869046010267  0.3312263305638368  0.7000617446830972  1.0000
  H   H15       1.0  0.4929555037255539  0.8312280627699166  0.7999387830492353  1.0000
  H   H16       1.0  0.507037920445917  0.6687741867501344  0.2999387830492353  1.0000
  H   H17       1.0  0.24125897390241852  0.1886869793954347  0.266545991872924  1.0000
  H   H18       1.0  0.7587451698916963  0.311310823346389  0.7665481028022612  1.0000
  H   H19       1.0  0.7587383522306013  0.8113233615791771  0.7334508417330738  1.0000
  H   H20       1.0  0.24125772956180916  0.6886818350390698  0.23345031400074132  1.0000
  H   H21       1.0  0.2982034622064588  0.3489030255212029  0.3664974404981791  1.0000
  H   H22       1.0  0.7017954923142325  0.1510918301224322  0.8664990236951838  1.0000
  H   H23       1.0  0.7017936119896503  0.6511014212570245  0.6335004485724838  1.0000
  H   H24       1.0  0.2982036096605468  0.8489008282630265  0.1334999208401513  1.0000
  H   H25       1.0  0.19075785562683475  0.18590000687159147  0.5166087920206905  1.0000
  H   H26       1.0  0.8092407609307484  0.3140968135041717  0.0166066810913534  1.0000
  H   H27       1.0  0.8092385027008077  0.8140975633441839  0.48339331890864656  1.0000
  H   H28       1.0  0.19076365628590247  0.6859017390776714  0.9833933189086466  1.0000
  H   H29       1.0  0.06942122096124585  0.9798590659017846  0.44616919098633195  1.0000
  H   H30       1.0  0.9305757487520478  0.5201372894218821  0.9461697187186645  1.0000
  H   H31       1.0  0.9305781329504439  0.0201394866800584  0.5538313367460006  1.0000
  H   H32       1.0  0.06942499695433917  0.4798642102581495  0.0538318644783331  1.0000
  H   H33       1.0  0.27733626888593216  0.8921534236991704  0.3813441342551087  1.0000
  H   H34       1.0  0.7226698135479594  0.6078488258208807  0.8813451897197737  1.0000
  H   H35       1.0  0.7226704679885498  0.1078500407129894  0.6186553380125588  1.0000
  H   H36       1.0  0.2773304682268574  0.3921516914930905  0.1186569212095634  1.0000
  H   H37       1.0  0.5898039161338813  0.9253544495674646  0.3398184600770477  1.0000
  H   H38       1.0  0.4101963871265752  0.5746409233901346  0.8398189878093802  1.0000
  H   H39       1.0  0.41019763146718435  0.0746460677464995  0.6601841785846219  1.0000
  H   H40       1.0  0.5898011110588541  0.42535369972745224  0.1601825953876173  1.0000
  H   H41       1.0  0.9191160773019786  0.0588063973289934  0.3425690010026941  1.0000
  H   H42       1.0  0.0808889943552629  0.4411933701449584  0.842569001002694  1.0000
  H   H43       1.0  0.08088745199378877  0.9412009965474226  0.657432054461978  1.0000
  H   H44       1.0  0.9191102335879718  0.558802235338689  0.1574309989973059  1.0000
  H   H45       1.0  0.02247644046948948  0.2609449152401169  0.4188912343659297  1.0000
  H   H46       1.0  0.9775231039512206  0.23905386986777438  0.9188912343659297  1.0000
  H   H47       1.0  0.9775186919741612  0.7390634610023668  0.5811077101694053  1.0000
  H   H48       1.0  0.022479119576061614  0.7609427179819405  0.0811103488310749  1.0000
  C   C1        1.0  0.8986600070482992  0.48349307049892326  0.3456736503245565  1.0000
  C   C2        1.0  0.10134379878270038  0.0165066969750285  0.8456720671275519  1.0000
  C   C3        1.0  0.10134453613680709  0.5165084291811084  0.6543252942107785  1.0000
  C   C4        1.0  0.8986558930920978  0.9834898908746864  0.154325821943111  1.0000
  C   C5        1.0  0.04703279738438941  0.4735230373144006  0.309783629742995  1.0000
  C   C6        1.0  0.9529713464097255  0.026474765427423098  0.8097815188136579  1.0000
  C   C7        1.0  0.9529716198322686  0.5264755152674425  0.6902168979893375  1.0000
  C   C8        1.0  0.04702961129131467  0.9735218224222919  0.1902168979893375  1.0000
  C   C9        1.0  0.026404232808516805  0.3892242406220774  0.2513388569317669  1.0000
  C   C10       1.0  0.9736005008856167  0.11077749158400249  0.7513378014670948  1.0000
  C   C11       1.0  0.9736001844081411  0.6107743119597657  0.7486606153359006  1.0000
  C   C12       1.0  0.02640277647324747  0.8892240080960292  0.24866219853290522  1.0000
  C   C13       1.0  0.8573863234231707  0.3109149298225589  0.2284252467148633  1.0000
  C   C14       1.0  0.14261794633939928  0.18908582001746044  0.7284236635178658  1.0000
  C   C15       1.0  0.1426147602463246  0.6890846051253446  0.7715768642144738  1.0000
  C   C16       1.0  0.8573839392247746  0.8109127325643826  0.2715758087498017  1.0000
  C   C17       1.0  0.7021278657592801  0.3162599835773108  0.2640149875982871  1.0000
  C   C18       1.0  0.2978738723508058  0.1837407662627086  0.7640155153306267  1.0000
  C   C19       1.0  0.29787001033151467  0.6837434808348489  0.7359839569370408  1.0000
  C   C20       1.0  0.7021280132133609  0.8162577863191345  0.2359844846693733  1.0000
  C   C21       1.0  0.5247270074184839  0.2364594410924923  0.24443295160694592  1.0000
  C   C22       1.0  0.47527426676003853  0.2635403263814595  0.7444345348039505  1.0000
  C   C23       1.0  0.475270868672311  0.7635440233196746  0.7555644097313845  1.0000
  C   C24       1.0  0.524724623220088  0.736457243834316  0.255564937463717  1.0000
  C   C25       1.0  0.37910506437636116  0.24812700283577263  0.2803488310728781  1.0000
  C   C26       1.0  0.62089701169684  0.2518717822721115  0.7803498865375502  1.0000
  C   C27       1.0  0.620892009819755  0.7518774439424476  0.7196480025331127  1.0000
  C   C28       1.0  0.37910508586199393  0.7481218584794078  0.2196474748007802  1.0000
  C   C29       1.0  0.4101922546200071  0.33794276734406736  0.3366103752176883  1.0000
  C   C30       1.0  0.5898077537322732  0.1620570001298844  0.8366114306823604  1.0000
  C   C31       1.0  0.5898052835076725  0.6620626618002206  0.6633869861206421  1.0000
  C   C32       1.0  0.41019193814252464  0.8379395877198306  0.1633869861206421  1.0000
  C   C33       1.0  0.7219058785001948  0.404815372425368  0.3221916723837666  1.0000
  C   C34       1.0  0.2780991931570468  0.09518439504858378  0.8221911446514341  1.0000
  C   C35       1.0  0.2780944032746219  0.5951851448886032  0.6778083276162334  1.0000
  C   C36       1.0  0.7219022284755636  0.9048131751671917  0.1778083276162334  1.0000
  C   C37       1.0  0.46618825644299017  0.2175508590907427  0.4919985223494621  1.0000
  C   C38       1.0  0.5338074904989936  0.2824479260171415  0.9919995778141343  1.0000
  C   C39       1.0  0.5338044303743814  0.7824496582232285  0.5080009499181983  1.0000
  C   C40       1.0  0.46619359317050163  0.7175516089307621  0.0080020053828704  1.0000
  C   C41       1.0  0.2822659484750503  0.14867029777443008  0.4874616074726887  1.0000
  C   C42       1.0  0.7177315282247462  0.3513294696995217  0.9874631906696933  1.0000
  C   C43       1.0  0.717727878200108  0.8513272724413453  0.5125383925273113  1.0000
  C   C44       1.0  0.2822687535500705  0.6486710476144495  0.0125383925273113  1.0000
  C   C45       1.0  0.2143659875053245  0.0323886091332923  0.447439970446986  1.0000
  C   C46       1.0  0.7856305613313379  0.4676091936085314  0.9474394427146534  1.0000
  C   C47       1.0  0.7856338303379288  0.9676109258146183  0.5525589740883419  1.0000
  C   C48       1.0  0.21437098626972065  0.5323913237054327  0.052561085017679  1.0000
  C   C49       1.0  0.3288569027828884  0.9843396375201292  0.4104934297324405  1.0000
  C   C50       1.0  0.6711405308619687  0.5156577001695978  0.9104934297324405  1.0000
  C   C51       1.0  0.6711471764706544  0.0156608797938418  0.589507097999892  1.0000
  C   C52       1.0  0.32886008887595597  0.48434085241223807  0.0895076257322316  1.0000
  C   C53       1.0  0.5169317907960931  0.0546686714670201  0.4109799989445335  1.0000
  C   C54       1.0  0.48306695172994546  0.44533109600693166  0.910979471212201  1.0000
  C   C55       1.0  0.4830706846680997  0.9453338105790792  0.5890200010554665  1.0000
  C   C56       1.0  0.51693413193955  0.5546684389409718  0.0890221119848036  1.0000
  C   C57       1.0  0.6406267937593808  0.0144653402938317  0.3713662990131397  1.0000
  C   C58       1.0  0.35937435445068633  0.48553148008192437  0.8713657712808072  1.0000
  C   C59       1.0  0.3593786772888591  0.985538124118328  0.6286347564515253  1.0000
  C   C60       1.0  0.6406240715978768  0.5144651077677835  0.1286352841838649  1.0000
  C   C61       1.0  0.8219157688127223  0.0875612343911882  0.3730671803261387  1.0000
  C   C62       1.0  0.17808710915515044  0.4124365683506355  0.8730666525938062  1.0000
  C   C63       1.0  0.1780846389305495  0.9124422300209716  0.6269344028708659  1.0000
  C   C64       1.0  0.821912920682763  0.5875580547669513  0.1269333474061938  1.0000
  C   C65       1.0  0.8801460182790632  0.2007121223860509  0.4155016095836217  1.0000
  C   C66       1.0  0.11985605779413787  0.2992866627218405  0.9155016095836216  1.0000
  C   C67       1.0  0.11985071795393759  0.7992942891243047  0.5844994458810504  1.0000
  C   C68       1.0  0.8801460397646961  0.700706978029686  0.0844989181487179  1.0000
  C   C69       1.0  0.5871900199381483  0.17180010675360077  0.452240751490841  1.0000
  C   C70       1.0  0.41280998841412503  0.32819966072035095  0.952241806955513  1.0000
  C   C71       1.0  0.4128042706685732  0.8281984458282423  0.5477603039738241  1.0000
  C   C72       1.0  0.5871928250131758  0.6718008565936202  0.0477603039738241  1.0000
  S   S1        1.0  0.9244246851222468  0.5871159900381073  0.4196031452847109  1.0000
  S   S2        1.0  0.07557587007511302  0.9128852771158762  0.9196026175523784  1.0000
  S   S3        1.0  0.07557272703697748  0.41288649200799193  0.5803973824476216  1.0000
  S   S4        1.0  0.9244268173837398  0.0871122930998993  0.0803979101799541  1.0000
  S   S5        1.0  0.552991512934419  0.35815298438074444  0.5454467254208666  1.0000
  S   S6        1.0  0.4470063017284858  0.14184481836107918  0.0454483086178712  1.0000
  S   S7        1.0  0.44700497136167167  0.6418475329332267  0.4545532745791334  1.0000
  S   S8        1.0  0.5529963857303598  0.8581527518546962  0.9545522191144685  1.0000
  N   N1        1.0  0.5745520236092074  0.4126762656702708  0.3574932714127428  1.0000
  N   N2        1.0  0.4254479847430729  0.08732350180368087  0.8574959100744124  1.0000
  N   N3        1.0  0.42544424869223  0.587329163474017  0.6425035621932551  1.0000
  N   N4        1.0  0.5745525090264109  0.9126721036799735  0.1425035621932551  1.0000
  N   N5        1.0  0.7680268335569593  0.24189880198940017  0.4534133727373444  1.0000
  N   N6        1.0  0.2319731747953213  0.2581009654845587  0.953413900469684  1.0000
  N   N7        1.0  0.23196804694978107  0.7581036800566991  0.5465866272626556  1.0000
  N   N8        1.0  0.7680290487319608  0.7418956223651563  0.046586099530316  1.0000
