data_image0
_chemical_formula_structural       Co4H16C32N16O8
_chemical_formula_sum              "Co4 H16 C32 N16 O8"
_cell_length_a       4.945171380174376
_cell_length_b       10.27143736780639
_cell_length_c       16.9699657070023
_cell_angle_alpha    89.9999430482866
_cell_angle_beta     90.0000263978932
_cell_angle_gamma    98.97283176657567

_space_group_name_H-M_alt    "P 1"
_space_group_IT_number       1

loop_
  _space_group_symop_operation_xyz
  'x, y, z'

loop_
  _atom_site_type_symbol
  _atom_site_label
  _atom_site_symmetry_multiplicity
  _atom_site_fract_x
  _atom_site_fract_y
  _atom_site_fract_z
  _atom_site_occupancy
  Co  Co1       1.0  0.7081931163435655  0.6463820605849193  0.3437689625817556  1.0000
  Co  Co2       1.0  0.29180853997424805  0.8536177330012152  0.8437692934437211  1.0000
  Co  Co3       1.0  0.2918094214000321  0.353618464737913  0.65623105662867  1.0000
  Co  Co4       1.0  0.7081919750581565  0.1463827906563395  0.15623072576656236  1.0000
  H   H1        1.0  0.115109814954522  0.7115907254812797  0.222218863811186  1.0000
  H   H2        1.0  0.8848893718710472  0.7884082705856627  0.7222181348972543  1.0000
  H   H3        1.0  0.8848903841967444  0.2884088125423006  0.7777811553993746  1.0000
  H   H4        1.0  0.1151111431610374  0.2115922530723537  0.27778129503665383  1.0000
  H   H5        1.0  0.2859815921792332  0.6126600309865111  0.10405249063580874  1.0000
  H   H6        1.0  0.7140177832723964  0.8873401352101454  0.6040522685589452  1.0000
  H   H7        1.0  0.7140165842608468  0.3873395053717914  0.895947528574617  1.0000
  H   H8        1.0  0.2859830476411389  0.1126613740813838  0.39594775065106813  1.0000
  H   H9        1.0  0.13331209688041676  0.6702874133985545  0.970337065743131  1.0000
  H   H10       1.0  0.8666883047913814  0.829714152176869  0.4703366458370725  1.0000
  H   H11       1.0  0.8666884181519877  0.32971311025899996  0.02966295346715951  1.0000
  H   H12       1.0  0.1333122102407032  0.17028637148114706  0.5296627840968284  1.0000
  H   H13       1.0  0.6100300653513101  0.9198451931427551  0.07503114740410413  1.0000
  H   H14       1.0  0.38997161743883163  0.5801560056652518  0.5750304774078646  1.0000
  H   H15       1.0  0.38997247239259997  0.08015533217961492  0.9249694610827037  1.0000
  H   H16       1.0  0.6100268748823793  0.4198445163270178  0.4249695418022912  1.0000
  C   C1        1.0  0.7304240286528411  0.8777701908369052  0.22613518591983722  1.0000
  C   C2        1.0  0.2695754782714275  0.6222297847493437  0.7261344744621925  1.0000
  C   C3        1.0  0.2695761704987447  0.12222934718621303  0.7738654225671058  1.0000
  C   C4        1.0  0.7304250367609768  0.377770738908211  0.2738655447480981  1.0000
  C   C5        1.0  0.8519702427693973  0.8242107906740583  0.15727237214422735  1.0000
  C   C6        1.0  0.14802887411450874  0.6757883067950415  0.6572722014374295  1.0000
  C   C7        1.0  0.148029640500738  0.17578776171554714  0.8427276470666103  1.0000
  C   C8        1.0  0.8519716409178956  0.324212216862513  0.3427278177728611  1.0000
  C   C9        1.0  0.042839450792357125  0.7368179365707732  0.16430889345554794  1.0000
  C   C10       1.0  0.9571579668392687  0.7631821338806829  0.6643087786883871  1.0000
  C   C11       1.0  0.9571587256477231  0.26318159978752925  0.8356911257548847  1.0000
  C   C12       1.0  0.0428428640739469  0.23681937541130788  0.33569065124524416  1.0000
  C   C13       1.0  0.14128658273018152  0.6815998556358238  0.09716617638989793  1.0000
  C   C14       1.0  0.8587107625942991  0.8184003196472812  0.5971660151970186  1.0000
  C   C15       1.0  0.8587095709987056  0.318399679057201  0.9028338428203927  1.0000
  C   C16       1.0  0.14129209103042942  0.1816011913095252  0.4028340040131298  1.0000
  C   C17       1.0  0.05766344530140795  0.7152623877029356  0.022382273527505006  1.0000
  C   C18       1.0  0.9423355263171088  0.7847369203734331  0.5223821438035757  1.0000
  C   C19       1.0  0.9423347311386719  0.28473714865536687  0.9776177456829206  1.0000
  C   C20       1.0  0.057667011426481465  0.21526360494939198  0.47761787540684275  1.0000
  C   C21       1.0  0.7664231075973335  0.8568735552225848  0.08215376046840821  1.0000
  C   C22       1.0  0.233576560152045  0.6431276307994764  0.5821530316097497  1.0000
  C   C23       1.0  0.2335753847241904  0.1431269667692305  0.9178468480181227  1.0000
  C   C24       1.0  0.7664259775912328  0.3568728945238178  0.41784639832428655  1.0000
  C   C25       1.0  0.872646895151739  0.804852517689504  0.014709922731142907  1.0000
  C   C26       1.0  0.12735440679627894  0.6951477896656613  0.5147091483276756  1.0000
  C   C27       1.0  0.127353303999854  0.1951470203336143  0.9852906857558074  1.0000
  C   C28       1.0  0.8726481309473186  0.304852735657171  0.485290870882743  1.0000
  C   C29       1.0  0.7695142028064694  0.8394224901012848  0.9364177196834549  1.0000
  C   C30       1.0  0.23048584645588482  0.660578142799281  0.4364173162109923  1.0000
  C   C31       1.0  0.2304842895150543  0.16057803189053033  0.06358288880308292  1.0000
  C   C32       1.0  0.7695143526953814  0.3394213952242993  0.5635827029995754  1.0000
  N   N1        1.0  0.6472657245494986  0.996903392468937  0.22922177419557246  1.0000
  N   N2        1.0  0.3527337856991295  0.5030965782976226  0.7292217348440746  1.0000
  N   N3        1.0  0.3527324518905814  0.0030961438893655005  0.7707782450148533  1.0000
  N   N4        1.0  0.6472667293332749  0.49690394535993215  0.27077828436620893  1.0000
  N   N5        1.0  0.5330950026691781  0.007421016057819  0.30109315817121296  1.0000
  N   N6        1.0  0.46690623391263125  0.4925790275251387  0.8010934289110385  1.0000
  N   N7        1.0  0.46690753507409977  0.9925795092654681  0.6989062717628232  1.0000
  N   N8        1.0  0.533094281119773  0.5074214961324158  0.19890659029925226  1.0000
  N   N9        1.0  0.6679668320708032  0.8168551258212275  0.29559615362284575  1.0000
  N   N10       1.0  0.3320327496574507  0.68314474131342  0.7955960031687186  1.0000
  N   N11       1.0  0.3320333670807898  0.18314441220189076  0.7044044548640971  1.0000
  N   N12       1.0  0.6679677653749537  0.31685578234412765  0.20440401604157202  1.0000
  N   N13       1.0  0.545800848125225  0.900452172455118  0.3408932065152471  1.0000
  N   N14       1.0  0.4541973914353009  0.5995495935587202  0.8408931227415339  1.0000
  N   N15       1.0  0.4541979600771242  0.09954933517113315  0.6591068126946313  1.0000
  N   N16       1.0  0.5458031235974232  0.4004509300983725  0.15910748574513894  1.0000
  O   O1        1.0  0.5259491310937535  0.8674066164953516  0.9350605914232306  1.0000
  O   O2        1.0  0.4740506008263026  0.632593032889659  0.43506082673088303  1.0000
  O   O3        1.0  0.47405106805751984  0.1325929215282287  0.06493942778733702  1.0000
  O   O4        1.0  0.5259495983249636  0.3674065051339213  0.5649391924796777  1.0000
  O   O5        1.0  0.9114039763663302  0.8401029894586287  0.8735979202560674  1.0000
  O   O6        1.0  0.08859802795551266  0.6598977431893615  0.3735974981629654  1.0000
  O   O7        1.0  0.0885968545472124  0.1598985198328933  0.12640209895394613  1.0000
  O   O8        1.0  0.9114041939069466  0.3401017964994963  0.6264025210477302  1.0000
