data_image0
_chemical_formula_structural       Ag4H56C72N8O8
_chemical_formula_sum              "Ag4 H56 C72 N8 O8"
_cell_length_a       9.249356708151378
_cell_length_b       12.396832704867162
_cell_length_c       14.273399181393675
_cell_angle_alpha    86.93265704689786
_cell_angle_beta     81.80986160091906
_cell_angle_gamma    68.0922908931709

_space_group_name_H-M_alt    "P 1"
_space_group_IT_number       1

loop_
  _space_group_symop_operation_xyz
  'x, y, z'

loop_
  _atom_site_type_symbol
  _atom_site_label
  _atom_site_symmetry_multiplicity
  _atom_site_fract_x
  _atom_site_fract_y
  _atom_site_fract_z
  _atom_site_occupancy
  Ag  Ag1       1.0  0.27289096782355665  0.24033129230468125  0.33158937283236156  1.0000
  Ag  Ag2       1.0  0.4870198831758327  0.2400374268287422  0.1682814927799683  1.0000
  Ag  Ag3       1.0  0.7271090294224222  0.7596710072606998  0.668409554353012  1.0000
  Ag  Ag4       1.0  0.5129818529833371  0.7599613949620334  0.8317174349527363  1.0000
  H   H1        1.0  0.9242490261309867  0.3084462015589224  0.3590909883928076  1.0000
  H   H2        1.0  0.767456669107787  0.3083886175105164  0.14109806163796887  1.0000
  H   H3        1.0  0.07574854542858107  0.691554358962101  0.6409089075565717  1.0000
  H   H4        1.0  0.23254116859659743  0.6916110720235834  0.858908154582572  1.0000
  H   H5        1.0  0.7600933781916054  0.43450747491956326  0.33809037879289144  1.0000
  H   H6        1.0  0.8054054922697842  0.4344964417340833  0.1620379380566561  1.0000
  H   H7        1.0  0.23990486950832932  0.5654939552117784  0.6619087260314485  1.0000
  H   H8        1.0  0.19459609403740064  0.5655023786848972  0.8379666075732217  1.0000
  H   H9        1.0  0.7954046895156918  0.3924381381069467  0.45565009197444784  1.0000
  H   H10       1.0  0.8124092009244489  0.3923462425379398  0.0445007768333241  1.0000
  H   H11       1.0  0.2045928633123777  0.6075624222426016  0.5443505062120764  1.0000
  H   H12       1.0  0.18759218143366477  0.6076508391700203  0.9555031555841393  1.0000
  H   H13       1.0  0.7128957972365624  0.5740298694328345  0.24993413674722118  1.0000
  H   H14       1.0  0.2870995713171635  0.4259706909263274  0.7500666389414332  1.0000
  H   H15       1.0  0.20239651403340986  0.0606100626480739  0.36284411804924577  1.0000
  H   H16       1.0  0.7369088611972073  0.0609714447691161  0.13702659817604257  1.0000
  H   H17       1.0  0.7976010762576491  0.9393904980444319  0.6371550756629887  1.0000
  H   H18       1.0  0.26309590996139315  0.9390256379532714  0.8629728545653491  1.0000
  H   H19       1.0  0.7328243727314069  0.7233129226168487  0.4695217713077895  1.0000
  H   H20       1.0  0.5438440476237713  0.7231451197174156  0.030187378936567217  1.0000
  H   H21       1.0  0.2671727079053665  0.2766885068334091  0.5304802312162025  1.0000
  H   H22       1.0  0.45615393993259784  0.2768545711884869  0.9698132193867933  1.0000
  H   H23       1.0  0.6716879433534754  0.6104679265269299  0.4453047510384777  1.0000
  H   H24       1.0  0.7178897979536385  0.6103555641847933  0.05448371756246929  1.0000
  H   H25       1.0  0.3283119683336578  0.38953002514391244  0.5546971632817801  1.0000
  H   H26       1.0  0.2821103926085654  0.38964412688296324  0.9455160010216161  1.0000
  H   H27       1.0  0.9282919889817264  0.11627812420661598  0.329861439364798  1.0000
  H   H28       1.0  0.9553974944453709  0.1165783228303496  0.1699234416142232  1.0000
  H   H29       1.0  0.07170760036608911  0.883720697936724  0.670136261395747  1.0000
  H   H30       1.0  0.04460039345224908  0.8834239774305462  0.8300728541246938  1.0000
  H   H31       1.0  0.4032602550896482  0.9754576907880762  0.4718263171133045  1.0000
  H   H32       1.0  0.6211970423082316  0.9756296866569728  0.028231937176336437  1.0000
  H   H33       1.0  0.5967384086070879  0.024542869728144002  0.5281734900850096  1.0000
  H   H34       1.0  0.37880403644206245  0.024368265694960197  0.9717670794442694  1.0000
  H   H35       1.0  0.9486568675904575  0.8033101071485547  0.40283766013776295  1.0000
  H   H36       1.0  0.24807260236611464  0.8031063890513651  0.09704755295106075  1.0000
  H   H37       1.0  0.051345016323295974  0.19669045283882272  0.5971639875188044  1.0000
  H   H38       1.0  0.7519288842823284  0.19689504072260888  0.9029526900943806  1.0000
  H   H39       1.0  0.2214259137135101  0.8014644039147502  0.3858078345825147  1.0000
  H   H40       1.0  0.9771402373612187  0.8012604105626622  0.11417680520260379  1.0000
  H   H41       1.0  0.7785762571739523  0.19853354843237267  0.614191093287026  1.0000
  H   H42       1.0  0.022862397618887066  0.1987410197209343  0.885821242380338  1.0000
  H   H43       1.0  0.4197434863763616  0.4269352128776518  0.3520691566898647  1.0000
  H   H44       1.0  0.15351195243925983  0.4267021378969389  0.1479385489798517  1.0000
  H   H45       1.0  0.5802567041858422  0.573064478190112  0.6479305618942204  1.0000
  H   H46       1.0  0.8464879511492283  0.5733001608110726  0.8520638893912603  1.0000
  H   H47       1.0  0.4514792940659332  0.6186906978168736  0.3619574942930014  1.0000
  H   H48       1.0  0.9299507523362536  0.6184478343512652  0.13810788149426395  1.0000
  H   H49       1.0  0.5485213686875594  0.3813081241501805  0.6380408199536232  1.0000
  H   H50       1.0  0.07004920744672914  0.3815544648711722  0.8618924501654062  1.0000
  H   H51       1.0  0.6234855460374503  0.89725292681549  0.3865817610453987  1.0000
  H   H52       1.0  0.47938880764387165  0.8971843202016458  0.11291778394639351  1.0000
  H   H53       1.0  0.37651422852794514  0.102747633867402  0.6134172551647125  1.0000
  H   H54       1.0  0.5206125125184966  0.10281537120425811  0.8870804414123298  1.0000
  H   H55       1.0  0.4975396144441288  0.0050181738490309  0.24971218318869148  1.0000
  H   H56       1.0  0.5024616682552364  0.9949815172139225  0.7502874466443357  1.0000
  C   C1        1.0  0.8530246440256374  0.3970971727066798  0.3835103682879222  1.0000
  C   C2        1.0  0.7499999657507883  0.39702938890134487  0.1166142945040747  1.0000
  C   C3        1.0  0.14697360367429  0.6029042574246617  0.6164887365364179  1.0000
  C   C4        1.0  0.2500005284192284  0.602969431522439  0.8833903398768752  1.0000
  C   C5        1.0  0.9562278313212146  0.464773709472148  0.3809110979963321  1.0000
  C   C6        1.0  0.5791282099708894  0.4646348332660821  0.11908582378021035  1.0000
  C   C7        1.0  0.04377043511021837  0.5352277208306758  0.6190873045908631  1.0000
  C   C8        1.0  0.42087184947082784  0.5353648566013547  0.8809188104639034  1.0000
  C   C9        1.0  0.6655747051476552  0.668821844845283  0.24986332457463326  1.0000
  C   C10       1.0  0.33442326367721614  0.331177845889144  0.7501379759858792  1.0000
  C   C11       1.0  0.16555759531908623  0.5092491838076826  0.3721242843547329  1.0000
  C   C12       1.0  0.3253406538888014  0.509053847376393  0.1278257515393335  1.0000
  C   C13       1.0  0.834441446911455  0.49075050675046583  0.6278776296918592  1.0000
  C   C14       1.0  0.6746595098432592  0.49095019055706507  0.8721751933327582  1.0000
  C   C15       1.0  0.03390459564050008  0.6145996434490472  0.38716050169132626  1.0000
  C   C16       1.0  0.35158414415940326  0.6144139341075032  0.11272912092301365  1.0000
  C   C17       1.0  0.9660955574587077  0.3854000472757661  0.6128406213670488  1.0000
  C   C18       1.0  0.6484162128888825  0.38558749532833053  0.8872726153477827  1.0000
  C   C19       1.0  0.6733471429584195  0.7283873208709652  0.32824672390821513  1.0000
  C   C20       1.0  0.5983089513316456  0.7283136465930368  0.1714112982066567  1.0000
  C   C21       1.0  0.3266504286011409  0.2716132396500583  0.6717531720411711  1.0000
  C   C22       1.0  0.4016923126362214  0.2716860442984411  0.8285890338635082  1.0000
  C   C23       1.0  0.1736050172240481  0.023837900218239796  0.4310956370291307  1.0000
  C   C24       1.0  0.8024580926517542  0.0241008530231142  0.06882341725005149  1.0000
  C   C25       1.0  0.8263951733381488  0.9761617908495167  0.5689040815549545  1.0000
  C   C26       1.0  0.19754281151381275  0.975899707997918  0.9311741057346976  1.0000
  C   C27       1.0  0.7401383372603334  0.6625181600373082  0.41412434731968517  1.0000
  C   C28       1.0  0.597380816047952  0.6623933895973622  0.08563344455560437  1.0000
  C   C29       1.0  0.2598607237017061  0.33748153069230824  0.5858768644897552  1.0000
  C   C30       1.0  0.40261933705125585  0.33760630112745105  0.9143676785027708  1.0000
  C   C31       1.0  0.7499331382892861  0.07751261988283181  0.4225143756230238  1.0000
  C   C32       1.0  0.17258169398468223  0.07754161504291801  0.0772895887134695  1.0000
  C   C33       1.0  0.2500648679985814  0.9224870711945458  0.5774855204631919  1.0000
  C   C34       1.0  0.8274207745093417  0.9224580768726085  0.922706441182754  1.0000
  C   C35       1.0  0.9004025774577895  0.07667283455717208  0.3965730158454263  1.0000
  C   C36       1.0  0.022877030857983982  0.07688595326691681  0.10324591527973577  1.0000
  C   C37       1.0  0.09959633574965908  0.9233251179758497  0.6034254760401581  1.0000
  C   C38       1.0  0.9771226253171788  0.9231172165994936  0.8967495005830769  1.0000
  C   C39       1.0  0.6235258142772364  0.1350725557203916  0.3605264199831666  1.0000
  C   C40       1.0  0.24135955416630844  0.13524645695137852  0.13915889544061597  1.0000
  C   C41       1.0  0.3764708959243846  0.8649253966507688  0.639472951641693  1.0000
  C   C42       1.0  0.7586433677875134  0.864752365691963  0.860836432355292  1.0000
  C   C43       1.0  0.2857091540650669  0.9746751742712123  0.49070367866908526  1.0000
  C   C44       1.0  0.7395265255301594  0.9748202507242495  0.009361161837283291  1.0000
  C   C45       1.0  0.7142910364971299  0.02532451679655171  0.5092960399150002  1.0000
  C   C46       1.0  0.26047609881709377  0.025176832350695105  0.9906370639319417  1.0000
  C   C47       1.0  0.04964946194840537  0.7218278175422483  0.3921859758015032  1.0000
  C   C48       1.0  0.22855684625838515  0.7216444688712687  0.107679684716345  1.0000
  C   C49       1.0  0.9503513298281799  0.27817274244993234  0.6078157606061295  1.0000
  C   C50       1.0  0.7714435482528896  0.2783569609075158  0.8923206470801543  1.0000
  C   C51       1.0  0.20288999374698571  0.7200145562590524  0.38254469054152196  1.0000
  C   C52       1.0  0.07715852614798972  0.7198147506979712  0.11736260474776118  1.0000
  C   C53       1.0  0.7971106315435105  0.2799842653650586  0.6174550281793998  1.0000
  C   C54       1.0  0.9228419058262816  0.2801866794237641  0.8826363225744556  1.0000
  C   C55       1.0  0.31840220644320266  0.5083389347216709  0.36386504039951006  1.0000
  C   C56       1.0  0.1734116787622924  0.508114777159868  0.13613787334287508  1.0000
  C   C57       1.0  0.6815990575246715  0.4916607561698072  0.6361352916706622  1.0000
  C   C58       1.0  0.8265900118352363  0.49188839132513357  0.8638629829149804  1.0000
  C   C59       1.0  0.3345029578562447  0.615170535278949  0.3693129097585056  1.0000
  C   C60       1.0  0.05044155533964558  0.6149411238547912  0.1306812543514155  1.0000
  C   C61       1.0  0.6654981208940427  0.3848274170729836  0.630686106862093  1.0000
  C   C62       1.0  0.9495573872321543  0.38506117605834317  0.8693163571107333  1.0000
  C   C63       1.0  0.6150696577948764  0.8498323734980104  0.32678438678273375  1.0000
  C   C64       1.0  0.5352217030801683  0.8497720450740474  0.17273429632587062  1.0000
  C   C65       1.0  0.3849290059018599  0.15016818701820972  0.6732154204155804  1.0000
  C   C66       1.0  0.4647817638935409  0.1502276459792924  0.827265156005026  1.0000
  C   C67       1.0  0.01859730743002789  0.025515357224030297  0.45582236025850154  1.0000
  C   C68       1.0  0.9558274162792272  0.025674247431794597  0.04409092728369048  1.0000
  C   C69       1.0  0.9814022257233006  0.9744834644048839  0.544177447213478  1.0000
  C   C70       1.0  0.04417088761519459  0.97432718321398  0.9559060708292078  1.0000
  C   C71       1.0  0.5448804886439901  0.9102967997115172  0.24972986713759573  1.0000
  C   C72       1.0  0.4551203780585808  0.08970376096655741  0.7502690603214502  1.0000
  N   N1        1.0  0.9034009530598722  0.5830329693853571  0.39388847717475517  1.0000
  N   N2        1.0  0.5136505691356489  0.5828859974841195  0.10601552647448634  1.0000
  N   N3        1.0  0.0965992187708338  0.41696672151092423  0.606111943646475  1.0000
  N   N4        1.0  0.48634954650056256  0.4171136928977432  0.8939870010581926  1.0000
  N   N5        1.0  0.11295943462918956  0.4185670657605414  0.3677132152458355  1.0000
  N   N6        1.0  0.4686639961941877  0.41838305495991085  0.13228673727431325  1.0000
  N   N7        1.0  0.8870392103360485  0.5814334945842033  0.6322872941896306  1.0000
  N   N8        1.0  0.5313348152571321  0.581619243752904  0.8677157898478638  1.0000
  O   O1        1.0  0.48787420146586385  0.1326051313124808  0.39163552860589584  1.0000
  O   O2        1.0  0.379342724372158  0.132921546150115  0.1079009379442795  1.0000
  O   O3        1.0  0.5121211858193602  0.8673954292181563  0.6083645448456136  1.0000
  O   O4        1.0  0.6206582547193946  0.8670790155568114  0.8920937760918761  1.0000
  O   O5        1.0  0.6592742697817328  0.18157385674747667  0.2837359460386962  1.0000
  O   O6        1.0  0.15925732393417744  0.1817243187525648  0.21596498577494566  1.0000
  O   O7        1.0  0.34072567936839687  0.8184240952663091  0.7162645638072647  1.0000
  O   O8        1.0  0.8407505384183549  0.8182710254158537  0.7840328852636913  1.0000
