data_image0
_chemical_formula_structural       Zn4H64C48N16Cl8
_chemical_formula_sum              "Zn4 H64 C48 N16 Cl8"
_cell_length_a       8.632292404
_cell_length_b       11.294315616274854
_cell_length_c       15.8088
_cell_angle_alpha    90.0
_cell_angle_beta     90.0
_cell_angle_gamma    103.96753647676736

_space_group_name_H-M_alt    "P 1"
_space_group_IT_number       1

loop_
  _space_group_symop_operation_xyz
  'x, y, z'

loop_
  _atom_site_type_symbol
  _atom_site_label
  _atom_site_symmetry_multiplicity
  _atom_site_fract_x
  _atom_site_fract_y
  _atom_site_fract_z
  _atom_site_occupancy
  Zn  Zn1       1.0  0.9646822270441149  0.2185400167493015  0.6804045847882205  1.0000
  Zn  Zn2       1.0  0.5353170360546429  0.2814584984927677  0.18040331967005585  1.0000
  Zn  Zn3       1.0  0.0353145392500949  0.781457013734844  0.3195960477708653  1.0000
  Zn  Zn4       1.0  0.46468232935373516  0.7185430938801076  0.8195973128890228  1.0000
  H   H1        1.0  0.505329110397227  0.0846212111881073  0.6450382065684934  1.0000
  H   H2        1.0  0.9946701527015379  0.4153773040539691  0.1450394716866583  1.0000
  H   H3        1.0  0.4946690965703199  0.9153803811847752  0.3549636911087504  1.0000
  H   H4        1.0  0.005328348302846609  0.5846215511856698  0.8549617934315066  1.0000
  H   H5        1.0  0.046283299340664996  0.9903997289737347  0.7321896665148557  1.0000
  H   H6        1.0  0.4537167564509943  0.5095994662634737  0.2321915641920924  1.0000
  H   H7        1.0  0.953714049125047  0.0095954767549173  0.26780970092606526  1.0000
  H   H8        1.0  0.5462794217695547  0.4904030384871518  0.7678097009260652  1.0000
  H   H9        1.0  0.22166512024624305  0.9350895652543586  0.7422726582662804  1.0000
  H   H10       1.0  0.2783340652392567  0.5649105423606002  0.24227012802995765  1.0000
  H   H11       1.0  0.7783345391989727  0.0649092899852874  0.25772923941096326  1.0000
  H   H12       1.0  0.7216618248466277  0.43509105001228227  0.7577286068518774  1.0000
  H   H13       1.0  0.03680555511852649  0.939875898909989  0.5761537877637792  1.0000
  H   H14       1.0  0.4632011631834559  0.5601223839494764  0.07615378776377917  1.0000
  H   H15       1.0  0.9632027896818444  0.060124781085143304  0.4238455796771419  1.0000
  H   H16       1.0  0.5367987843964173  0.4398773836679127  0.9238455796771419  1.0000
  H   H17       1.0  0.20231065534032674  0.8758798990484707  0.5888233135974871  1.0000
  H   H18       1.0  0.29769721550033523  0.6241220333219744  0.08882268103840828  1.0000
  H   H19       1.0  0.7976971072885561  0.1241226057021549  0.4111760538434268  1.0000
  H   H20       1.0  0.702304178655048  0.37587864667315785  0.9111760538434266  1.0000
  H   H21       1.0  0.8852285450920264  0.7908608911630992  0.6842486463235673  1.0000
  H   H22       1.0  0.6147790590637783  0.7091337421853794  0.1842505440008111  1.0000
  H   H23       1.0  0.11477517184717813  0.20913613932104622  0.3157462932037873  1.0000
  H   H24       1.0  0.3852229172630929  0.2908651130542665  0.81574882344011  1.0000
  H   H25       1.0  0.046596710857791414  0.7204992317675831  0.6891693234148093  1.0000
  H   H26       1.0  0.4534117480565315  0.7794972263363888  0.1891705885329671  1.0000
  H   H27       1.0  0.9534061357752535  0.2794987110943126  0.3108268812307102  1.0000
  H   H28       1.0  0.546590804539683  0.2205034536587434  0.8108275137897891  1.0000
  H   H29       1.0  0.8538353721438483  0.7419766039089524  0.5280634836293743  1.0000
  H   H30       1.0  0.6461707795343018  0.7580207665727628  0.0280641161884532  1.0000
  H   H31       1.0  0.1461712320441961  0.2580259008416732  0.4719320884570593  1.0000
  H   H32       1.0  0.3538364068252449  0.24197991342236952  0.9719358838115466  1.0000
  H   H33       1.0  0.8362404680878797  0.6076235065406479  0.5900416223875311  1.0000
  H   H34       1.0  0.6637680004719331  0.8923738639410674  0.09004162238753108  1.0000
  H   H35       1.0  0.16376497765933354  0.39237899820997774  0.4099545822579812  1.0000
  H   H36       1.0  0.3362386096182775  0.1076249912985716  0.9099590101715478  1.0000
  H   H37       1.0  0.01386965041221087  0.6694307121894596  0.5332801983705266  1.0000
  H   H38       1.0  0.48613649162044237  0.8305657459145124  0.0332827286068493  1.0000
  H   H39       1.0  0.9861349309310016  0.3305690554279295  0.4667147411568209  1.0000
  H   H40       1.0  0.5138698244329305  0.1694358464583701  0.9667166388340647  1.0000
  H   H41       1.0  0.6803994949082296  0.3022880824344654  0.6057569201963486  1.0000
  H   H42       1.0  0.819601502900696  0.1977122575630972  0.10576008299175037  1.0000
  H   H43       1.0  0.3195966833123194  0.6977144223161602  0.3942405495673285  1.0000
  H   H44       1.0  0.18040018529151067  0.8022856852987985  0.8942418146854934  1.0000
  H   H45       1.0  0.5808223072006555  0.42186795933917415  0.6009494711806054  1.0000
  H   H46       1.0  0.9191760855919426  0.0781314682806453  0.1009513688578494  1.0000
  H   H47       1.0  0.4191712660035591  0.5781336330337083  0.3990511613784733  1.0000
  H   H48       1.0  0.08082531446559932  0.9218655622035001  0.8990543241738747  1.0000
  H   H49       1.0  0.38655398250001843  0.1440124405654473  0.4794108344719419  1.0000
  H   H50       1.0  0.1134496165819172  0.3559842499211356  0.9794114670310206  1.0000
  H   H51       1.0  0.6134439363328639  0.8559882394296849  0.5205897980871439  1.0000
  H   H52       1.0  0.8865497606307926  0.6440100434297733  0.020590430646223  1.0000
  H   H53       1.0  0.3887740835802447  0.1372389481789753  0.3238398866454162  1.0000
  H   H54       1.0  0.1112240114321921  0.3627586546853507  0.8238411517635738  1.0000
  H   H55       1.0  0.6112218065056396  0.8627626441939074  0.6761607459136696  1.0000
  H   H56       1.0  0.8887742014375206  0.637239288176545  0.1761601133545838  1.0000
  H   H57       1.0  0.733851594208538  0.46530808858280187  0.3090917716714756  1.0000
  H   H58       1.0  0.7661433232615593  0.0346913390370176  0.8090949344668772  1.0000
  H   H59       1.0  0.2661384977710242  0.5346971533010603  0.6909069632103666  1.0000
  H   H60       1.0  0.23385749462448055  0.9653075162026213  0.1909082283285244  1.0000
  H   H61       1.0  0.7485991686275709  0.4851586912030186  0.4646728404432991  1.0000
  H   H62       1.0  0.7513951666710312  0.014842561172294202  0.9646766357977867  1.0000
  H   H63       1.0  0.25139063521731936  0.5148456383031004  0.5353258944385431  1.0000
  H   H64       1.0  0.24860421054167864  0.9851517321786147  0.0353233642022133  1.0000
  C   C1        1.0  0.2511079622074633  0.09778590968546301  0.6711401244876285  1.0000
  C   C2        1.0  0.24889447253147523  0.4022144303120996  0.1711388593694636  1.0000
  C   C3        1.0  0.7488928497764179  0.9022165950651626  0.3288624057486942  1.0000
  C   C4        1.0  0.7511028700320708  0.5977844249275392  0.8288598755123715  1.0000
  C   C5        1.0  0.4097532254041242  0.1320037246722947  0.6467423207327556  1.0000
  C   C6        1.0  0.09024892120014978  0.3679957029475247  0.1467429532918345  1.0000
  C   C7        1.0  0.5902449815634229  0.8679978677005806  0.3532602095035671  1.0000
  C   C8        1.0  0.9097542194697257  0.6319995027811345  0.8532589443854091  1.0000
  C   C9        1.0  0.15196500828231765  0.9769394200866659  0.6980378017306845  1.0000
  C   C10       1.0  0.3480350475093417  0.5230597751505428  0.19803653661251985  1.0000
  C   C11       1.0  0.8480343630282264  0.023058522775230003  0.301964095946559  1.0000
  C   C12       1.0  0.6519628713235408  0.4769409048445894  0.8019628308284013  1.0000
  C   C13       1.0  0.09716212164225621  0.8925618137567497  0.6218441627448001  1.0000
  C   C14       1.0  0.4028469135413957  0.6074364691027156  0.121844795303879  1.0000
  C   C15       1.0  0.9028462231581217  0.1074388662383825  0.3781539395779561  1.0000
  C   C16       1.0  0.5971530340384845  0.3925632985146734  0.878154572137035  1.0000
  C   C17       1.0  0.9844806181453692  0.7716699376532574  0.6469839583017032  1.0000
  C   C18       1.0  0.5155278504144434  0.7283274328284578  0.1469845908607894  1.0000
  C   C19       1.0  0.015525991944841198  0.2283289175863814  0.3530128789028878  1.0000
  C   C20       1.0  0.48447441404709934  0.2716723347889314  0.8530147765801315  1.0000
  C   C21       1.0  0.9183269151371434  0.6934572677532174  0.570463286270936  1.0000
  C   C22       1.0  0.5816818415573337  0.806541015106248  0.0704651839481798  1.0000
  C   C23       1.0  0.08168055935706783  0.3065443246196651  0.4295310206973326  1.0000
  C   C24       1.0  0.4183241863613745  0.1934596648888913  0.9295348160518202  1.0000
  C   C25       1.0  0.5731822590813493  0.3273967180050121  0.5815254794797864  1.0000
  C   C26       1.0  0.9268170040174086  0.1726017972370641  0.0815273771570233  1.0000
  C   C27       1.0  0.4268139191391995  0.6726057867456205  0.4184745205202133  1.0000
  C   C28       1.0  0.07318381977079724  0.8273934084915952  0.9184745205202132  1.0000
  C   C29       1.0  0.566676707439008  0.31667536711150035  0.4863310308182776  1.0000
  C   C30       1.0  0.9333214031210847  0.18331949861959632  0.9863322959364424  1.0000
  C   C31       1.0  0.4333157073243754  0.6833262252613821  0.5136683366226433  1.0000
  C   C32       1.0  0.06667537497744998  0.8166702328425899  0.013667704063557596  1.0000
  C   C33       1.0  0.46585665479076976  0.218052807032926  0.4450647740498965  1.0000
  C   C34       1.0  0.0341457799481688  0.2819475329646366  0.945067304286219  1.0000
  C   C35       1.0  0.5341406818706176  0.7819496977176996  0.5549358585091824  1.0000
  C   C36       1.0  0.9658527210562085  0.7180513222750022  0.0549358585091824  1.0000
  C   C37       1.0  0.4655404438602631  0.21372813651677805  0.357366150498457  1.0000
  C   C38       1.0  0.03445649271134241  0.286269466347548  0.8573680481757007  1.0000
  C   C39       1.0  0.5344537115154537  0.7862716311006039  0.6426319518242989  1.0000
  C   C40       1.0  0.9655370863950381  0.7137284765143478  0.14263321694246395  1.0000
  C   C41       1.0  0.6580644244974893  0.39632868147251094  0.3490638125600966  1.0000
  C   C42       1.0  0.8419322394871003  0.10366527188083552  0.8490663427964191  1.0000
  C   C43       1.0  0.3419253852495672  0.6036719985226213  0.6509342897626667  1.0000
  C   C44       1.0  0.1580653971132762  0.8963308462255668  0.15093365720358065  1.0000
  C   C45       1.0  0.6656241771465332  0.4066796070011378  0.43671372906229766  1.0000
  C   C46       1.0  0.8343797138133979  0.09332255775192522  0.9367149941804553  1.0000
  C   C47       1.0  0.3343717070371852  0.5933256348827314  0.5632875360558671  1.0000
  C   C48       1.0  0.16562718441147695  0.906677209865464  0.0632875360558671  1.0000
  N   N1        1.0  0.1910420173302398  0.198376468562202  0.6597508982338951  1.0000
  N   N2        1.0  0.3089589708332028  0.3016229590576174  0.15974900055665125  1.0000
  N   N3        1.0  0.8089550370986415  0.8016214742996937  0.3402516320024275  1.0000
  N   N4        1.0  0.6910424233221806  0.6983777209375148  0.8402497343251838  1.0000
  N   N5        1.0  0.3014256793562851  0.2913851683694944  0.629901700318811  1.0000
  N   N6        1.0  0.19857530880715052  0.20861425925032512  0.1299010677597323  1.0000
  N   N7        1.0  0.6985699225949348  0.7086155116256379  0.3700982996811887  1.0000
  N   N8        1.0  0.8014269556543925  0.791385508367064  0.870097034563031  1.0000
  N   N9        1.0  0.4337386721722183  0.25041667043984017  0.6222591215019477  1.0000
  N   N10       1.0  0.06626318629739102  0.24958184480222917  0.12226038662011257  1.0000
  N   N11       1.0  0.5662580882198327  0.7495840095552921  0.3777415110571312  1.0000
  N   N12       1.0  0.9337393662988234  0.7504188351929032  0.8777408784980523  1.0000
  N   N13       1.0  0.5589586990618614  0.3017479548088247  0.3098691867820449  1.0000
  N   N14       1.0  0.9410440393593974  0.19825056043325162  0.8098704519002098  1.0000
  N   N15       1.0  0.4410406663465167  0.6982536375640578  0.69013207833612  1.0000
  N   N16       1.0  0.05895532604898786  0.8017510319396237  0.1901308132179551  1.0000
  Cl  Cl1       1.0  0.9623675918398434  0.4128810385408528  0.6569606801275254  1.0000
  Cl  Cl2       1.0  0.5376302246834186  0.0871165643234804  0.1569581498912029  1.0000
  Cl  Cl3       1.0  0.0376291744543664  0.5871159919432998  0.34303995243156027  1.0000
  Cl  Cl4       1.0  0.46237029916579797  0.9128850280494021  0.843041217549718  1.0000
  Cl  Cl5       1.0  0.7852891956244292  0.07263621711635442  0.613949825413691  1.0000
  Cl  Cl6       1.0  0.7147149834701737  0.4273668600144518  0.1139542533272575  1.0000
  Cl  Cl7       1.0  0.21470901134311762  0.9273653752565281  0.3860476443499792  1.0000
  Cl  Cl8       1.0  0.2852878513585466  0.5726383818694103  0.8860508071453879  1.0000
