data_image0
_chemical_formula_structural       Zn4H82C84N16O22
_chemical_formula_sum              "Zn4 H82 C84 N16 O22"
_cell_length_a       19.414779167002713
_cell_length_b       19.177225059848556
_cell_length_c       19.123874966271714
_cell_angle_alpha    108.80659203374842
_cell_angle_beta     106.72735586553743
_cell_angle_gamma    109.56950072892747

_space_group_name_H-M_alt    "P 1"
_space_group_IT_number       1

loop_
  _space_group_symop_operation_xyz
  'x, y, z'

loop_
  _atom_site_type_symbol
  _atom_site_label
  _atom_site_symmetry_multiplicity
  _atom_site_fract_x
  _atom_site_fract_y
  _atom_site_fract_z
  _atom_site_occupancy
  Zn  Zn1       1.0  0.9774301501776179  0.09056748380641717  0.6134888043082255  1.0000
  Zn  Zn2       1.0  0.9928975373765425  0.87888339685405  0.3960781520233282  1.0000
  Zn  Zn3       1.0  0.8753174653708982  0.8729159424971015  0.5062164317059795  1.0000
  Zn  Zn4       1.0  0.10210022264296732  0.10169789884383822  0.5061723666460338  1.0000
  H   H1        1.0  0.08117126688956232  0.13965912851256954  0.8622856546123429  1.0000
  H   H2        1.0  0.5851396638164061  0.7000304196845875  0.8605637465080348  1.0000
  H   H3        1.0  0.5700315820242992  0.7807703981895815  0.9213018907390308  1.0000
  H   H4        1.0  0.49412197353719745  0.6936883421168789  0.732291765140225  1.0000
  H   H5        1.0  0.48110562541340574  0.7750756346444374  0.7929226719747786  1.0000
  H   H6        1.0  0.6336740991708396  0.8723602828061133  0.8583955668438319  1.0000
  H   H7        1.0  0.5893354678418987  0.8320584660290891  0.7497468191645353  1.0000
  H   H8        1.0  0.6461568903334721  0.7903311428348444  0.7967465904910397  1.0000
  H   H9        1.0  0.46585947406952505  0.7747532304734649  0.9746101415279323  1.0000
  H   H10       1.0  0.40897185015544574  0.420838188716857  0.8517036608723599  1.0000
  H   H11       1.0  0.2054661578517667  0.8564392690234897  0.37507307757076086  1.0000
  H   H12       1.0  0.9379089766632516  0.8628018422527859  0.15097435707725995  1.0000
  H   H13       1.0  0.764566540506287  0.1220878095636735  0.546237207460436  1.0000
  H   H14       1.0  0.7379612217170647  0.5668691532705735  0.439009173938956  1.0000
  H   H15       1.0  0.8050038170937484  0.5719297049552594  0.3914426572653511  1.0000
  H   H16       1.0  0.7074338832661269  0.6695277079712909  0.39940031609872767  1.0000
  H   H17       1.0  0.7743980823217527  0.6757024731718886  0.3528647296030982  1.0000
  H   H18       1.0  0.6858733110636095  0.5220822899567993  0.25100031583632904  1.0000
  H   H19       1.0  0.6303625981541927  0.5786769722565169  0.24507879918159858  1.0000
  H   H20       1.0  0.6172542165226602  0.5159840706494878  0.2961020544968989  1.0000
  H   H21       1.0  0.11435516080629066  0.24497036695884586  0.37227737126157473  1.0000
  H   H22       1.0  0.11871775289503723  0.3132766616132799  0.4641009029051729  1.0000
  H   H23       1.0  0.3985394926815644  0.43425860595289123  0.0034824950408634836  1.0000
  H   H24       1.0  0.9850275396619351  0.2373295467392822  0.2879541985535069  1.0000
  H   H25       1.0  0.9857350776775036  0.3033094767211963  0.3780619504342795  1.0000
  H   H26       1.0  0.11861130271292103  0.4194527495460179  0.4105218952176982  1.0000
  H   H27       1.0  0.04315454223672078  0.3865494989876623  0.31149597245273236  1.0000
  H   H28       1.0  0.11966402667754752  0.3543219539725656  0.3207243549304408  1.0000
  H   H29       1.0  0.3516822753257287  0.30529582321904775  0.5753827878770678  1.0000
  H   H30       1.0  0.3633784736781962  0.34600393156092935  0.6783444834446043  1.0000
  H   H31       1.0  0.3222764951092429  0.4165227401851936  0.5578981752266259  1.0000
  H   H32       1.0  0.3251159280715825  0.45421907419162727  0.6568119247190792  1.0000
  H   H33       1.0  0.4727828887582745  0.4930165873411241  0.7242644369017623  1.0000
  H   H34       1.0  0.3559613948038418  0.4932983946877059  0.051700646678483494  1.0000
  H   H35       1.0  0.4582722651655757  0.5413911440539039  0.6605064025038699  1.0000
  H   H36       1.0  0.4726681488981654  0.45187790718077286  0.6265598197135915  1.0000
  H   H37       1.0  0.6154104279396863  0.8291914181848696  0.36767264446763903  1.0000
  H   H38       1.0  0.6190134958875928  0.7608828798239029  0.28142968927408424  1.0000
  H   H39       1.0  0.6141013419694089  0.9255468996329554  0.3074541861843016  1.0000
  H   H40       1.0  0.6207451582902621  0.8610737676047008  0.22180919444298297  1.0000
  H   H41       1.0  0.48670833918300355  0.7412049791773471  0.18436404641997936  1.0000
  H   H42       1.0  0.4752443793418309  0.8290997102537007  0.18407205225759077  1.0000
  H   H43       1.0  0.47856138244151236  0.8070621995072074  0.2680972324824751  1.0000
  H   H44       1.0  0.12244575148113067  0.768628761053698  0.5173271169722041  1.0000
  H   H45       1.0  0.4833210864840041  0.45065399764396114  0.13914546055518437  1.0000
  H   H46       1.0  0.017067593542620305  0.338429606914019  0.667293291309754  1.0000
  H   H47       1.0  0.21532996562473977  0.3514769196717609  0.8464843768893074  1.0000
  H   H48       1.0  0.7813269986379581  0.7004135110752115  0.15227741254645358  1.0000
  H   H49       1.0  0.3835206053619231  0.1975264156341154  0.7189237443317678  1.0000
  H   H50       1.0  0.37061339892203193  0.0958706429412928  0.6627332813351288  1.0000
  H   H51       1.0  0.2673193874417806  0.13537788188276073  0.7495314300531459  1.0000
  H   H52       1.0  0.2526290597956518  0.03417541646608411  0.6929808065230956  1.0000
  H   H53       1.0  0.3938599061582693  0.07255709256958202  0.7924078048550526  1.0000
  H   H54       1.0  0.3340907506253003  0.08735630056725088  0.845000807293246  1.0000
  H   H55       1.0  0.40982870402014276  0.17473075093347754  0.8498368539442109  1.0000
  H   H56       1.0  0.44143114393236255  0.5083259605972827  0.18760993504332651  1.0000
  H   H57       1.0  0.5779705980301628  0.7415151839477119  0.4794355056029715  1.0000
  H   H58       1.0  0.578061938932244  0.8296117687745196  0.46662531060356816  1.0000
  H   H59       1.0  0.6384601936019293  0.8240407304541433  0.6309101537956463  1.0000
  H   H60       1.0  0.6509450205319214  0.916468130911369  0.6227804000760813  1.0000
  H   H61       1.0  0.4992768298788803  0.8567961286541887  0.5462234913425306  1.0000
  H   H62       1.0  0.5260894914279746  0.8581014736515726  0.6434410777516816  1.0000
  H   H63       1.0  0.4839665759342182  0.7627931352945082  0.5529938948874431  1.0000
  H   H64       1.0  0.8211195160286239  0.770629127533532  0.6217008007140521  1.0000
  H   H65       1.0  0.8775505535213525  0.8511685400378539  0.7265040890267612  1.0000
  H   H66       1.0  0.8897071881104638  0.6894903672628415  0.6613886269713374  1.0000
  H   H67       1.0  0.3006605081333191  0.3823086405030338  0.09999484966532887  1.0000
  H   H68       1.0  0.9403183622596742  0.7680169378339061  0.7654625270728914  1.0000
  H   H69       1.0  0.802764514226261  0.7408779786189469  0.7657613197513198  1.0000
  H   H70       1.0  0.8145162302298132  0.6494961147080788  0.7423384907363441  1.0000
  H   H71       1.0  0.7530707515165815  0.6607536575171339  0.6622536769371405  1.0000
  H   H72       1.0  0.2638317976597833  0.2210457830516788  0.3730305106335621  1.0000
  H   H73       1.0  0.2062447746253184  0.1196463675181221  0.2859995065537149  1.0000
  H   H74       1.0  0.2999983543696558  0.1555937291106346  0.46407771550728677  1.0000
  H   H75       1.0  0.24799371883754864  0.0571597413411808  0.37609526871515436  1.0000
  H   H76       1.0  0.3449825575100008  0.11205181069179562  0.3186842054861572  1.0000
  H   H77       1.0  0.3979509716059155  0.12086960350046637  0.4164128550904138  1.0000
  H   H78       1.0  0.37007721330470383  0.35748521529151134  0.15697047751400098  1.0000
  H   H79       1.0  0.39781861399332996  0.21046911535966473  0.4081355209676332  1.0000
  H   H80       1.0  0.347940329592241  0.6610457505777205  0.01221186876780681  1.0000
  H   H81       1.0  0.5975626336864792  0.5559381535569443  0.9155768560589123  1.0000
  H   H82       1.0  0.3425597868687404  0.3246617370612626  0.05055444915350899  1.0000
  C   C1        1.0  0.0320249675289048  0.05466012011588361  0.7522473279848468  1.0000
  C   C2        1.0  0.4732890938918075  0.6365498136450398  0.9065793928855256  1.0000
  C   C3        1.0  0.4087333515499625  0.6059488084156756  0.9814014706141874  1.0000
  C   C4        1.0  0.5393879102044963  0.6128085828299135  0.9490684973815957  1.0000
  C   C5        1.0  0.29142456199437555  0.4103238768990566  0.7729268685950927  1.0000
  C   C6        1.0  0.6772518706315225  0.748163948764727  0.17875468948116682  1.0000
  C   C7        1.0  0.47041086495337947  0.5332145029981774  0.9374393807510727  1.0000
  C   C8        1.0  0.47900819846583426  0.6863016859991974  0.9938616220475466  1.0000
  C   C9        1.0  0.4030480546833246  0.5549923905758405  0.8937484186249661  1.0000
  C   C10       1.0  0.5454997027690355  0.6644573395116781  0.03760089483717625  1.0000
  C   C11       1.0  0.33451297115905737  0.4850493536971641  0.8230826977278126  1.0000
  C   C12       1.0  0.9935780870700269  0.9422872704146029  0.2636255466761953  1.0000
  C   C13       1.0  0.6184197295191467  0.7144437433303424  0.11159145866169244  1.0000
  C   C14       1.0  0.3243308206322126  0.9993896049455487  0.5036486691865604  1.0000
  C   C15       1.0  0.6500166711489256  0.9844834927595228  0.5189374588311536  1.0000
  C   C16       1.0  0.1720111931891068  0.9250360742306185  0.4374486132611679  1.0000
  C   C17       1.0  0.7958119299696945  0.0386752632041905  0.5464183337674624  1.0000
  C   C18       1.0  0.3884624247263631  0.001901545203274701  0.5025052736226385  1.0000
  C   C19       1.0  0.5892087200631336  0.9946710527531335  0.5115748558992478  1.0000
  C   C20       1.0  0.45781429926650224  0.0026947514715018996  0.5038329789799505  1.0000
  C   C21       1.0  0.5217227333047276  0.0011084473754223998  0.5061180401357673  1.0000
  C   C22       1.0  0.03469655265566018  0.3468223568448749  0.5391303750255289  1.0000
  C   C23       1.0  0.2495810922952444  0.9917444927954051  0.49944978204277385  1.0000
  C   C24       1.0  0.003382983510768207  0.6602222305150107  0.522945851780257  1.0000
  C   C25       1.0  0.04164202947325182  0.41546116199275934  0.5459081481305857  1.0000
  C   C26       1.0  0.02144007589711797  0.607560676612998  0.5344267176281149  1.0000
  C   C27       1.0  0.04127281787887686  0.48515060190300124  0.5464992371871418  1.0000
  C   C28       1.0  0.035569388380537206  0.5465071528333354  0.5428484835931897  1.0000
  C   C29       1.0  0.031230947033066093  0.9817500892422046  0.8400415336017488  1.0000
  C   C30       1.0  0.05885333150568779  0.9995192498856795  0.18559044631138027  1.0000
  C   C31       1.0  0.042016828678988774  0.981824918842264  0.906916287591386  1.0000
  C   C32       1.0  0.05761079960542044  0.991021672593739  0.11829547397186958  1.0000
  C   C33       1.0  0.04999217025774539  0.9824877773885563  0.9789559856082589  1.0000
  C   C34       1.0  0.7198263619394041  0.9756986470569019  0.5296613682722296  1.0000
  C   C35       1.0  0.054886343346701894  0.9859333221182212  0.046126107703855765  1.0000
  C   C36       1.0  0.9090051645427053  0.7242426078998321  0.49538180283474986  1.0000
  C   C37       1.0  0.0186044273438029  0.19839623772095652  0.47227448048514725  1.0000
  C   C38       1.0  0.21896828923804884  0.272168770212687  0.6389834534585501  1.0000
  C   C39       1.0  0.7676437952292829  0.8423668403587143  0.3350614836840506  1.0000
  C   C40       1.0  0.030139749154273043  0.7859020793425274  0.49911275336964417  1.0000
  C   C41       1.0  0.0064632994503312936  0.240394564749181  0.588740671896133  1.0000
  C   C42       1.0  0.18718837043753922  0.270133348406958  0.7409048560069279  1.0000
  C   C43       1.0  0.8158767082462504  0.7734064807815598  0.2632930003144338  1.0000
  C   C44       1.0  0.2289545134587883  0.0472779294413286  0.5486660008645571  1.0000
  C   C45       1.0  0.9819222049018635  0.717825876966778  0.5078226253049821  1.0000
  C   C46       1.0  0.7375316257059125  0.9090647283928276  0.5290885596214564  1.0000
  C   C47       1.0  0.9761316419755416  0.9166655306624278  0.6836573664955237  1.0000
  C   C48       1.0  0.10070587164366877  0.06839215436549038  0.34079380354474853  1.0000
  C   C49       1.0  0.01604789779644739  0.9836402943388906  0.7653021670428685  1.0000
  C   C50       1.0  0.054026716461024187  0.004149383114352599  0.257714201611833  1.0000
  C   C51       1.0  0.4099038975120237  0.4830348325999338  0.06189710499405977  1.0000
  C   C52       1.0  0.42775717748396846  0.45750682350504945  0.1295487023910695  1.0000
  C   C53       1.0  0.3563726443683279  0.37609506619282473  0.10813651546337867  1.0000
  C   C54       1.0  0.5424013604506683  0.7260100025794927  0.8603747987591319  1.0000
  C   C55       1.0  0.5247318461063982  0.7504460400715801  0.791831373054748  1.0000
  C   C56       1.0  0.023280673232065417  0.2693307453126081  0.5330135707912688  1.0000
  C   C57       1.0  0.6027174288298767  0.8148096394412507  0.7996222304613596  1.0000
  C   C58       1.0  0.7779165093108701  0.6066707339472259  0.4216933428533095  1.0000
  C   C59       1.0  0.7316280765051318  0.6334035177917912  0.36597062490419313  1.0000
  C   C60       1.0  0.6624237709902232  0.5584070126169178  0.28518333240590005  1.0000
  C   C61       1.0  0.07728364233363286  0.26288330464668513  0.4008299650792252  1.0000
  C   C62       1.0  0.025134969592983166  0.2894427012973891  0.35065360009099317  1.0000
  C   C63       1.0  0.07963226338736715  0.3666525662345918  0.3481026651905096  1.0000
  C   C64       1.0  0.3321280531210533  0.33971306274403906  0.6169073541169893  1.0000
  C   C65       1.0  0.3516277534352596  0.4248511555297583  0.6206610844177547  1.0000
  C   C66       1.0  0.44385141930758454  0.48069332471575166  0.6599372982173007  1.0000
  C   C67       1.0  0.23746840313490478  0.3257929413711338  0.7202769675366197  1.0000
  C   C68       1.0  0.6358085518078198  0.8263094232510184  0.31932925262884027  1.0000
  C   C69       1.0  0.5970232439064275  0.8605425749441622  0.26742640372231813  1.0000
  C   C70       1.0  0.5041914464567299  0.8065566834259812  0.2236516952153381  1.0000
  C   C71       1.0  0.33908387593317  0.13073457250595777  0.6830609942287323  1.0000
  C   C72       1.0  0.2994768594938222  0.10006941736727268  0.732578838184743  1.0000
  C   C73       1.0  0.36275014962936325  0.10918869448491358  0.8091000851860953  1.0000
  C   C74       1.0  0.6095409158583891  0.8100560073742501  0.5082007648963369  1.0000
  C   C75       1.0  0.6113086133446471  0.8485321020402381  0.5921956890584851  1.0000
  C   C76       1.0  0.5253825908414244  0.830340765735869  0.5831020648122447  1.0000
  C   C77       1.0  0.8773725719197715  0.7998292731218086  0.6791132397272149  1.0000
  C   C78       1.0  0.7465375436729075  0.785601659958111  0.2536827169284947  1.0000
  C   C79       1.0  0.8840995252110558  0.7363199802260708  0.7076385465826434  1.0000
  C   C80       1.0  0.8095544762771424  0.6945797672450736  0.7201689386538912  1.0000
  C   C81       1.0  0.2300672964958821  0.15393587376692613  0.3534001736852587  1.0000
  C   C82       1.0  0.2835553400165196  0.12461669023232252  0.39788075367069803  1.0000
  C   C83       1.0  0.3602823301472711  0.142984364492122  0.3844935593925527  1.0000
  C   C84       1.0  0.47385127887860523  0.5815192143792631  0.02350807036388874  1.0000
  N   N1        1.0  0.006280624243878202  0.0319770852463748  0.6716729065489843  1.0000
  N   N2        1.0  0.9920736025660943  0.16172729159745097  0.5628674285873316  1.0000
  N   N3        1.0  0.1431886724471454  0.1925294053072335  0.6798201909124728  1.0000
  N   N4        1.0  0.8728717079665175  0.8190621550518885  0.34116519962760355  1.0000
  N   N5        1.0  0.14754342298981976  0.016044439218958904  0.5187216915636411  1.0000
  N   N6        1.0  0.8154105287669039  0.9317783263946637  0.5447454647036452  1.0000
  N   N7        1.0  0.9703335428893283  0.9454917303579792  0.6282264980500258  1.0000
  N   N8        1.0  0.0700019047112903  0.044978719647161804  0.3880682357090705  1.0000
  N   N9        1.0  0.0027515574982073694  0.965836355118526  0.3408764972403303  1.0000
  N   N10       1.0  0.1131340015054079  0.9393438287784974  0.44934333865302273  1.0000
  N   N11       1.0  0.8524770616887666  0.013643059151050404  0.5561557417510201  1.0000
  N   N12       1.0  0.9145643792075904  0.7885750886412168  0.4802878650889682  1.0000
  N   N13       1.0  0.0017702269552656983  0.1343806612134273  0.49091438089330797  1.0000
  N   N14       1.0  0.16434560306941395  0.19488902811651346  0.6167168619367374  1.0000
  N   N15       1.0  0.8428868685724992  0.8622910517959994  0.38784609211240434  1.0000
  N   N16       1.0  0.9900601258871831  0.8273971140561401  0.481420145924929  1.0000
  O   O1        1.0  0.06522832521051922  0.13536349484727592  0.8071484414252408  1.0000
  O   O2        1.0  0.0288091152720469  0.1883240655385734  0.40399117117036804  1.0000
  O   O3        1.0  0.2450794520742434  0.28690662542056344  0.5843213664741428  1.0000
  O   O4        1.0  0.7243904876261809  0.8753566697021141  0.36357379626740277  1.0000
  O   O5        1.0  0.1063347178825823  0.8082416984727063  0.5054758681743152  1.0000
  O   O6        1.0  0.002764682391095601  0.2812837540369628  0.6583995476464252  1.0000
  O   O7        1.0  0.1825834776647639  0.2908298130412348  0.8137984788682714  1.0000
  O   O8        1.0  0.8270374310754179  0.7221837155827588  0.20555012710441645  1.0000
  O   O9        1.0  0.2796117003508556  0.12483404936963181  0.6115622124817648  1.0000
  O   O10       1.0  0.6901498420936818  0.8303991186711883  0.5122721040863638  1.0000
  O   O11       1.0  0.9458585652645652  0.8344821227205587  0.6613224434038615  1.0000
  O   O12       1.0  0.9331501533288319  0.8671984880568642  0.2015309137189972  1.0000
  O   O13       1.0  0.16259820229541327  0.1462021402305993  0.3744516296634117  1.0000
  O   O14       1.0  0.34405607080476125  0.6057100023122713  0.9983057976036703  1.0000
  O   O15       1.0  0.6046049373121036  0.6127409174742624  0.9332150480606956  1.0000
  O   O16       1.0  0.4802064986942014  0.5600729541720001  0.08600750097953375  1.0000
  O   O17       1.0  0.4659486644692806  0.6628547687773506  0.846983030559734  1.0000
  O   O18       1.0  0.48054367638803097  0.7635987258286434  0.021631220894796972  1.0000
  O   O19       1.0  0.4631595196970011  0.4545757163732276  0.9003798321742875  1.0000
  O   O20       1.0  0.15409675338622716  0.8547362760212422  0.3732263096132654  1.0000
  O   O21       1.0  0.8141609805044611  0.11635940342578982  0.5557621826522094  1.0000
  O   O22       1.0  0.8426029036597954  0.6772147334459788  0.5003676995964952  1.0000
