data_image0
_chemical_formula_structural       Zn2H24C30N8O10
_chemical_formula_sum              "Zn2 H24 C30 N8 O10"
_cell_length_a       8.941788167242974
_cell_length_b       9.948036197182
_cell_length_c       11.463071569074115
_cell_angle_alpha    80.32384824387013
_cell_angle_beta     73.6358514072033
_cell_angle_gamma    65.24120943646014

_space_group_name_H-M_alt    "P 1"
_space_group_IT_number       1

loop_
  _space_group_symop_operation_xyz
  'x, y, z'

loop_
  _atom_site_type_symbol
  _atom_site_label
  _atom_site_symmetry_multiplicity
  _atom_site_fract_x
  _atom_site_fract_y
  _atom_site_fract_z
  _atom_site_occupancy
  Zn  Zn1       1.0  0.07338392763578132  0.09041218360336252  0.3157789774743519  1.0000
  Zn  Zn2       1.0  0.926608719174723  0.9095875130938536  0.6842230960020004  1.0000
  H   H1        1.0  0.8097120345414408  0.7099345588650439  0.6390665435650431  1.0000
  H   H2        1.0  0.19028466192252577  0.2900716889414028  0.3609364601331109  1.0000
  H   H3        1.0  0.42428266366501066  0.8887409875368705  0.554951154114782  1.0000
  H   H4        1.0  0.5757183732914157  0.1112686713914854  0.44504700166456945  1.0000
  H   H5        1.0  0.5380347714018753  0.09823661573143741  0.14924858515763614  1.0000
  H   H6        1.0  0.4619648818157245  0.9017630330264551  0.8507528643282851  1.0000
  H   H7        1.0  0.518608300621423  0.9327979206811465  0.22418398728250113  1.0000
  H   H8        1.0  0.48139201226158684  0.06720293683601142  0.7758136790721508  1.0000
  H   H9        1.0  0.7610847152510373  0.17106614504033504  0.18988496924564655  1.0000
  H   H10       1.0  0.2389187404962457  0.8289302748118174  0.8101125779756939  1.0000
  H   H11       1.0  0.5585151612226581  0.5656773377045213  0.2967108878577918  1.0000
  H   H12       1.0  0.44147985047892757  0.4343221178572919  0.703298562242054  1.0000
  H   H13       1.0  0.7115835613585588  0.08541030390856719  0.9238686802468832  1.0000
  H   H14       1.0  0.2884127628841427  0.9145916211307749  0.07613145329343496  1.0000
  H   H15       1.0  0.8767863193150232  0.4883117620083298  0.5421371817166899  1.0000
  H   H16       1.0  0.12320680444510407  0.5116869560851001  0.45786054869797965  1.0000
  H   H17       1.0  0.02190178340373448  0.7863772219544245  0.38724754999979166  1.0000
  H   H18       1.0  0.9780993380061319  0.2136192052176682  0.6127504969345237  1.0000
  H   H19       1.0  0.6912232405548127  0.6847441146101048  0.11269747773221885  1.0000
  H   H20       1.0  0.30877660556312486  0.31525764357235186  0.8873071571296194  1.0000
  H   H21       1.0  0.8509790341754164  0.6366383103385902  0.8676041846725936  1.0000
  H   H22       1.0  0.1490267762783972  0.36335794631664703  0.1323981137267509  1.0000
  H   H23       1.0  0.7881446043404595  0.7339459168703045  0.30363781972682347  1.0000
  H   H24       1.0  0.21185604011977685  0.26605148890556757  0.696364570269189  1.0000
  C   C1        1.0  0.330113869475987  0.8358057805188963  0.3657058772913473  1.0000
  C   C2        1.0  0.6698885950286596  0.1641928823152696  0.6342907294199093  1.0000
  C   C3        1.0  0.8474553524143005  0.3723701687419876  0.35032850545963595  1.0000
  C   C4        1.0  0.15253514286874995  0.6276236363758728  0.6496869829255941  1.0000
  C   C5        1.0  0.5074278675507884  0.7810782299121612  0.5184430689266932  1.0000
  C   C6        1.0  0.4925758149511664  0.21892812583193688  0.48155405989005107  1.0000
  C   C7        1.0  0.6075631619610392  0.9793430365022501  0.16636825407964298  1.0000
  C   C8        1.0  0.39243950223364976  0.02065768379748791  0.8336332883045185  1.0000
  C   C9        1.0  0.8039405215999265  0.05835225162776679  0.22931435171004463  1.0000
  C   C10       1.0  0.19606159444742832  0.9416419065828167  0.7706855108828561  1.0000
  C   C11       1.0  0.5844727068857265  0.6008851040666203  0.37108276441207255  1.0000
  C   C12       1.0  0.41553093497218174  0.39911347716908113  0.6289162178881893  1.0000
  C   C13       1.0  0.73108061636632  0.9693564862435268  0.941779041041471  1.0000
  C   C14       1.0  0.26891870866891304  0.030646588276155698  0.058218559951591  1.0000
  C   C15       1.0  0.730011615244855  0.5121462705228483  0.41311124477440575  1.0000
  C   C16       1.0  0.2699920503770201  0.4878521288563888  0.5868938635653292  1.0000
  C   C17       1.0  0.47342659872278847  0.7352049937373764  0.42346422835080927  1.0000
  C   C18       1.0  0.5265787652408774  0.2648000939685175  0.5765379341812178  1.0000
  C   C19       1.0  0.7635919874575379  0.5572608475024906  0.5090396382765545  1.0000
  C   C20       1.0  0.23640382249215716  0.4427423419150785  0.4909552116919896  1.0000
  C   C21       1.0  0.6534071000680228  0.6926754448553184  0.5606762936295695  1.0000
  C   C22       1.0  0.3465955403627062  0.30732545730089095  0.4393191227151191  1.0000
  C   C23       1.0  0.9355629884901971  0.8565200640861192  0.33124553871582657  1.0000
  C   C24       1.0  0.06444095778612535  0.14347527324426326  0.6687511660378149  1.0000
  C   C25       1.0  0.7214610153048041  0.7582536859138714  0.037289441709773934  1.0000
  C   C26       1.0  0.27854715994590856  0.24175041586829585  0.9627078780475882  1.0000
  C   C27       1.0  0.7984327057603551  0.7368619660445006  0.9162477313576357  1.0000
  C   C28       1.0  0.2015666600130999  0.26314079672123114  0.08376037141739084  1.0000
  C   C29       1.0  0.820563174657046  0.8295226596150229  0.29161308098331756  1.0000
  C   C30       1.0  0.17943961802997413  0.1704725774573461  0.708387374220791  1.0000
  N   N1        1.0  0.9235201175668093  0.9991014583808141  0.29181301368133444  1.0000
  N   N2        1.0  0.07648314528013599  0.0008928520467748099  0.7081813481640963  1.0000
  N   N3        1.0  0.8024787234682618  0.8692957788442469  0.8579158042844242  1.0000
  N   N4        1.0  0.197523077976129  0.1307017012101426  0.14208371040960088  1.0000
  N   N5        1.0  0.7376468809205151  0.9583374455244634  0.22774869245301216  1.0000
  N   N6        1.0  0.26235375675001643  0.041660012210400124  0.772251947246005  1.0000
  N   N7        1.0  0.6796363486720763  0.9064426342944073  0.051809623966455845  1.0000
  N   N8        1.0  0.3203656422777996  0.09355698116404201  0.9481922009549845  1.0000
  O   O1        1.0  0.9797708682554924  0.2859638704139655  0.39435410783564606  1.0000
  O   O2        1.0  0.020224576262649025  0.7140349442775076  0.6056396222720579  1.0000
  O   O3        1.0  0.32804750063430527  0.8062949598348369  0.263879391073793  1.0000
  O   O4        1.0  0.671961956698034  0.193703758977982  0.7361130910530417  1.0000
  O   O5        1.0  0.22158545426729853  0.9535384769551882  0.4222411125969855  1.0000
  O   O6        1.0  0.7784099834611382  0.04646038969527672  0.5777508672137229  1.0000
  O   O7        1.0  0.8174945527903857  0.34147174265449115  0.26051841248898444  1.0000
  O   O8        1.0  0.18249207206594056  0.6585258109590271  0.7394834751908944  1.0000
  O   O9        1.0  0.685423998235038  0.7433074525026414  0.6510457306471479  1.0000
  O   O10       1.0  0.31457797234571666  0.2566923188327834  0.34895084338332066  1.0000
