data_image0
_chemical_formula_structural       Cu4H34C18N8Cl6
_chemical_formula_sum              "Cu4 H34 C18 N8 Cl6"
_cell_length_a       6.937833799115032
_cell_length_b       7.583968653108781
_cell_length_c       12.951172902867395
_cell_angle_alpha    92.30634835971125
_cell_angle_beta     98.59247347081987
_cell_angle_gamma    101.25072447522354

_space_group_name_H-M_alt    "P 1"
_space_group_IT_number       1

loop_
  _space_group_symop_operation_xyz
  'x, y, z'

loop_
  _atom_site_type_symbol
  _atom_site_label
  _atom_site_symmetry_multiplicity
  _atom_site_fract_x
  _atom_site_fract_y
  _atom_site_fract_z
  _atom_site_occupancy
  Cu  Cu1       1.0  0.9130845951834773  0.5853140706757785  0.6008759852521878  1.0000
  Cu  Cu2       1.0  0.08690796783884018  0.4146851967639974  0.3991211478767056  1.0000
  Cu  Cu3       1.0  0.9612247154838371  0.4883597695780253  0.8870812442852412  1.0000
  Cu  Cu4       1.0  0.03878395588692738  0.5116395816240953  0.11292018770789983  1.0000
  H   H1        1.0  0.9024005083014474  0.09204048356746598  0.8584695687262213  1.0000
  H   H2        1.0  0.09760175021578019  0.9079561371296235  0.1415320849852577  1.0000
  H   H3        1.0  0.8698078423435049  0.1659788962429545  0.7264460838843121  1.0000
  H   H4        1.0  0.13019440270748112  0.8340177262369011  0.2735547966961819  1.0000
  H   H5        1.0  0.369830467033168  0.8836432264593057  0.6481918451744307  1.0000
  H   H6        1.0  0.6301685627076736  0.11635876435443751  0.35180815876007193  1.0000
  H   H7        1.0  0.5649138370092786  0.0467745652147471  0.6074262795227983  1.0000
  H   H8        1.0  0.43509135182094383  0.9532288029206769  0.39257576571461084  1.0000
  H   H9        1.0  0.18575007942390434  0.9764115604692306  0.7765394901952335  1.0000
  H   H10       1.0  0.8142506905120825  0.0235917882253744  0.2234599066473137  1.0000
  H   H11       1.0  0.2371899266036692  0.20947213766804398  0.8263421455861818  1.0000
  H   H12       1.0  0.7628123028308167  0.7905312192895906  0.17365736092365583  1.0000
  H   H13       1.0  0.49173214792977404  0.41855273647492897  0.7720975022135406  1.0000
  H   H14       1.0  0.5082753581054007  0.5814479542992075  0.22790387648402094  1.0000
  H   H15       1.0  0.6354975100203788  0.35251440414580776  0.6772531047760141  1.0000
  H   H16       1.0  0.3645088306791991  0.647487626200359  0.32274822062597514  1.0000
  H   H17       1.0  0.5414304577188817  0.3284305275138665  0.9458371594677359  1.0000
  H   H18       1.0  0.4585743965497002  0.6715714981347817  0.05416251000497851  1.0000
  H   H19       1.0  0.7127282994104293  0.18375305717152912  0.9828776914057685  1.0000
  H   H20       1.0  0.2872719091322509  0.816247592287425  0.0171231389553057  1.0000
  H   H21       1.0  0.41215107964180936  0.7900959549038686  0.8275949808458736  1.0000
  H   H22       1.0  0.5878479635652809  0.20990603412711553  0.1724057962196213  1.0000
  H   H23       1.0  0.6409028702982624  0.8795469079945093  0.916673910036579  1.0000
  H   H24       1.0  0.3590958787459329  0.12045373320141552  0.08332681065719073  1.0000
  H   H25       1.0  0.5985017915636774  0.6831482209415258  0.7201329330419314  1.0000
  H   H26       1.0  0.4014911194865293  0.31685238720226044  0.2798673489826485  1.0000
  H   H27       1.0  0.8315737293230542  0.7828358037297106  0.7968827299258694  1.0000
  H   H28       1.0  0.1684235085078924  0.2171581036392141  0.20311538951631294  1.0000
  H   H29       1.0  0.9371807037553238  0.9253425729085193  0.6268285568833748  1.0000
  H   H30       1.0  0.062810990244536  0.07465264924331899  0.37316918026133555  1.0000
  H   H31       1.0  0.5576854770975147  0.6420794950505027  0.5344012801529062  1.0000
  H   H32       1.0  0.44230910896684605  0.35791574719292635  0.46559513006441483  1.0000
  H   H33       1.0  0.7505662762275451  0.757307081250545  0.4609730139973466  1.0000
  H   H34       1.0  0.24942398520631306  0.2426881290727322  0.5390261597420363  1.0000
  C   C1        1.0  0.7970800000781324  0.12651935463560446  0.7941245265381272  1.0000
  C   C2        1.0  0.2029231409277941  0.8734813095666637  0.20587729628853424  1.0000
  C   C3        1.0  0.4844896927561636  0.006102929677055599  0.67227901095756  1.0000
  C   C4        1.0  0.515513715480168  0.9938990859257967  0.32772132197884224  1.0000
  C   C5        1.0  0.3020014468893635  0.09798650259495639  0.8001305142936347  1.0000
  C   C6        1.0  0.698000796011371  0.9020168525799193  0.19986976534719503  1.0000
  C   C7        1.0  0.5592913262438798  0.3107022962585546  0.7434764851195087  1.0000
  C   C8        1.0  0.44071647395418984  0.6892997423506487  0.25652494994978536  1.0000
  C   C9        1.0  0.6042367052236274  0.21582051186494766  0.919340731050504  1.0000
  C   C10       1.0  0.3957646686546569  0.7841787980219905  0.0806601526061357  1.0000
  C   C11       1.0  0.52870446193144  0.9102067889095197  0.8545141656322671  1.0000
  C   C12       1.0  0.4712945812756502  0.08979520012146479  0.14548661143322764  1.0000
  C   C13       1.0  0.7229244038785441  0.7998556788144028  0.7287055167022275  1.0000
  C   C14       1.0  0.2770687765523121  0.20013954803494727  0.27129387637175745  1.0000
  C   C15       1.0  0.809886994298715  0.8157203115706579  0.6292351952724361  1.0000
  C   C16       1.0  0.19011918259993624  0.1842938185028586  0.37077260318839933  1.0000
  C   C17       1.0  0.7071144331764218  0.7228599951254393  0.5363597339482383  1.0000
  C   C18       1.0  0.2928609547817729  0.2771217046154604  0.46362330924670664  1.0000
  N   N1        1.0  0.7093578082119053  0.2724326824722567  0.8301672217021763  1.0000
  N   N2        1.0  0.2906450520973749  0.727566632112193  0.1698353178837451  1.0000
  N   N3        1.0  0.6366563506804754  0.9581073569147237  0.75991058288885  1.0000
  N   N4        1.0  0.36334472903491394  0.04189060513715499  0.24009024439607177  1.0000
  N   N5        1.0  0.4014265441825913  0.1511249439880729  0.7101611017556237  1.0000
  N   N6        1.0  0.5985789253442848  0.8488797737651694  0.28984022672251814  1.0000
  N   N7        1.0  0.4449433725340627  0.057248602305484994  0.8871182715166911  1.0000
  N   N8        1.0  0.5550571301715265  0.9427533949885287  0.1128826152161082  1.0000
  Cl  Cl1       1.0  0.12656658960800368  0.557061246978435  0.7501391748908263  1.0000
  Cl  Cl2       1.0  0.8734315554938946  0.4429434330251495  0.249860058988844  1.0000
  Cl  Cl3       1.0  0.8280168633820324  0.2994499011529043  0.5229062679730134  1.0000
  Cl  Cl4       1.0  0.17198041269741543  0.7005507335627427  0.4770935699224736  1.0000
  Cl  Cl5       1.0  0.8567436355701121  0.6834800243305635  0.9937011198883499  1.0000
  Cl  Cl6       1.0  0.14326354936966368  0.316519322174038  0.006298656175509599  1.0000
