data_image0
_chemical_formula_structural       Rb4H28C60N16O4
_chemical_formula_sum              "Rb4 H28 C60 N16 O4"
_cell_length_a       8.373998480450663
_cell_length_b       9.935413083008836
_cell_length_c       17.049797713230962
_cell_angle_alpha    89.99987185875558
_cell_angle_beta     96.55600717164275
_cell_angle_gamma    90.00010292433562

_space_group_name_H-M_alt    "P 1"
_space_group_IT_number       1

loop_
  _space_group_symop_operation_xyz
  'x, y, z'

loop_
  _atom_site_type_symbol
  _atom_site_label
  _atom_site_symmetry_multiplicity
  _atom_site_fract_x
  _atom_site_fract_y
  _atom_site_fract_z
  _atom_site_occupancy
  Rb  Rb1       1.0  0.8634530294608496  0.1299850801455875  0.5834333039145465  1.0000
  Rb  Rb2       1.0  0.6365484894911403  0.6299785289598886  0.41656676496770473  1.0000
  Rb  Rb3       1.0  0.13654263192186994  0.8700204970694896  0.4165682826319141  1.0000
  Rb  Rb4       1.0  0.3634532274587485  0.37001899625834506  0.583432843058425  1.0000
  H   H1        1.0  0.4846994558467232  0.922903511980671  0.8371291059543112  1.0000
  H   H2        1.0  0.0153025419333233  0.4229071245595151  0.1628705642109836  1.0000
  H   H3        1.0  0.5153010477051864  0.07709501973630489  0.1628710149463188  1.0000
  H   H4        1.0  0.9846979958787262  0.5770914071608928  0.8371277991385784  1.0000
  H   H5        1.0  0.6480667134822156  0.0388707334440639  0.9462614092738805  1.0000
  H   H6        1.0  0.8519346431092956  0.5388759929933967  0.05373876788348041  1.0000
  H   H7        1.0  0.35193259951179817  0.9611288047739349  0.053738052800532905  1.0000
  H   H8        1.0  0.14806227734710833  0.4611235452241473  0.946259962390066  1.0000
  H   H9        1.0  0.4324971248474512  0.41778198266446515  0.8705656996468891  1.0000
  H   H10       1.0  0.06750480670631019  0.917786502974998  0.12943690585616  1.0000
  H   H11       1.0  0.5675033787044583  0.5822165490525107  0.12943442125373394  1.0000
  H   H12       1.0  0.9324921023300448  0.0822130352414021  0.8705624102677378  1.0000
  H   H13       1.0  0.25945109168223723  0.3014356070465922  0.7645891565736207  1.0000
  H   H14       1.0  0.2405482628379545  0.8014399869463416  0.23541168369631296  1.0000
  H   H15       1.0  0.7405482213099859  0.6985619181700499  0.2354103055019934  1.0000
  H   H16       1.0  0.7594486690402888  0.1985615642737031  0.7645864607256811  1.0000
  H   H17       1.0  0.7006470272985297  0.40216616345497874  0.9587431402984309  1.0000
  H   H18       1.0  0.799351370768875  0.9021703826188201  0.04125638618616282  1.0000
  H   H19       1.0  0.2993510837148605  0.5978313617608605  0.0412562488019219  1.0000
  H   H20       1.0  0.20064553826837542  0.0978301620982549  0.9587429299371382  1.0000
  H   H21       1.0  0.7543585643801195  0.2457598607936688  0.00684243732523981  1.0000
  H   H22       1.0  0.7456407569386343  0.7457613071942717  0.9931573480126589  1.0000
  H   H23       1.0  0.24564196201277613  0.7542396774262699  0.9931565118740835  1.0000
  H   H24       1.0  0.2543573540765465  0.25423823102292425  0.006842041086493105  1.0000
  H   H25       1.0  0.5811284395373307  0.3348732395579646  0.0287879757140743  1.0000
  H   H26       1.0  0.9188722311474747  0.8348770554131093  0.971212362543895  1.0000
  H   H27       1.0  0.4188708734557878  0.6651252921593522  0.971211486360943  1.0000
  H   H28       1.0  0.08112589128776189  0.16512248280523775  0.028786440704905703  1.0000
  C   C1        1.0  0.2986472821322437  0.8977984818138935  0.7021917600344098  1.0000
  C   C2        1.0  0.2013558272085234  0.39780286842172063  0.297810356342417  1.0000
  C   C3        1.0  0.701352008018091  0.10219703039909686  0.29780887374310083  1.0000
  C   C4        1.0  0.7986422267109106  0.6022017022931365  0.7021919620055144  1.0000
  C   C5        1.0  0.2667534644814182  0.04324511725223349  0.7245048468893671  1.0000
  C   C6        1.0  0.23324664332722733  0.5432493301159409  0.2754957873443545  1.0000
  C   C7        1.0  0.7332458370907631  0.9567524079632573  0.27549520103659836  1.0000
  C   C8        1.0  0.7667514562715  0.45675423410282406  0.7245041876027615  1.0000
  C   C9        1.0  0.3819196272515555  0.8837881878876246  0.6350556517347316  1.0000
  C   C10       1.0  0.11807986260527063  0.3837921834830667  0.3649456765163209  1.0000
  C   C11       1.0  0.6180820440172496  0.11620833082535138  0.36494629969340764  1.0000
  C   C12       1.0  0.8819206295337595  0.6162144002381778  0.6350550302298787  1.0000
  C   C13       1.0  0.23755584045039063  0.795260085212149  0.7463670604136611  1.0000
  C   C14       1.0  0.2624446479399154  0.29526071295862977  0.25363678942464674  1.0000
  C   C15       1.0  0.7624446288413794  0.20473844650138054  0.2536348180380301  1.0000
  C   C16       1.0  0.7375570347534152  0.7047408382588854  0.7463645761501496  1.0000
  C   C17       1.0  0.1534955820697732  0.8254076073898131  0.8116974505374588  1.0000
  C   C18       1.0  0.3465097793781736  0.325405600874035  0.18830606952516862  1.0000
  C   C19       1.0  0.8465001249850559  0.1745889113237524  0.18830179261296823  1.0000
  C   C20       1.0  0.653489499357498  0.6745959503418816  0.8116951500991122  1.0000
  C   C21       1.0  0.256993571164692  0.6570243093160428  0.7301662158933908  1.0000
  C   C22       1.0  0.24300550316274896  0.15702484373723993  0.2698359677008285  1.0000
  C   C23       1.0  0.7430057418275311  0.3429732159005923  0.2698332461822162  1.0000
  C   C24       1.0  0.7569937413136784  0.8429777139759123  0.7301670094739097  1.0000
  C   C25       1.0  0.408119413056049  0.7623167377576293  0.5955742519286604  1.0000
  C   C26       1.0  0.0918822414490705  0.2623205390635945  0.4044285383328515  1.0000
  C   C27       1.0  0.5918858641492478  0.23767978095774822  0.404427918425263  1.0000
  C   C28       1.0  0.9081170258701405  0.7376850381538843  0.5955732671393932  1.0000
  C   C29       1.0  0.44699471322052636  0.9994362360848328  0.6026524761988554  1.0000
  C   C30       1.0  0.0530061847063905  0.49944000399455746  0.3973487875891166  1.0000
  C   C31       1.0  0.5530105525665193  0.0005622956307504999  0.39735028000422556  1.0000
  C   C32       1.0  0.946994307430849  0.5005645667253302  0.6026519191582693  1.0000
  C   C33       1.0  0.360900825651612  0.10456812562360077  0.7925773713738523  1.0000
  C   C34       1.0  0.1390993914382506  0.6045724553096931  0.2074231899823005  1.0000
  C   C35       1.0  0.6390984873415064  0.8954304060937159  0.2074220907011579  1.0000
  C   C36       1.0  0.8608999329767073  0.3954280894101244  0.7925756862411646  1.0000
  C   C37       1.0  0.4710983874316881  0.0310080087284277  0.8446938489641485  1.0000
  C   C38       1.0  0.0289029005486867  0.5310123681646532  0.1553068727875697  1.0000
  C   C39       1.0  0.5289021047001725  0.968990522987397  0.1553068577868331  1.0000
  C   C40       1.0  0.9710964352863201  0.4689881765563086  0.844691417585537  1.0000
  C   C41       1.0  0.5630068633183924  0.09630670578832928  0.906189606018664  1.0000
  C   C42       1.0  0.9369945842081505  0.5963129494801933  0.09381108873039781  1.0000
  C   C43       1.0  0.43699365165355897  0.9036918259297831  0.0938099290316075  1.0000
  C   C44       1.0  0.0630047516259609  0.4036865887400936  0.9061872016433058  1.0000
  C   C45       1.0  0.5518046315100945  0.23632903840010744  0.9164320153069101  1.0000
  C   C46       1.0  0.9481946615839759  0.7363323198903088  0.0835683670880343  1.0000
  C   C47       1.0  0.4481970854415849  0.763670499819483  0.08356759271802622  1.0000
  C   C48       1.0  0.051802270292469595  0.2636672183283863  0.9164297773351536  1.0000
  C   C49       1.0  0.4415998655007627  0.30896116226572445  0.8640059924038399  1.0000
  C   C50       1.0  0.0583995138487339  0.8089636298594411  0.1359942530733562  1.0000
  C   C51       1.0  0.5584006608921327  0.691038375954214  0.13599295679548362  1.0000
  C   C52       1.0  0.9415974066085583  0.19103691485877758  0.8640044771995861  1.0000
  C   C53       1.0  0.3459964821471431  0.2443881464990696  0.8039540377093035  1.0000
  C   C54       1.0  0.1540039612699999  0.7443925436850661  0.19604752918258586  1.0000
  C   C55       1.0  0.6540040328257105  0.7556113917197251  0.1960454973403714  1.0000
  C   C56       1.0  0.8459941611661321  0.2556080010339555  0.8039512740656178  1.0000
  C   C57       1.0  0.6536863947590987  0.3080149904069245  0.9811023338004363  1.0000
  C   C58       1.0  0.8463130375035847  0.8080183634023611  0.018897377551070307  1.0000
  C   C59       1.0  0.3463129182340197  0.6919835413103924  0.0188971282745811  1.0000
  C   C60       1.0  0.1536850849325404  0.1919821813166536  0.9811014256971333  1.0000
  N   N1        1.0  0.5014480797889789  0.09596408083542228  0.5764641311339178  1.0000
  N   N2        1.0  0.9985521765662497  0.5959681344706664  0.4235359051980154  1.0000
  N   N3        1.0  0.4985547706203518  0.904034450877418  0.42353906496899196  1.0000
  N   N4        1.0  0.0014483269910385973  0.4040364362503652  0.5764642156990264  1.0000
  N   N5        1.0  0.4311722702768819  0.6660601352199222  0.5586268595656065  1.0000
  N   N6        1.0  0.06882923553248332  0.1660627505033148  0.44137487338918663  1.0000
  N   N7        1.0  0.5688330069293102  0.3339373899961373  0.4413753107877128  1.0000
  N   N8        1.0  0.9311676392491108  0.8339428267137096  0.5586262002821842  1.0000
  N   N9        1.0  0.2731893872737174  0.542507719741117  0.7171124165350662  1.0000
  N   N10       1.0  0.226808235320398  0.04250918462275881  0.28289217357858837  1.0000
  N   N11       1.0  0.7268134973948648  0.4574898054744808  0.2828890220173861  1.0000
  N   N12       1.0  0.7731922339731555  0.957491360092135  0.7171097048719022  1.0000
  N   N13       1.0  0.08365187940790261  0.8481865707641273  0.865937208997579  1.0000
  N   N14       1.0  0.4163535340529024  0.3481838776699036  0.13406569814412714  1.0000
  N   N15       1.0  0.9163438276496195  0.15181296745146966  0.13406203415106432  1.0000
  N   N16       1.0  0.5836481600604841  0.6518176735487556  0.8659350815803111  1.0000
  O   O1        1.0  0.1653962945509591  0.10525865153776692  0.6794767930180399  1.0000
  O   O2        1.0  0.33460633914705795  0.6052628483278966  0.3205233276177211  1.0000
  O   O3        1.0  0.8346042318383481  0.8947368606794582  0.3205221561836709  1.0000
  O   O4        1.0  0.6653953778082097  0.3947407158944073  0.6794762804048207  1.0000
