data_image0
_chemical_formula_structural       Al4H43C88N13O30
_chemical_formula_sum              "Al4 H43 C88 N13 O30"
_cell_length_a       6.61940064770755
_cell_length_b       28.35721316879741
_cell_length_c       31.755420178473784
_cell_angle_alpha    78.05351405787657
_cell_angle_beta     89.73794435964172
_cell_angle_gamma    89.61124886803024

_space_group_name_H-M_alt    "P 1"
_space_group_IT_number       1

loop_
  _space_group_symop_operation_xyz
  'x, y, z'

loop_
  _atom_site_type_symbol
  _atom_site_label
  _atom_site_symmetry_multiplicity
  _atom_site_fract_x
  _atom_site_fract_y
  _atom_site_fract_z
  _atom_site_occupancy
  Al  Al1       1.0  0.10380862870660928  0.4990031191443195  0.5006650215270908  1.0000
  Al  Al2       1.0  0.6037611772490479  0.5012892795105515  0.49947687726960754  1.0000
  Al  Al3       1.0  0.7054807974107504  0.0011095133668277007  0.999326365239092  1.0000
  Al  Al4       1.0  0.2055948923513355  0.9988492659816759  0.0005411423243372274  1.0000
  H   H1        1.0  0.18841573469322978  0.6005312135487131  0.3923749692909268  1.0000
  H   H2        1.0  0.20677606640543186  0.6666815885296061  0.32614053908074664  1.0000
  H   H3        1.0  0.5590167712062168  0.6787086954883252  0.3257474330290931  1.0000
  H   H4        1.0  0.5421103390007928  0.6122099374237422  0.3918039086172341  1.0000
  H   H5        1.0  0.2501716764469251  0.8212398746981793  0.17425513008395638  1.0000
  H   H6        1.0  0.26728185331479887  0.8878158303205055  0.1082806235556645  1.0000
  H   H7        1.0  0.620886783203005  0.8995122060168727  0.10765546975989065  1.0000
  H   H8        1.0  0.6025234680768747  0.8332941302205727  0.17384002630576126  1.0000
  H   H9        1.0  0.32464135986213444  0.8326381104831171  0.724625810934185  1.0000
  H   H10       1.0  0.5012246599064696  0.7259112137604191  0.8257751808176292  1.0000
  H   H11       1.0  0.48143526963246325  0.6719935692567208  0.7715426881932285  1.0000
  H   H12       1.0  0.6418573228262259  0.8858987452363465  0.8403891407315169  1.0000
  H   H13       1.0  0.6505316721651366  0.9376598047598534  0.8952026230321549  1.0000
  H   H14       1.0  0.2576800464096465  0.8901902915120632  0.9289128563591972  1.0000
  H   H15       1.0  0.24646664672982144  0.8357544362797643  0.8764162257679682  1.0000
  H   H16       1.0  0.5677566316277803  0.6680846144875972  0.6202908226718618  1.0000
  H   H17       1.0  0.5558666629971611  0.6126456160179715  0.5685047732581621  1.0000
  H   H18       1.0  0.157421705039738  0.5627088359861717  0.6049915467854416  1.0000
  H   H19       1.0  0.16580304294122067  0.6153971996527688  0.6590794796723781  1.0000
  H   H20       1.0  0.8489409978478688  0.17501327731189062  0.26690380699277216  1.0000
  H   H21       1.0  0.8294845945347475  0.2282943228953941  0.3216414281678154  1.0000
  H   H22       1.0  0.9607847497345999  0.32488888971468555  0.23322914634081818  1.0000
  H   H23       1.0  0.9798784506662485  0.2714947179608204  0.17855757132542036  1.0000
  H   H24       1.0  0.6709614302547847  0.38468733101105107  0.3401053755912001  1.0000
  H   H25       1.0  0.6628109624674606  0.43707471936243547  0.3943508908437747  1.0000
  H   H26       1.0  0.06057346035392899  0.38914799179515575  0.431342161836376  1.0000
  H   H27       1.0  0.07162286788712889  0.33416989777684586  0.37936627216564733  1.0000
  H   H28       1.0  0.7381860816950548  0.1656548527741393  0.12079501713158439  1.0000
  H   H29       1.0  0.7489460276897545  0.11071120592716002  0.06878395463636618  1.0000
  H   H30       1.0  0.14638825529029018  0.0629625834985532  0.10568530790900607  1.0000
  H   H31       1.0  0.1385257804114488  0.1153157279129999  0.15998894962438467  1.0000
  H   H32       1.0  0.6888436486126749  0.3994016711950439  0.6078564844775654  1.0000
  H   H33       1.0  0.7068591768977014  0.33316478294893415  0.6740477528374382  1.0000
  H   H34       1.0  0.059669710745687596  0.32160399717998445  0.6741219519838848  1.0000
  H   H35       1.0  0.0430942694098206  0.38821461333960633  0.6081313005302956  1.0000
  H   H36       1.0  0.7496403270583372  0.17847001297108286  0.8258842237846407  1.0000
  H   H37       1.0  0.7664529627288487  0.1117934432029983  0.8918319952672602  1.0000
  H   H38       1.0  0.12054058546072349  0.1006734767638591  0.8922464026235415  1.0000
  H   H39       1.0  0.10248206098727049  0.16693881321376844  0.8260541628384954  1.0000
  H   H40       1.0  0.3466287788206301  0.5621562325596301  0.5005366111687337  1.0000
  H   H41       1.0  0.8500604290829016  0.4385016652494543  0.4985583558913118  1.0000
  H   H42       1.0  0.46287052474982465  0.9372124949929912  0.0019754009004130765  1.0000
  H   H43       1.0  0.9592554970779898  0.06164748075998721  0.0013631267225306983  1.0000
  C   C1        1.0  0.35765363225437596  0.44752805363109627  0.4484460727552103  1.0000
  C   C2        1.0  0.35711724169992454  0.436159561980908  0.5644603018119908  1.0000
  C   C3        1.0  0.8529430723920652  0.5529080544743296  0.5515581964460095  1.0000
  C   C4        1.0  0.8564051769144213  0.5641247699603653  0.4356714722759563  1.0000
  C   C5        1.0  0.052053002737927984  0.6179680655336384  0.3773770284766299  1.0000
  C   C6        1.0  0.062237847751560986  0.6545002989957069  0.3408216770612639  1.0000
  C   C7        1.0  0.8839242246975232  0.6765746398183055  0.32215264553505557  1.0000
  C   C8        1.0  0.6956551471032738  0.6612290881031058  0.340573896288518  1.0000
  C   C9        1.0  0.686502139729768  0.6245063743170222  0.37707862108045004  1.0000
  C   C10       1.0  0.8644412266506194  0.6027570858962648  0.3958329090426245  1.0000
  C   C11       1.0  0.9142467619185906  0.7841565068490864  0.21610400525616302  1.0000
  C   C12       1.0  0.8946771727187864  0.7154803684941629  0.2836515315712234  1.0000
  C   C13       1.0  0.1135784843685386  0.8387235691843177  0.1594099355519701  1.0000
  C   C14       1.0  0.12278240359675148  0.8754663231853996  0.12292265703616319  1.0000
  C   C15       1.0  0.9448589626041581  0.8972027948181279  0.10412086833110824  1.0000
  C   C16       1.0  0.757226885141854  0.8820073425804156  0.12259637020039793  1.0000
  C   C17       1.0  0.7470715950076894  0.8454391907183165  0.15913956293581313  1.0000
  C   C18       1.0  0.9252936150618821  0.8232897390986056  0.17776326282770316  1.0000
  C   C19       1.0  0.725819210634647  0.6702601311079806  0.7055999530437302  1.0000
  C   C20       1.0  0.03289613631159939  0.7096794066982072  0.667661683751305  1.0000
  C   C21       1.0  0.043036583605896794  0.7410829662749024  0.6995092939526016  1.0000
  C   C22       1.0  0.900932882827348  0.7360335273388402  0.7336428252522464  1.0000
  C   C23       1.0  0.743773328651372  0.7018813877940389  0.7371757811225021  1.0000
  C   C24       1.0  0.1904107136665018  0.7762590263140299  0.696894099868288  1.0000
  C   C25       1.0  0.20650123756298908  0.8055858169508668  0.7272830066624321  1.0000
  C   C26       1.0  0.0687094528739465  0.8005272291839562  0.7608717527147985  1.0000
  C   C27       1.0  0.9122302263499265  0.7662308763578382  0.7642487990109142  1.0000
  C   C28       1.0  0.7661147912103698  0.7619207368628055  0.7973902532723398  1.0000
  C   C29       1.0  0.6123439330271268  0.7283037966172331  0.7999836680791856  1.0000
  C   C30       1.0  0.6017383111618811  0.6983520631665244  0.7699947998530587  1.0000
  C   C31       1.0  0.0857065934959067  0.8321306455230586  0.7926378962725165  1.0000
  C   C32       1.0  0.7746460273701246  0.7931074748740348  0.8294677506485041  1.0000
  C   C33       1.0  0.7756050233179934  0.8866367179358434  0.8601144224997906  1.0000
  C   C34       1.0  0.780552740710604  0.915519238416529  0.8905405830611169  1.0000
  C   C35       1.0  0.9542501416568924  0.9168115606828167  0.9153691978088427  1.0000
  C   C36       1.0  0.12292266344327628  0.8886485933813122  0.9096923142169255  1.0000
  C   C37       1.0  0.1169914863559711  0.8584273429967695  0.8803024919899651  1.0000
  C   C38       1.0  0.9433134027599974  0.8578512959779304  0.8555734747559067  1.0000
  C   C39       1.0  0.6950160598413858  0.6444104249659405  0.6172691404237154  1.0000
  C   C40       1.0  0.6890282084278851  0.6136988527389917  0.5882996857374534  1.0000
  C   C41       1.0  0.8558940486649717  0.584516886388272  0.583681578368626  1.0000
  C   C42       1.0  0.028356081307911993  0.5854459245468747  0.6089672590570245  1.0000
  C   C43       1.0  0.03317769286006468  0.6148193804720921  0.6389891929242636  1.0000
  C   C44       1.0  0.8669997667454793  0.6444016857227127  0.6425760467291891  1.0000
  C   C45       1.0  0.26562435378205856  0.20755357950990572  0.17070137072330024  1.0000
  C   C46       1.0  0.5871517169205304  0.17031041617742204  0.2045876874041213  1.0000
  C   C47       1.0  0.5742603636354104  0.2024427642640489  0.2359073565529073  1.0000
  C   C48       1.0  0.4098418393881217  0.23479858784794067  0.23477028242828618  1.0000
  C   C49       1.0  0.25624900935796546  0.23792703983397703  0.20346921056786724  1.0000
  C   C50       1.0  0.7239203451854974  0.20022888360239222  0.2668296956581031  1.0000
  C   C51       1.0  0.7131306164532559  0.22979707030876287  0.29722089568374327  1.0000
  C   C52       1.0  0.5528617889555107  0.26179112331817583  0.296803277236698  1.0000
  C   C53       1.0  0.399125771212347  0.2648476429915547  0.2655451924133699  1.0000
  C   C54       1.0  0.2350502100672713  0.2973185654351482  0.2643168602647846  1.0000
  C   C55       1.0  0.08545747099397967  0.299561695512651  0.23338132422631463  1.0000
  C   C56       1.0  0.09602645229425379  0.2699424686388455  0.20303164364928245  1.0000
  C   C57       1.0  0.5440826597448449  0.292359612119384  0.3294252435459056  1.0000
  C   C58       1.0  0.2226608461814905  0.3296090545694099  0.29551533014394227  1.0000
  C   C59       1.0  0.5383224120635077  0.3854636919483383  0.3604078507317395  1.0000
  C   C60       1.0  0.5336690928433894  0.41471002743500673  0.3905698807986865  1.0000
  C   C61       1.0  0.36145477208380317  0.41612544594245554  0.41615264374078  1.0000
  C   C62       1.0  0.19423408193873828  0.3875934949217169  0.41153393337616945  1.0000
  C   C63       1.0  0.20004087750158558  0.3570413199290742  0.3824353762719922  1.0000
  C   C64       1.0  0.3720713876346338  0.3564117275028026  0.3568637509584887  1.0000
  C   C65       1.0  0.609615428279767  0.14284554227592852  0.11769853966838885  1.0000
  C   C66       1.0  0.615247775048246  0.11232087812903303  0.08857853231378239  1.0000
  C   C67       1.0  0.44785907576381584  0.08386148989294644  0.08393090220111787  1.0000
  C   C68       1.0  0.2755734501342531  0.08528749170144322  0.10949294365747157  1.0000
  C   C69       1.0  0.2710943302373536  0.11451574191209352  0.13966685832136244  1.0000
  C   C70       1.0  0.4375154812387477  0.14353155767915382  0.14323207497587015  1.0000
  C   C71       1.0  0.5525238451172854  0.3820341594725605  0.6227672113435146  1.0000
  C   C72       1.0  0.5625115519286864  0.3454476177767702  0.6593053070391688  1.0000
  C   C73       1.0  0.3842661814633885  0.3234856686317401  0.6778776726611394  1.0000
  C   C74       1.0  0.1962592749370485  0.33901282565725666  0.6593808180070011  1.0000
  C   C75       1.0  0.18730191179054145  0.3757893658249429  0.6229048271284154  1.0000
  C   C76       1.0  0.3651652053734366  0.3974286285413982  0.6042456487707851  1.0000
  C   C77       1.0  0.4141603821443951  0.2157520744566385  0.7838700138421613  1.0000
  C   C78       1.0  0.3948510401308596  0.28450414565355703  0.7163411871492469  1.0000
  C   C79       1.0  0.6131051958648611  0.16106103942085076  0.8406464262192656  1.0000
  C   C80       1.0  0.6221686831543918  0.1242676987486746  0.8771045400971571  1.0000
  C   C81       1.0  0.4442901032091128  0.1026386437678042  0.8957978008169218  1.0000
  C   C82       1.0  0.256821128484809  0.1180386015769699  0.8773163059503089  1.0000
  C   C83       1.0  0.2468510223303824  0.15464741342864843  0.8407855284050566  1.0000
  C   C84       1.0  0.425026326835372  0.176633768656238  0.8222242825059707  1.0000
  C   C85       1.0  0.4523981156037209  0.06392286565071711  0.935577843554199  1.0000
  C   C86       1.0  0.4514438850672206  0.0525303793888128  0.051606590832868386  1.0000
  C   C87       1.0  0.9528226741824354  0.9358272421584247  0.06427497637545085  1.0000
  C   C88       1.0  0.9567384342151114  0.9477418149520461  0.9480681129993367  1.0000
  N   N1        1.0  0.7191970595314744  0.7360685867671107  0.26705664400328283  1.0000
  N   N2        1.0  0.729165847821477  0.7709899011292908  0.23269799493962745  1.0000
  N   N3        1.0  0.08959983010048939  0.7632939072521839  0.23247027470513593  1.0000
  N   N4        1.0  0.07966881928147268  0.7283715648588752  0.2668211962404924  1.0000
  N   N5        1.0  0.8752417136350202  0.6757881223743851  0.6729835781114701  1.0000
  N   N6        1.0  0.9349047389146319  0.8267741361392211  0.824898626115633  1.0000
  N   N7        1.0  0.4300600848644365  0.1747192095131282  0.17380221083107722  1.0000
  N   N8        1.0  0.3795792726055964  0.325180657154462  0.32632529294181  1.0000
  N   N9        1.0  0.2195312088310075  0.2639413596908611  0.7327715880433912  1.0000
  N   N10       1.0  0.22936443186270583  0.2289826619099955  0.7671134765823096  1.0000
  N   N11       1.0  0.589385164445936  0.23650823214840247  0.7675910902624634  1.0000
  N   N12       1.0  0.57956566497608  0.27146187696623514  0.733251039811712  1.0000
  N   N13       1.0  0.3382226509617254  0.7862805312816834  0.6609261731277055  1.0000
  O   O1        1.0  0.5257951275365969  0.45199738837287373  0.548186455793754  1.0000
  O   O2        1.0  0.18581319791501721  0.45773890043900434  0.4625826423964552  1.0000
  O   O3        1.0  0.025216149972813198  0.5483016981117999  0.4519861183519679  1.0000
  O   O4        1.0  0.18333631683707097  0.44990073805325187  0.5495001186785939  1.0000
  O   O5        1.0  0.02354321437792349  0.5387519111594729  0.5400289856359349  1.0000
  O   O6        1.0  0.5273968218459757  0.46147932460762325  0.45995777071407645  1.0000
  O   O7        1.0  0.3514774674878111  0.5291146158054618  0.49694507637592256  1.0000
  O   O8        1.0  0.6818984921296262  0.5426848647617178  0.5376505754854647  1.0000
  O   O9        1.0  0.6826667140339777  0.5504555504540677  0.4506556763967921  1.0000
  O   O10       1.0  0.8528178938617754  0.47115077118889565  0.5031953101892981  1.0000
  O   O11       1.0  0.5906571692086829  0.6404555309442658  0.7076834664690207  1.0000
  O   O12       1.0  0.1564412097119358  0.7128196461675247  0.6382601399801897  1.0000
  O   O13       1.0  0.2224210904692541  0.8615438091085751  0.7907761252136252  1.0000
  O   O14       1.0  0.6507166054811863  0.789985477952122  0.8587823365371106  1.0000
  O   O15       1.0  0.13866741610610936  0.21059596793133303  0.14216709632036376  1.0000
  O   O16       1.0  0.7255023972561006  0.1410855217302966  0.20528746825564065  1.0000
  O   O17       1.0  0.6715592624037896  0.28949340857284506  0.357831909944366  1.0000
  O   O18       1.0  0.08472783296723918  0.3589789139561646  0.2946735011968186  1.0000
  O   O19       1.0  0.2816254280343884  0.0385140266133348  0.040188854043094586  1.0000
  O   O20       1.0  0.6262413069443581  0.05003486026945579  0.9504245153432219  1.0000
  O   O21       1.0  0.7859837970418224  0.9613736847451834  0.9599552715905086  1.0000
  O   O22       1.0  0.6232567368836328  0.04244824252917571  0.03733734041706778  1.0000
  O   O23       1.0  0.783938353491699  0.9517382805573934  0.04802147463150413  1.0000
  O   O24       1.0  0.2838502403350418  0.048218268582978396  0.9520055478482943  1.0000
  O   O25       1.0  0.4578680539554938  0.9710231809315246  0.0030771825738539734  1.0000
  O   O26       1.0  0.12652166035196896  0.9494210005946189  0.04919134527959552  1.0000
  O   O27       1.0  0.12780421314884896  0.9578311885859565  0.9620391436178362  1.0000
  O   O28       1.0  0.9564726678364224  0.028935884763100706  0.9968832180879869  1.0000
  O   O29       1.0  0.28567775469646506  0.8157954729485654  0.6287286936472751  1.0000
  O   O30       1.0  0.5067405036614189  0.7671923821413105  0.6677003232193  1.0000
