data_image0
_chemical_formula_structural       Cd2H24C28S4N12O12
_chemical_formula_sum              "Cd2 H24 C28 S4 N12 O12"
_cell_length_a       5.546876131099161
_cell_length_b       12.545492108354493
_cell_length_c       13.716745778737131
_cell_angle_alpha    99.81086780316333
_cell_angle_beta     89.998178565976
_cell_angle_gamma    90.0001998792

_space_group_name_H-M_alt    "P 1"
_space_group_IT_number       1

loop_
  _space_group_symop_operation_xyz
  'x, y, z'

loop_
  _atom_site_type_symbol
  _atom_site_label
  _atom_site_symmetry_multiplicity
  _atom_site_fract_x
  _atom_site_fract_y
  _atom_site_fract_z
  _atom_site_occupancy
  Cd  Cd1       1.0  3.164840578100001e-06  0.5000004449882596  0.4999929262167698  1.0000
  Cd  Cd2       1.0  0.5000066326314966  0.5000037870094332  2.641083561605889e-06  1.0000
  H   H1        1.0  0.5487864242935955  0.6754610443572489  0.7397555488801262  1.0000
  H   H2        1.0  0.9512286718934037  0.6754798303614039  0.23978792947986705  1.0000
  H   H3        1.0  0.4512115891482367  0.32453738978530566  0.2602359361819211  1.0000
  H   H4        1.0  0.048803594871046116  0.32451663017199917  0.760220714806742  1.0000
  H   H5        1.0  0.44990406160885493  0.9152957273929231  0.49533888106876833  1.0000
  H   H6        1.0  0.05009212170543981  0.9153162477406125  0.9953693932028929  1.0000
  H   H7        1.0  0.5500506844735754  0.08469554617357743  0.5046455368341044  1.0000
  H   H8        1.0  0.9498914687676675  0.08468903514689428  0.004644418212819795  1.0000
  H   H9        1.0  0.7804840709764276  0.7753698696170801  0.4828673303402909  1.0000
  H   H10       1.0  0.7195277240076976  0.7753881044619533  0.9829062134323863  1.0000
  H   H11       1.0  0.21947247795944946  0.22462062484147788  0.5171154949219385  1.0000
  H   H12       1.0  0.2804630776377691  0.22461786852932866  0.017113550136215808  1.0000
  H   H13       1.0  0.9797995143794153  0.7815427086902034  0.767632492615924  1.0000
  H   H14       1.0  0.5201943881488874  0.7815710882406323  0.26765024305573354  1.0000
  H   H15       1.0  0.0202021045902399  0.21845472376045896  0.23236829879557064  1.0000
  H   H16       1.0  0.47982886438924055  0.21843184260519166  0.732359516692533  1.0000
  H   H17       1.0  0.1546942645233216  0.8889840162483651  0.8315013565802545  1.0000
  H   H18       1.0  0.34526951304060555  0.8890063321441842  0.3315249492376324  1.0000
  H   H19       1.0  0.8453073544513218  0.11101760856110592  0.1684928659323148  1.0000
  H   H20       1.0  0.6547429226277471  0.11099748165310072  0.6684813170384771  1.0000
  H   H21       1.0  0.23469690232027324  0.7517484273576545  0.8370470917966629  1.0000
  H   H22       1.0  0.26528840888014577  0.7517670444861081  0.3370666569316541  1.0000
  H   H23       1.0  0.7653137305988835  0.2482563287804922  0.16295277451399676  1.0000
  H   H24       1.0  0.7347312379984744  0.24823751877237746  0.6629426550951296  1.0000
  C   C1        1.0  0.5120265826574624  0.7308485985102066  0.6885429719415014  1.0000
  C   C2        1.0  0.987982280061587  0.7308692776958454  0.18857416205349867  1.0000
  C   C3        1.0  0.48796241674708796  0.26914823285363815  0.3114475077684206  1.0000
  C   C4        1.0  0.012044578189914999  0.2691295943581693  0.8114356271522782  1.0000
  C   C5        1.0  0.32180618698179597  0.8038856680374238  0.7008326816861514  1.0000
  C   C6        1.0  0.1781879259796639  0.803909224910605  0.20086006907112625  1.0000
  C   C7        1.0  0.6781828123763632  0.1961119276014003  0.29916011724674973  1.0000
  C   C8        1.0  0.8218317209802565  0.19609211801504503  0.7991479586698136  1.0000
  C   C9        1.0  0.304105727350816  0.8725294921545057  0.629605914168863  1.0000
  C   C10       1.0  0.1958839661338487  0.8725547624883063  0.1296346759754599  1.0000
  C   C11       1.0  0.6958724552263503  0.1274641039987756  0.3703840079650575  1.0000
  C   C12       1.0  0.8041248639173872  0.1274465655596231  0.8703740784753223  1.0000
  C   C13       1.0  0.46539776409161243  0.8630718331491565  0.5504482566120501  1.0000
  C   C14       1.0  0.0345980403943074  0.8630926944312164  0.050481173042513185  1.0000
  C   C15       1.0  0.5345696016063003  0.1369226311162279  0.44953889865026764  1.0000
  C   C16       1.0  0.9653963670318789  0.1369101621155124  0.949532219999945  1.0000
  C   C17       1.0  0.6473270032462252  0.7877573930199517  0.5417691387840905  1.0000
  C   C18       1.0  0.8526817416416962  0.7877746266333362  0.04180555100214889  1.0000
  C   C19       1.0  0.3526493764530585  0.21224029161024302  0.45821930067299393  1.0000
  C   C20       1.0  0.14731627136168868  0.21222897936181076  0.9582108878274199  1.0000
  C   C21       1.0  0.16401883374700083  0.8064449265963416  0.7895817517377426  1.0000
  C   C22       1.0  0.3359655790767632  0.8064656033478601  0.2896030739605209  1.0000
  C   C23       1.0  0.8359827852076904  0.1935558300626568  0.21041523775571852  1.0000
  C   C24       1.0  0.6640540678472462  0.19353735716389053  0.7104052326230603  1.0000
  C   C25       1.0  0.49544603458041087  0.5653092648541219  0.40039388627917566  1.0000
  C   C26       1.0  0.0045558038041875  0.565321804553207  0.9004028529770595  1.0000
  C   C27       1.0  0.5045411621607344  0.43468111099829804  0.5995947514778309  1.0000
  C   C28       1.0  0.995469251582897  0.4346845247041243  0.09959947183219241  1.0000
  S   S1        1.0  0.7485826789018049  0.5363168549589757  0.3412504638775502  1.0000
  S   S2        1.0  0.7514424317639694  0.5363413932161905  0.8412693333489969  1.0000
  S   S3        1.0  0.2514207434899234  0.463664787460381  0.6587286474748952  1.0000
  S   S4        1.0  0.2485609898785697  0.46366250958526206  0.1587325734148592  1.0000
  N   N1        1.0  0.6729201101597725  0.7237574102749136  0.6123394772961533  1.0000
  N   N2        1.0  0.8270964928991518  0.7237704777481825  0.1123728030766387  1.0000
  N   N3        1.0  0.327061677962682  0.2762419067999247  0.3876485143483848  1.0000
  N   N4        1.0  0.17291954836984053  0.2762299376567796  0.887640898083838  1.0000
  N   N5        1.0  0.12521404659098323  0.9581465158583314  0.6369926795373786  1.0000
  N   N6        1.0  0.37477024083977273  0.95817320364273  0.13701056059363032  1.0000
  N   N7        1.0  0.8747641359018842  0.0418477852125037  0.36300246822173693  1.0000
  N   N8        1.0  0.6252331807912909  0.04182900737583851  0.8629947003303544  1.0000
  N   N9        1.0  0.313477688038425  0.5891274963492918  0.4439688362213445  1.0000
  N   N10       1.0  0.18655087610896706  0.5891353835464699  0.9439869551419662  1.0000
  N   N11       1.0  0.6865527763973206  0.41086554346544807  0.5560085937536314  1.0000
  N   N12       1.0  0.8134471371597841  0.4108686379506493  0.056009138872106165  1.0000
  O   O1        1.0  0.8560010507989732  0.6589001029555206  0.610378955279515  1.0000
  O   O2        1.0  0.6440380152690109  0.6589037986220705  0.11041385946956694  1.0000
  O   O3        1.0  0.1439807373698727  0.3410984498443383  0.38960671714203704  1.0000
  O   O4        1.0  0.35598343441915864  0.3410948953404827  0.889604648997498  1.0000
  O   O5        1.0  0.1661388869144815  0.035543510585682704  0.5932014853538092  1.0000
  O   O6        1.0  0.3338418021806859  0.03556593826377251  0.0932158632904674  1.0000
  O   O7        1.0  0.8338465067253226  0.9644539514861493  0.40679785302050675  1.0000
  O   O8        1.0  0.666152605385662  0.9644354639297744  0.9067892583032632  1.0000
  O   O9        1.0  0.9398865030321913  0.9501318347430114  0.6863525312177218  1.0000
  O   O10       1.0  0.5600974732497904  0.9501630276599329  0.1863648073101416  1.0000
  O   O11       1.0  0.060091679506072596  0.049860863581081105  0.31364161109819844  1.0000
  O   O12       1.0  0.43991135685082833  0.049840051528299484  0.8136376865783037  1.0000
