data_image0
_chemical_formula_structural       Co2H20C24Br4N4O12
_chemical_formula_sum              "Co2 H20 C24 Br4 N4 O12"
_cell_length_a       7.039273825433604
_cell_length_b       9.889474381333276
_cell_length_c       10.272814005030074
_cell_angle_alpha    90.00017501450513
_cell_angle_beta     97.3320426146897
_cell_angle_gamma    89.9990521367888

_space_group_name_H-M_alt    "P 1"
_space_group_IT_number       1

loop_
  _space_group_symop_operation_xyz
  'x, y, z'

loop_
  _atom_site_type_symbol
  _atom_site_label
  _atom_site_symmetry_multiplicity
  _atom_site_fract_x
  _atom_site_fract_y
  _atom_site_fract_z
  _atom_site_occupancy
  Co  Co1       1.0  0.999998757240505  0.9999994646391387  0.4999993295260056  1.0000
  Co  Co2       1.0  0.5000003979242323  0.500000129176307  0.500000585278521  1.0000
  H   H1        1.0  0.7872544021701275  0.8779884401956866  0.6654920581015349  1.0000
  H   H2        1.0  0.7127432198139801  0.3779880734337767  0.3345102676370787  1.0000
  H   H3        1.0  0.21274496958052688  0.12201181816364233  0.3345080089251767  1.0000
  H   H4        1.0  0.2872575924291354  0.6220111737395728  0.6654889574978  1.0000
  H   H5        1.0  0.9633180434507198  0.7733529019174344  0.6572675119745526  1.0000
  H   H6        1.0  0.5366833938311617  0.273350608873308  0.3427358188939352  1.0000
  H   H7        1.0  0.036681328299941605  0.2266473564418945  0.3427325550521587  1.0000
  H   H8        1.0  0.4633159861110556  0.7266496494844291  0.657263275421933  1.0000
  H   H9        1.0  0.8970885221546325  0.5560961815919117  0.10553780152766731  1.0000
  H   H10       1.0  0.6029093025990662  0.05609586435399903  0.8944625946943179  1.0000
  H   H11       1.0  0.10291801923434461  0.44390407672430865  0.8944619468856416  1.0000
  H   H12       1.0  0.3970871963697818  0.9439054051996153  0.10553818340474663  1.0000
  H   H13       1.0  0.9069104722540615  0.981626480256516  0.20517154508259955  1.0000
  H   H14       1.0  0.5930934160429617  0.4816259633766222  0.7948267994801342  1.0000
  H   H15       1.0  0.09308891589125783  0.018372766923541  0.7948265765219421  1.0000
  H   H16       1.0  0.40690882028640385  0.5183742949661084  0.20517352918555085  1.0000
  H   H17       1.0  0.12676440590415441  0.7058120524951408  0.4879297082881849  1.0000
  H   H18       1.0  0.3732333764640218  0.2058133757380035  0.5120670753027172  1.0000
  H   H19       1.0  0.8732306853499949  0.294189217061998  0.5120680208588483  1.0000
  H   H20       1.0  0.6267674275759919  0.7941868826130264  0.4879331225434883  1.0000
  C   C1        1.0  0.06516780932722811  0.4704255704810907  0.3475951353360928  1.0000
  C   C2        1.0  0.4348224445214585  0.9704281866702402  0.6524076025442938  1.0000
  C   C3        1.0  0.934832994701232  0.5295756990460206  0.6524050625105817  1.0000
  C   C4        1.0  0.5651754867482951  0.0295720716989862  0.3475933063737813  1.0000
  C   C5        1.0  0.019109670486947998  0.6127255491520175  0.3021762261296104  1.0000
  C   C6        1.0  0.4808887740878092  0.11272618278048441  0.6978242299460575  1.0000
  C   C7        1.0  0.9808925658424174  0.3872747091907058  0.6978241025360818  1.0000
  C   C8        1.0  0.5191120381437531  0.8872740755689467  0.30217499518929714  1.0000
  C   C9        1.0  0.9326732161625702  0.6387111881289301  0.17444011171797774  1.0000
  C   C10       1.0  0.5673284497797015  0.13871208617458564  0.8255608854739053  1.0000
  C   C11       1.0  0.0673318847570528  0.3612880590210993  0.825560478586205  1.0000
  C   C12       1.0  0.4326709137794112  0.8612881721863349  0.17444015426365675  1.0000
  C   C13       1.0  0.897403388881209  0.7728468806578449  0.13764041638044947  1.0000
  C   C14       1.0  0.6025966522398963  0.27284545405006366  0.8623598650605616  1.0000
  C   C15       1.0  0.10259598288100591  0.22715236652539525  0.862359650645793  1.0000
  C   C16       1.0  0.3974027113192093  0.7271548043108568  0.1376411746770003  1.0000
  C   C17       1.0  0.9364479000703911  0.8758886712617128  0.22953938504424096  1.0000
  C   C18       1.0  0.5635540995314374  0.3758884280498337  0.7704594403348822  1.0000
  C   C19       1.0  0.06354861530467563  0.12411057593654114  0.7704594476321776  1.0000
  C   C20       1.0  0.4364481286063794  0.6241118302944811  0.22954186104165333  1.0000
  C   C21       1.0  0.058563211977151815  0.7215421546582023  0.38821924173973343  1.0000
  C   C22       1.0  0.441437050929416  0.2215429839617826  0.6117807364150778  1.0000
  C   C23       1.0  0.9414361597735096  0.27845810370112645  0.6117808252869779  1.0000
  C   C24       1.0  0.5585651771968474  0.7784582855586211  0.38822056496193375  1.0000
  Br  Br1       1.0  0.7899467113056532  0.816791510262256  0.9640738586084086  1.0000
  Br  Br2       1.0  0.710045155956337  0.31678820521038636  0.03592678277077252  1.0000
  Br  Br3       1.0  0.21005410096056928  0.18320571455891613  0.035925366525518115  1.0000
  Br  Br4       1.0  0.2899556480836765  0.6832120531406433  0.9640734150754258  1.0000
  N   N1        1.0  0.011884517089797004  0.8493752585948616  0.354041597055101  1.0000
  N   N2        1.0  0.4881171378086223  0.349372608142737  0.6459569483494505  1.0000
  N   N3        1.0  0.9881134387430566  0.15062601094567196  0.6459563937309057  1.0000
  N   N4        1.0  0.5118836580513958  0.6506266390337958  0.3540442222071222  1.0000
  O   O1        1.0  0.9491517091280032  0.37764787053355786  0.30038108927750784  1.0000
  O   O2        1.0  0.5508329973077296  0.8776440769665402  0.6996239496072151  1.0000
  O   O3        1.0  0.05085052718980881  0.6223533989852543  0.6996192393886532  1.0000
  O   O4        1.0  0.4491635016726719  0.12235618141099286  0.30037682849136627  1.0000
  O   O5        1.0  0.21126178240135832  0.44750450462159824  0.42984989492764925  1.0000
  O   O6        1.0  0.28873330844938755  0.947511629331089  0.5701512684365895  1.0000
  O   O7        1.0  0.788740437533349  0.552496764900397  0.5701523791602057  1.0000
  O   O8        1.0  0.711267495590626  0.052488629019940426  0.4298489294096087  1.0000
  O   O9        1.0  0.915528307217585  0.8680154127585595  0.6360901241446941  1.0000
  O   O10       1.0  0.5844695344876597  0.36801464139305307  0.3639131649259113  1.0000
  O   O11       1.0  0.08447106453306931  0.13198484560076912  0.3639099428820245  1.0000
  O   O12       1.0  0.4155312777439023  0.631985616956378  0.6360860602094434  1.0000
