data_image0
_chemical_formula_structural       Co4H50C66N10O18
_chemical_formula_sum              "Co4 H50 C66 N10 O18"
_cell_length_a       8.62911469027958
_cell_length_b       15.642358662575594
_cell_length_c       16.29161169243305
_cell_angle_alpha    104.33578533373809
_cell_angle_beta     102.24233814947499
_cell_angle_gamma    90.56965293301835

_space_group_name_H-M_alt    "P 1"
_space_group_IT_number       1

loop_
  _space_group_symop_operation_xyz
  'x, y, z'

loop_
  _atom_site_type_symbol
  _atom_site_label
  _atom_site_symmetry_multiplicity
  _atom_site_fract_x
  _atom_site_fract_y
  _atom_site_fract_z
  _atom_site_occupancy
  Co  Co1       1.0  0.35213758704270504  0.9467544060920757  0.35634836424314653  1.0000
  Co  Co2       1.0  0.8172487682741262  0.7863578374944209  0.7357485737606879  1.0000
  Co  Co3       1.0  0.6478579384300645  0.053250271179741994  0.6436460989125339  1.0000
  Co  Co4       1.0  0.1827335711851106  0.21364545267018537  0.264244161804676  1.0000
  H   H1        1.0  0.3902075028506146  0.8207809796615138  0.7584699264694238  1.0000
  H   H2        1.0  0.052752930789644395  0.0069798536791339  0.5999899561819292  1.0000
  H   H3        1.0  0.23147995754458606  0.9529911460771954  0.16269936704922122  1.0000
  H   H4        1.0  0.3219382783425573  0.9111336997747654  0.022914205915583363  1.0000
  H   H5        1.0  0.7670823674282304  0.8489833139976638  0.16918493076302352  1.0000
  H   H6        1.0  0.6478374008530706  0.8816613620851965  0.2994199322770329  1.0000
  H   H7        1.0  0.13779483280040947  0.7974840684875628  0.23281505302266942  1.0000
  H   H8        1.0  0.09386037425348089  0.6349035324675538  0.20903918611826106  1.0000
  H   H9        1.0  0.48843587279588246  0.6525180929648045  0.4285270182366291  1.0000
  H   H10       1.0  0.5060055961780918  0.8152130862235507  0.445869961790585  1.0000
  H   H11       1.0  0.1442137235671908  0.5004623483575443  0.1683908043564629  1.0000
  H   H12       1.0  0.10594977137409957  0.33954730836628483  0.15563273014570467  1.0000
  H   H13       1.0  0.3445666089204308  0.3667831262500413  0.40941231082489793  1.0000
  H   H14       1.0  0.3834923616076437  0.5303698821351616  0.4369753528319791  1.0000
  H   H15       1.0  0.8293022652407062  0.942666842991258  0.05786090060799154  1.0000
  H   H16       1.0  0.9293132675185448  0.8992239080244104  0.9209904991984106  1.0000
  H   H17       1.0  0.536593598120497  0.7259613110985441  0.7968034386490574  1.0000
  H   H18       1.0  0.41684821709350217  0.7637636131914576  0.9275088946212124  1.0000
  H   H19       1.0  0.7666696185210354  0.833395331120272  0.549205597438494  1.0000
  H   H20       1.0  0.9837661346538695  0.7982548158689226  0.3772218712744008  1.0000
  H   H21       1.0  0.7791524521534613  0.795423591329218  0.3824760577634906  1.0000
  H   H22       1.0  0.9125829997698316  0.8871977258660593  0.446556156003446  1.0000
  H   H23       1.0  0.128199247124428  0.7108732275940852  0.4401410034623866  1.0000
  H   H24       1.0  0.1702529375284314  0.7489112858143014  0.5558628208509903  1.0000
  H   H25       1.0  0.04409366656157231  0.6515847256478936  0.5030846579219458  1.0000
  H   H26       1.0  0.6098376112810512  0.17922448081024808  0.24151589155393086  1.0000
  H   H27       1.0  0.9472718769870027  0.9930161035381956  0.3999743128834155  1.0000
  H   H28       1.0  0.7685241689881295  0.0469831137745658  0.8372822420427541  1.0000
  H   H29       1.0  0.6780577699390092  0.08883934307890232  0.9770828345130911  1.0000
  H   H30       1.0  0.2329313275210652  0.15098785505352202  0.8308160163274892  1.0000
  H   H31       1.0  0.35216435672703034  0.11832286913283238  0.7005717053935857  1.0000
  H   H32       1.0  0.86218033986718  0.2025115611686346  0.7672101402396693  1.0000
  H   H33       1.0  0.9061334073785972  0.36510012008155707  0.7909898449567623  1.0000
  H   H34       1.0  0.5115695774669929  0.34746557610206  0.5714740918982955  1.0000
  H   H35       1.0  0.4940076289349875  0.18478910488462932  0.5541337971853296  1.0000
  H   H36       1.0  0.8557777219899447  0.49955699313318297  0.8316231819099615  1.0000
  H   H37       1.0  0.8940461872982013  0.6604613471302655  0.8443639250634264  1.0000
  H   H38       1.0  0.65546008586265  0.6332224682257248  0.5905973545362501  1.0000
  H   H39       1.0  0.6165158528251454  0.4696415259127419  0.5630287706042554  1.0000
  H   H40       1.0  0.17070206740499572  0.057343783034220094  0.942130964500663  1.0000
  H   H41       1.0  0.0706769038001411  0.1008010962977863  0.07899273670332722  1.0000
  H   H42       1.0  0.4634199661957581  0.2740636750327212  0.20316694330551147  1.0000
  H   H43       1.0  0.5831412887627678  0.23622166995264135  0.07245773715929002  1.0000
  H   H44       1.0  0.23332976219430177  0.16658508386542079  0.4508033219057595  1.0000
  H   H45       1.0  0.016217641998224498  0.20174477885817768  0.6228002444678182  1.0000
  H   H46       1.0  0.2208561868939327  0.20457737326523068  0.6175404337650079  1.0000
  H   H47       1.0  0.0874040740695889  0.11278862981190939  0.5534589593548491  1.0000
  H   H48       1.0  0.8717908076458444  0.28913667753352007  0.559850398992893  1.0000
  H   H49       1.0  0.8297515949418113  0.25109815349608766  0.4441441384499214  1.0000
  H   H50       1.0  0.9559202017842097  0.34841091335790947  0.4969237963414488  1.0000
  C   C1        1.0  0.32542185756894076  0.9825847866279885  0.5466769663767226  1.0000
  C   C2        1.0  0.5316881962294389  0.8641648205970752  0.6446103358839823  1.0000
  C   C3        1.0  0.12910115326921806  0.8578937616695795  0.8212254418197845  1.0000
  C   C4        1.0  0.9250657766250684  0.9701631486765834  0.7231675104785895  1.0000
  C   C5        1.0  0.27599023780710036  0.9439629704879662  0.6141561899854154  1.0000
  C   C6        1.0  0.3711546481001875  0.8907451083917479  0.6602472244402764  1.0000
  C   C7        1.0  0.31594496945101014  0.8623886209800842  0.7244744175380049  1.0000
  C   C8        1.0  0.17289341245533044  0.8871838559589943  0.746934908071971  1.0000
  C   C9        1.0  0.07921877916389519  0.9411076634341382  0.7016955766897796  1.0000
  C   C10       1.0  0.1303830573099276  0.9669613400422319  0.6349691290986642  1.0000
  C   C11       1.0  0.3468420698645788  0.926310566805931  0.16036123106656677  1.0000
  C   C12       1.0  0.399429627901938  0.9046855878230814  0.08313797385395118  1.0000
  C   C13       1.0  0.553616101101845  0.8769639560425518  0.08445816930392176  1.0000
  C   C14       1.0  0.6460700680873828  0.8699798307600873  0.16406805462211346  1.0000
  C   C15       1.0  0.5813794041459558  0.8888499525627721  0.23711936343268294  1.0000
  C   C16       1.0  0.212549033293179  0.7617326638593837  0.2741469474270702  1.0000
  C   C17       1.0  0.1905466420828219  0.6709634278556462  0.26109475359933043  1.0000
  C   C18       1.0  0.28918711865640734  0.6272894316389424  0.3161005794685536  1.0000
  C   C19       1.0  0.4062768565478692  0.6808801374989883  0.3833845425805082  1.0000
  C   C20       1.0  0.41894914193725447  0.7715663698127954  0.3933296160624878  1.0000
  C   C21       1.0  0.2681677767309836  0.531410407235384  0.304544374470055  1.0000
  C   C22       1.0  0.1888924706295185  0.47485127804488764  0.22472661047014242  1.0000
  C   C23       1.0  0.16905796422133082  0.3847685817361537  0.21619129573639387  1.0000
  C   C24       1.0  0.30178073280450224  0.4002002191105091  0.3584200481912064  1.0000
  C   C25       1.0  0.3244001711089268  0.49107188314854255  0.3724966663453771  1.0000
  C   C26       1.0  0.6163663884828665  0.8547185081348018  0.004771365318887941  1.0000
  C   C27       1.0  0.7627037662607278  0.892430257001436  0.0021615183361943947  1.0000
  C   C28       1.0  0.8167773317743894  0.8703713806767794  0.9254382314416747  1.0000
  C   C29       1.0  0.5967575176091914  0.7739606781793779  0.8562229268786583  1.0000
  C   C30       1.0  0.5318696763303947  0.7944380531832278  0.9292778808152351  1.0000
  C   C31       1.0  0.8621322237969196  0.7871728347153987  0.5540892305354035  1.0000
  C   C32       1.0  0.9011170514403729  0.8153425171496949  0.42022999106855974  1.0000
  C   C33       1.0  0.0789151159346417  0.7173770908016692  0.49768965891079403  1.0000
  C   C34       1.0  0.674611741628624  0.017427568962204997  0.45334850138155514  1.0000
  C   C35       1.0  0.4683203856917332  0.13585180668668778  0.3553870509498226  1.0000
  C   C36       1.0  0.8709056608408617  0.1421181877067852  0.17876576581969064  1.0000
  C   C37       1.0  0.07492636411413399  0.029835402903941592  0.2768067616592873  1.0000
  C   C38       1.0  0.7240167204638297  0.0560458682161737  0.3858564144632768  1.0000
  C   C39       1.0  0.6288503973648503  0.1092677076414148  0.33976854917975174  1.0000
  C   C40       1.0  0.6840504587785006  0.1376128478866505  0.2755303444613872  1.0000
  C   C41       1.0  0.827093761991236  0.11280887852190347  0.2530552937234418  1.0000
  C   C42       1.0  0.9207659138183004  0.05888374769588008  0.29829528257480586  1.0000
  C   C43       1.0  0.869610163064216  0.0330439867022605  0.36502523789199876  1.0000
  C   C44       1.0  0.6531538443035882  0.073662421751699  0.8396296438257168  1.0000
  C   C45       1.0  0.6005757098491812  0.09528678652662852  0.916853765171503  1.0000
  C   C46       1.0  0.4463895766421969  0.12301299260423089  0.9155285229556613  1.0000
  C   C47       1.0  0.35393625423491665  0.1299918339434569  0.8359174870372714  1.0000
  C   C48       1.0  0.4186234943931311  0.11112301696357456  0.7628661138913488  1.0000
  C   C49       1.0  0.7874398371983489  0.23826028282390146  0.7258668114013249  1.0000
  C   C50       1.0  0.8094514808469456  0.32903818307648436  0.7389250616767884  1.0000
  C   C51       1.0  0.7108180838692135  0.3727134664282729  0.6839123082271145  1.0000
  C   C52       1.0  0.5937371459113123  0.31911555580283846  0.6166300772192843  1.0000
  C   C53       1.0  0.581070846910329  0.2284300086743087  0.6066851869814729  1.0000
  C   C54       1.0  0.731828246306911  0.46859573909089386  0.6954670552826132  1.0000
  C   C55       1.0  0.8111108888380159  0.5251581608176464  0.7752808373897226  1.0000
  C   C56       1.0  0.8309470505455393  0.6152342403166101  0.7838129602083229  1.0000
  C   C57       1.0  0.6982152870306777  0.5997965781741497  0.6415781740495987  1.0000
  C   C58       1.0  0.6755893659571157  0.50893020669929  0.6275063823976412  1.0000
  C   C59       1.0  0.383636994604629  0.1452815925453237  0.9952241081363911  1.0000
  C   C60       1.0  0.23727836114701967  0.1075816612515723  0.99783748282664  1.0000
  C   C61       1.0  0.18320170432554764  0.1296582966264026  0.07455655780282201  1.0000
  C   C62       1.0  0.40323693799794563  0.22605909240957084  0.1437632417287915  1.0000
  C   C63       1.0  0.46811868357929853  0.20557908654490117  0.07071194095043862  1.0000
  C   C64       1.0  0.1378859370276118  0.2128063247064276  0.4459183343069882  1.0000
  C   C65       1.0  0.09888272947984689  0.18465501329095693  0.5797749405170693  1.0000
  C   C66       1.0  0.9210909913668958  0.2826256991213326  0.5023104091531395  1.0000
  N   N1        1.0  0.4350779559987714  0.9184478026038932  0.23675704685203425  1.0000
  N   N2        1.0  0.32471021723583243  0.8120204665673042  0.3391819016188721  1.0000
  N   N3        1.0  0.22534579213827044  0.3468840010920858  0.2815887646065748  1.0000
  N   N4        1.0  0.7355210079869536  0.8118490237956378  0.8532223098282758  1.0000
  N   N5        1.0  0.9415356740418517  0.7709753415959995  0.4903877713331541  1.0000
  N   N6        1.0  0.5649343713443075  0.08153580399486056  0.7632337332855246  1.0000
  N   N7        1.0  0.6752970410721559  0.18796789669576697  0.6608272373712938  1.0000
  N   N8        1.0  0.7746445593051801  0.6531022581965898  0.7184137871093629  1.0000
  N   N9        1.0  0.2644842333101565  0.1881714772068221  0.1467670202166715  1.0000
  N   N10       1.0  0.058453024120588296  0.22901943674115435  0.5096092034664254  1.0000
  O   O1        1.0  0.2555354591542951  0.9510674957863472  0.4682383639635149  1.0000
  O   O2        1.0  0.4253966574968757  0.04991210385868779  0.5741617587473515  1.0000
  O   O3        1.0  0.5833658598205106  0.7952776145432451  0.6681151637957188  1.0000
  O   O4        1.0  0.6060401348778086  0.909968469574835  0.6091407542701291  1.0000
  O   O5        1.0  0.1852549903634895  0.903603981529983  0.896507399279294  1.0000
  O   O6        1.0  0.04093193929832489  0.7849965043437094  0.8023743527757078  1.0000
  O   O7        1.0  0.8739936406090791  0.04146107574135271  0.704671938018862  1.0000
  O   O8        1.0  0.8524806679834214  0.9248473041382324  0.7598351201258567  1.0000
  O   O9        1.0  0.8949883024741396  0.7528105553787157  0.6172128134044856  1.0000
  O   O10       1.0  0.7444310228887758  0.04893728431077448  0.5317812607923145  1.0000
  O   O11       1.0  0.5746100617387027  0.9501115307184091  0.4258837004225812  1.0000
  O   O12       1.0  0.4165830286885921  0.2047222483514375  0.3318781212256141  1.0000
  O   O13       1.0  0.3939558967450125  0.0900520984296307  0.3908604994437114  1.0000
  O   O14       1.0  0.8147351930209864  0.0964197600626662  0.10348229906374938  1.0000
  O   O15       1.0  0.9590752810274381  0.2150255910419432  0.19764563604097424  1.0000
  O   O16       1.0  0.12599081417170774  0.9585395866974268  0.2953210307920814  1.0000
  O   O17       1.0  0.1475006238846035  0.07516047300195079  0.24014319237435444  1.0000
  O   O18       1.0  0.1050471295006119  0.24716657821173976  0.3827813945978421  1.0000
