data_image0
_chemical_formula_structural       Na8P4H76C32S16O8
_chemical_formula_sum              "Na8 P4 H76 C32 S16 O8"
_cell_length_a       10.784657477769903
_cell_length_b       11.693285752283606
_cell_length_c       13.55098495661816
_cell_angle_alpha    89.65897284395247
_cell_angle_beta     82.80563007765808
_cell_angle_gamma    83.55141104163708

_space_group_name_H-M_alt    "P 1"
_space_group_IT_number       1

loop_
  _space_group_symop_operation_xyz
  'x, y, z'

loop_
  _atom_site_type_symbol
  _atom_site_label
  _atom_site_symmetry_multiplicity
  _atom_site_fract_x
  _atom_site_fract_y
  _atom_site_fract_z
  _atom_site_occupancy
  Na  Na1       1.0  0.6370033713118843  0.903388259365592  0.5212113967076204  1.0000
  Na  Na2       1.0  0.3629975168127332  0.09661154645036159  0.4787879568940737  1.0000
  Na  Na3       1.0  0.5126467940872955  0.7724750300622815  0.2161027512634206  1.0000
  Na  Na4       1.0  0.4873531595723933  0.22752477473366647  0.7838974334433926  1.0000
  Na  Na5       1.0  0.4925926384580849  0.2757366241273688  0.2821369899003229  1.0000
  Na  Na6       1.0  0.5074073151598668  0.7242631808381716  0.7178617189023128  1.0000
  Na  Na7       1.0  0.6410080272666363  0.565636152654058  0.022805270604365508  1.0000
  Na  Na8       1.0  0.3589918195656878  0.4343645129769627  0.9771934444938635  1.0000
  P   P1        1.0  0.6083681052253026  0.0122116643014891  0.3021237380619438  1.0000
  P   P2        1.0  0.3916309139277274  0.9877881396440458  0.6978758018458036  1.0000
  P   P3        1.0  0.39413440047781023  0.5352846261769173  0.19569390244529214  1.0000
  P   P4        1.0  0.6058654463753825  0.4647160393693071  0.8043055506050364  1.0000
  H   H1        1.0  0.0203517180529715  0.04918029931228322  0.18179584390033904  1.0000
  H   H2        1.0  0.9796491700925076  0.950819506418874  0.8182042476534476  1.0000
  H   H3        1.0  0.9196313889481191  0.951446956255346  0.14479605141015375  1.0000
  H   H4        1.0  0.0803694992182287  0.048552849391008096  0.855204778095718  1.0000
  H   H5        1.0  0.898424487882899  0.0024572023995972  0.26916494574032157  1.0000
  H   H6        1.0  0.10157640026258004  0.9975426033315601  0.7308351458134651  1.0000
  H   H7        1.0  0.9368811898444348  0.25767639841793516  0.22273661243573875  1.0000
  H   H8        1.0  0.06311793611509128  0.7423225447773235  0.7772636591285006  1.0000
  H   H9        1.0  0.8124152530317659  0.21249145603886183  0.30859718968579836  1.0000
  H   H10       1.0  0.18758480743441205  0.7875074880068099  0.6914037266775068  1.0000
  H   H11       1.0  0.7770483778917452  0.3076751236986723  0.21058693482116544  1.0000
  H   H12       1.0  0.22295064132388384  0.6923246799924672  0.7894148189428518  1.0000
  H   H13       1.0  0.9660819421811127  0.1860580637750147  0.04315637043397658  1.0000
  H   H14       1.0  0.03391894598522777  0.8139417418713465  0.9568444590719024  1.0000
  H   H15       1.0  0.8058452437006024  0.23189215883360967  0.029409812091216708  1.0000
  H   H16       1.0  0.1941546031943275  0.7681085065430224  0.9705911168632821  1.0000
  H   H17       1.0  0.868600352357724  0.08613033034285421  0.004279092373067815  1.0000
  H   H18       1.0  0.1314005357877548  0.9138694753883032  0.9957209991807188  1.0000
  H   H19       1.0  0.9791712234109228  0.6609379922888508  0.3069257893979439  1.0000
  H   H20       1.0  0.0208286234631387  0.3390626731725774  0.6930744016044696  1.0000
  H   H21       1.0  0.07545911824127663  0.5422164394873478  0.3508268457939677  1.0000
  H   H22       1.0  0.924540835418405  0.4577833653086003  0.6491733389128453  1.0000
  H   H23       1.0  0.10255436630773566  0.5838941242905237  0.22481000117275574  1.0000
  H   H24       1.0  0.8974455873310916  0.41610568059022063  0.775189445581965  1.0000
  H   H25       1.0  0.0647510138255853  0.8474102905057778  0.2634780466752459  1.0000
  H   H26       1.0  0.9352498742990322  0.15258951531017576  0.7365213069264483  1.0000
  H   H27       1.0  0.19003667945636243  0.7749798846612775  0.18017637591137967  1.0000
  H   H28       1.0  0.8099642086682549  0.2250199211546757  0.8198229776903145  1.0000
  H   H29       1.0  0.2243031177673771  0.8652383362722066  0.27607309170390687  1.0000
  H   H30       1.0  0.775697663571613  0.1347623302092273  0.723926268193388  1.0000
  H   H31       1.0  0.03235603114109854  0.788937737313994  0.44427087335502335  1.0000
  H   H32       1.0  0.9676438157120942  0.21106292823223072  0.5557285796953051  1.0000
  H   H33       1.0  0.1932587663314322  0.8000081377380044  0.45861474540775043  1.0000
  H   H34       1.0  0.8067401460568393  0.19999252678821486  0.54138553874769  1.0000
  H   H35       1.0  0.12795533375793863  0.6690779322316447  0.48747189711713895  1.0000
  H   H36       1.0  0.8720434718238367  0.3309235930448509  0.5125276553818094  1.0000
  H   H37       1.0  0.5939081770063055  0.5383002215529801  0.519558204321136  1.0000
  H   H38       1.0  0.40609260435354605  0.46170044484365763  0.48044189352825123  1.0000
  H   H39       1.0  0.6284483261466605  0.6310454721347796  0.41535359886446327  1.0000
  H   H40       1.0  0.3715534964846157  0.36895433453157983  0.5846463995362966  1.0000
  H   H41       1.0  0.4881193358045195  0.6646598359820431  0.49993321066197177  1.0000
  H   H42       1.0  0.5118815523200906  0.3353399698339104  0.5000661429397225  1.0000
  H   H43       1.0  0.8223307701462588  0.6494696147024115  0.4724544627747063  1.0000
  H   H44       1.0  0.1776683558132675  0.35052932849284707  0.52754580878954  1.0000
  H   H45       1.0  0.7896396495000745  0.5695653861047065  0.5848454274406263  1.0000
  H   H46       1.0  0.21036134543103202  0.43043355896097074  0.4151546578175597  1.0000
  H   H47       1.0  0.797252422060495  0.7501385478943521  0.6839550883439997  1.0000
  H   H48       1.0  0.2027475315991935  0.24986125690159613  0.3160450963628135  1.0000
  H   H49       1.0  0.9428551642690053  0.6998574677999586  0.6112541449105746  1.0000
  H   H50       1.0  0.057144789411545084  0.30014233691119335  0.38874677774833083  1.0000
  H   H51       1.0  0.004324822898681205  0.8959773775263075  0.6067169365056911  1.0000
  H   H52       1.0  0.9956750239962417  0.10402328785032473  0.393283992448815  1.0000
  H   H53       1.0  0.8584130542267233  0.9409617090014849  0.6829206436526789  1.0000
  H   H54       1.0  0.14158607171193444  0.05903723427857701  0.3170788899594754  1.0000
  H   H55       1.0  0.8944294056262834  0.0069245511661649  0.5647922004326134  1.0000
  H   H56       1.0  0.10557054805426694  0.9930752535449872  0.43520872222629237  1.0000
  H   H57       1.0  0.6006111810958855  0.9414360552977075  0.013612237496467092  1.0000
  H   H58       1.0  0.39938877256380323  0.05856374949824071  0.9863879472103463  1.0000
  H   H59       1.0  0.6253575134544604  0.8383710183068088  0.9126406729595328  1.0000
  H   H60       1.0  0.37464233339873226  0.16162964723941542  0.08735878009079559  1.0000
  H   H61       1.0  0.48973892513049583  0.8390532431681024  0.003136987998288998  1.0000
  H   H62       1.0  0.5102610285291931  0.1609465616278456  0.9968631967085243  1.0000
  H   H63       1.0  0.8227480243748461  0.7747670985812151  0.9620430438803068  1.0000
  H   H64       1.0  0.17725192926397432  0.22523270629952924  0.03795640287441419  1.0000
  H   H65       1.0  0.7999004944642252  0.8693384234229529  0.06852466956977571  1.0000
  H   H66       1.0  0.200099459174595  0.13066138145779152  0.9314747771849452  1.0000
  H   H67       1.0  0.8114524215990356  0.6964217911166559  0.17962180805840686  1.0000
  H   H68       1.0  0.18854659753313285  0.3035780129136755  0.8203769938972556  1.0000
  H   H69       1.0  0.9530026422301531  0.7080814472813018  0.0980368557753906  1.0000
  H   H70       1.0  0.04699637694374559  0.29191835657943704  0.9019634220844492  1.0000
  H   H71       1.0  0.010303708308029512  0.49784785716128965  0.10539495387880037  1.0000
  H   H72       1.0  0.9896961385660317  0.5021528083001385  0.8946052371236133  1.0000
  H   H73       1.0  0.8689081731035131  0.49090870320547003  0.19056884646587946  1.0000
  H   H74       1.0  0.13109271502110426  0.5090911026104834  0.8094305071358149  1.0000
  H   H75       1.0  0.8939812963518818  0.4100134020143998  0.07654476574698071  1.0000
  H   H76       1.0  0.10601772280114828  0.5899864019311353  0.923454774160774  1.0000
  C   C1        1.0  0.835897408702074  0.13011082526421802  0.1627459528589483  1.0000
  C   C2        1.0  0.1641025449576148  0.86988897953173  0.8372542318478648  1.0000
  C   C3        1.0  0.9230270449756902  0.027004388397074305  0.19151505693698564  1.0000
  C   C4        1.0  0.07697301546961904  0.9729945557333938  0.808485121474227  1.0000
  C   C5        1.0  0.8403146405701135  0.23326834081073872  0.2304170790793805  1.0000
  C   C6        1.0  0.15968541989607127  0.766730603234933  0.7695838372839245  1.0000
  C   C7        1.0  0.8702698681572585  0.1603601763682576  0.05326612247150558  1.0000
  C   C8        1.0  0.12972904423100567  0.8396404881579614  0.9467341616839346  1.0000
  C   C9        1.0  0.1634550160254165  0.7014602121536556  0.3283374745682862  1.0000
  C   C10       1.0  0.8365449375925352  0.29853959281188486  0.6716612342343422  1.0000
  C   C11       1.0  0.07550720138138435  0.6165774065035807  0.3010100732314313  1.0000
  C   C12       1.0  0.9244928590639319  0.3834215376268873  0.6989901051797816  1.0000
  C   C13       1.0  0.1611122016750882  0.8034425420768019  0.2574615904448265  1.0000
  C   C14       1.0  0.8388877519846006  0.1965572627191463  0.7425385942619869  1.0000
  C   C15       1.0  0.12761626986043945  0.7423859527881621  0.43625854933320324  1.0000
  C   C16       1.0  0.8723817080420415  0.25761471080284803  0.5637418279752707  1.0000
  C   C17       1.0  0.5868255227940367  0.6278775759469968  0.49367843422014346  1.0000
  C   C18       1.0  0.4131752585866835  0.3721230903648377  0.5063224015813288  1.0000
  C   C19       1.0  0.7800932764477295  0.6556249495382503  0.5511403007996163  1.0000
  C   C20       1.0  0.21990761169775655  0.3443748561929071  0.4488597907541631  1.0000
  C   C21       1.0  0.8448883029993796  0.7372708673103078  0.6072091642335593  1.0000
  C   C22       1.0  0.15511258514609946  0.26272893842084244  0.3927909273202274  1.0000
  C   C23       1.0  0.9038309028948959  0.9261448015900485  0.6058839255365598  1.0000
  C   C24       1.0  0.09616822306463038  0.07385414160521722  0.3941163460276797  1.0000
  C   C25       1.0  0.5892086455434224  0.8531236937179755  0.9917336531334582  1.0000
  C   C26       1.0  0.4107912013097703  0.1468769718282488  0.008265799916863194  1.0000
  C   C27       1.0  0.7858520799151593  0.7833683289153582  0.0418780497909808  1.0000
  C   C28       1.0  0.21414693925873246  0.2166314749453805  0.958122228068859  1.0000
  C   C29       1.0  0.853497198546151  0.6921436086654893  0.1009390535888812  1.0000
  C   C30       1.0  0.1464998448913946  0.3078570539055079  0.8990621548247046  1.0000
  C   C31       1.0  0.9086753326061228  0.49081855121745127  0.111482411398505  1.0000
  C   C32       1.0  0.09132462103270458  0.5091812536633001  0.8885170353562158  1.0000
  S   S1        1.0  0.699132237555972  0.8538060461700427  0.3148555187362446  1.0000
  S   S2        1.0  0.30086688840355447  0.14619289702522315  0.6851447528279946  1.0000
  S   S3        1.0  0.6255609344938549  0.1161388958970448  0.4182290364264246  1.0000
  S   S4        1.0  0.3744381914656643  0.8838600472982208  0.5817712351378146  1.0000
  S   S5        1.0  0.42719328621716096  0.012217182785804005  0.2748504771981074  1.0000
  S   S6        1.0  0.5728056261502416  0.9877834818252114  0.7251490690052476  1.0000
  S   S7        1.0  0.6707202969955759  0.09494893133307873  0.16587041241893974  1.0000
  S   S8        1.0  0.32927965666411296  0.9050508734628694  0.8341297722878733  1.0000
  S   S9        1.0  0.574119415773616  0.4987842185970735  0.22669795271995943  1.0000
  S   S10       1.0  0.4258806446508388  0.5012147256181905  0.773301487739161  1.0000
  S   S11       1.0  0.3801508664240957  0.6417756081240071  0.07766166241975007  1.0000
  S   S12       1.0  0.6198489804291043  0.3582250574222172  0.9223377906305784  1.0000
  S   S13       1.0  0.30436395565527613  0.395047223918141  0.18333677487257208  1.0000
  S   S14       1.0  0.6956359979209452  0.604952581216999  0.816660458025886  1.0000
  S   S15       1.0  0.3276089352145419  0.6313671282388214  0.3296133388811952  1.0000
  S   S16       1.0  0.6723911252516358  0.3686318158068501  0.6703875774821098  1.0000
  O   O1        1.0  0.6487994405587543  0.6970689694262829  0.5555640954417098  1.0000
  O   O2        1.0  0.35120144760759336  0.3029308362200781  0.44443673406416906  1.0000
  O   O3        1.0  0.8433619736616437  0.8450283541446383  0.5562633238268686  1.0000
  O   O4        1.0  0.1566388076982079  0.1549723122519993  0.44373677402251827  1.0000
  O   O5        1.0  0.6536945567449238  0.7716786751949698  0.05340277506984139  1.0000
  O   O6        1.0  0.3463053968938965  0.22832112968577437  0.9465966716848796  1.0000
  O   O7        1.0  0.8454157158005627  0.5815441248549436  0.059333856070175335  1.0000
  O   O8        1.0  0.15458434464475349  0.41845481927553174  0.9406663223410374  1.0000
