data_image0
_chemical_formula_structural       Cu8H72C136N24O32
_chemical_formula_sum              "Cu8 H72 C136 N24 O32"
_cell_length_a       17.822740780061118
_cell_length_b       22.77853120204742
_cell_length_c       22.7783387401306
_cell_angle_alpha    64.65602722624536
_cell_angle_beta     66.95117206689946
_cell_angle_gamma    66.95164797975207

_space_group_name_H-M_alt    "P 1"
_space_group_IT_number       1

loop_
  _space_group_symop_operation_xyz
  'x, y, z'

loop_
  _atom_site_type_symbol
  _atom_site_label
  _atom_site_symmetry_multiplicity
  _atom_site_fract_x
  _atom_site_fract_y
  _atom_site_fract_z
  _atom_site_occupancy
  Cu  Cu1       1.0  0.45023614109640425  0.36016118072084424  0.7128830705527917  1.0000
  Cu  Cu2       1.0  0.023323703548605607  0.13982451896886522  0.7871736752894873  1.0000
  Cu  Cu3       1.0  0.549757549516464  0.28713772963642026  0.6398529530856648  1.0000
  Cu  Cu4       1.0  0.9766834650511883  0.21283799672691125  0.8601679057559365  1.0000
  Cu  Cu5       1.0  0.5497448277974613  0.6398529391310391  0.28714854773888016  1.0000
  Cu  Cu6       1.0  0.9766662164396255  0.8601864969076306  0.21284160839491734  1.0000
  Cu  Cu7       1.0  0.45026395610057796  0.7128409441589413  0.3601595699171297  1.0000
  Cu  Cu8       1.0  0.02335635473195903  0.7871495324394859  0.13979171032462281  1.0000
  H   H1        1.0  0.6500855480602682  0.028622969019735895  0.028597310138621858  1.0000
  H   H2        1.0  0.20733229350157964  0.47141634332671595  0.47143100724995435  1.0000
  H   H3        1.0  0.3499357966789561  0.9714015233645695  0.9713823152719385  1.0000
  H   H4        1.0  0.7927010802033577  0.5285359502060704  0.5285558936173087  1.0000
  H   H5        1.0  0.9434604064791898  0.009703262638751702  0.009699956710029765  1.0000
  H   H6        1.0  0.4630479910871372  0.4902009900135696  0.49024968445305445  1.0000
  H   H7        1.0  0.056567919413296815  0.9902949654537  0.9902800816401508  1.0000
  H   H8        1.0  0.5369284251743591  0.5097759467990103  0.5098257215594799  1.0000
  H   H9        1.0  0.5254866032396706  0.24056064692687326  0.8964571000329543  1.0000
  H   H10       1.0  0.16265145839820147  0.2594681477178967  0.6035765456336293  1.0000
  H   H11       1.0  0.474523482213513  0.10355804440745692  0.7594286016044124  1.0000
  H   H12       1.0  0.8373643489377899  0.39641965090024917  0.7405267595648154  1.0000
  H   H13       1.0  0.47450779734690934  0.7594441864095673  0.10353094064479504  1.0000
  H   H14       1.0  0.8373105055815131  0.7405443416718074  0.3964286842100222  1.0000
  H   H15       1.0  0.5254810201287157  0.8964911889704581  0.24054858831847542  1.0000
  H   H16       1.0  0.16269420682618832  0.6035684619704187  0.2594509989873116  1.0000
  H   H17       1.0  0.5972179887134957  0.16026139697697775  0.9870587811995434  1.0000
  H   H18       1.0  0.24466111686672326  0.33977834419092556  0.5129870050056411  1.0000
  H   H19       1.0  0.4028180638740865  0.0129410040352482  0.8397311809369796  1.0000
  H   H20       1.0  0.7553596320110998  0.4870045005477337  0.6602060137452811  1.0000
  H   H21       1.0  0.4027954275217808  0.8397539780483856  0.01291492089002594  1.0000
  H   H22       1.0  0.7553144028962253  0.6602301020279171  0.48701800373947185  1.0000
  H   H23       1.0  0.5972219218001272  0.9870915370992679  0.1602414431679121  1.0000
  H   H24       1.0  0.24468475979648463  0.5129785332864645  0.33976511455209385  1.0000
  H   H25       1.0  0.7442154177475757  0.17418265286963935  0.747609657561533  1.0000
  H   H26       1.0  0.16585805057981426  0.32591433908235967  0.7524184018536528  1.0000
  H   H27       1.0  0.2557780369401143  0.2523856885173928  0.8258203771500519  1.0000
  H   H28       1.0  0.8341323760441243  0.24757615352865517  0.674097508530643  1.0000
  H   H29       1.0  0.2557856940081892  0.825831252955297  0.2523741630904153  1.0000
  H   H30       1.0  0.8341214682455558  0.6740840029708295  0.2475862283483892  1.0000
  H   H31       1.0  0.744197009706248  0.7476277861779154  0.17417953329380262  1.0000
  H   H32       1.0  0.1658742183262376  0.752410602415317  0.3259147863758685  1.0000
  H   H33       1.0  0.8179843644044027  0.09586459863079001  0.8371583216548046  1.0000
  H   H34       1.0  0.25082397029206055  0.40425649428425464  0.6628854767055684  1.0000
  H   H35       1.0  0.1820331427824229  0.16282780328619142  0.9041301513945327  1.0000
  H   H36       1.0  0.7491829406939132  0.33710176384384755  0.5957521041018339  1.0000
  H   H37       1.0  0.18203420431058245  0.9041608555480355  0.16281032635517073  1.0000
  H   H38       1.0  0.7491627703142641  0.5957584582765209  0.3371062549195896  1.0000
  H   H39       1.0  0.817973392879679  0.8371790036369549  0.09584760501810057  1.0000
  H   H40       1.0  0.25082460288821545  0.6628839766062954  0.4042590206800511  1.0000
  H   H41       1.0  0.456935069532996  0.4526124998855749  0.7753350442713938  1.0000
  H   H42       1.0  0.18485652117898616  0.047296179014594514  0.7249287816015267  1.0000
  H   H43       1.0  0.5430531076336109  0.22466372630442782  0.5474245720610823  1.0000
  H   H44       1.0  0.8151450635399585  0.2750686836722523  0.9527078029024522  1.0000
  H   H45       1.0  0.5430689915244997  0.5474180576645651  0.2246450738738233  1.0000
  H   H46       1.0  0.8151071623368507  0.9526785771182279  0.27511020671376923  1.0000
  H   H47       1.0  0.4569159043241697  0.7753659518422822  0.4525842456185316  1.0000
  H   H48       1.0  0.18489156210628713  0.7249048469864905  0.04728429880432119  1.0000
  H   H49       1.0  0.3570631582176347  0.5366956284432405  0.8342172308465905  1.0000
  H   H50       1.0  0.22789983546559955  0.9633795883084917  0.665869524021346  1.0000
  H   H51       1.0  0.6428964333424432  0.16578361498416433  0.46333635817415336  1.0000
  H   H52       1.0  0.7720884829441773  0.3341330040799023  0.036631606501892  1.0000
  H   H53       1.0  0.6429399119966986  0.4633143560837355  0.16579358313840922  1.0000
  H   H54       1.0  0.772030121549207  0.036577605196903604  0.33419486133278303  1.0000
  H   H55       1.0  0.3570434003878803  0.8342202993961579  0.5366710250244678  1.0000
  H   H56       1.0  0.22796013201763543  0.6658103462579845  0.9633891580983088  1.0000
  H   H57       1.0  0.2599776156221196  0.4090907007585401  0.7634957113952793  1.0000
  H   H58       1.0  0.9324771734137871  0.09113161047270783  0.7366469463010502  1.0000
  H   H59       1.0  0.7400105904020151  0.23654318968267068  0.5909041083674181  1.0000
  H   H60       1.0  0.06752460514572083  0.2633478275724245  0.9088865157525062  1.0000
  H   H61       1.0  0.7400407075408993  0.5909101442530941  0.23650470675228516  1.0000
  H   H62       1.0  0.06748140428484814  0.9088727534919843  0.26334834263294477  1.0000
  H   H63       1.0  0.2599722909134671  0.7635050300301601  0.4090718149221856  1.0000
  H   H64       1.0  0.9325145600777561  0.7366454366084485  0.0911134105351223  1.0000
  H   H65       1.0  0.15076622575758591  0.49366205310087713  0.8191588122399691  1.0000
  H   H66       1.0  0.9634408122829471  0.006713999019304103  0.6808568160742752  1.0000
  H   H67       1.0  0.8492101901330074  0.18088254787593883  0.5063287933007317  1.0000
  H   H68       1.0  0.03653815989059689  0.31913687022846204  0.9933126306076687  1.0000
  H   H69       1.0  0.8492293494905211  0.50632125408292  0.180872841421845  1.0000
  H   H70       1.0  0.036520739171777214  0.9932743447703918  0.31917081571929606  1.0000
  H   H71       1.0  0.1507601907698586  0.8191610478663807  0.4936292562374972  1.0000
  H   H72       1.0  0.9634816495494293  0.6808287003671724  0.006706507774225702  1.0000
  C   C1        1.0  0.8391438219919112  0.06566085062033272  0.9657383789108634  1.0000
  C   C2        1.0  0.3706437832007621  0.43432622108614544  0.5342569950498728  1.0000
  C   C3        1.0  0.1608820488098033  0.03426833786994621  0.934329516817435  1.0000
  C   C4        1.0  0.6293628428487139  0.4657405460148994  0.5656806842023697  1.0000
  C   C5        1.0  0.16088779495772335  0.9343711538809034  0.03422694843654734  1.0000
  C   C6        1.0  0.6293483041220754  0.5656565365132806  0.46576455209842044  1.0000
  C   C7        1.0  0.8391304215084078  0.9657661802740807  0.06563270085454301  1.0000
  C   C8        1.0  0.3706536779250271  0.5342366653942605  0.4343436586119084  1.0000
  C   C9        1.0  0.630812229647326  0.21235236043417424  0.8165624441788565  1.0000
  C   C10       1.0  0.15973633770524032  0.2877005391708565  0.6834707542053805  1.0000
  C   C11       1.0  0.3691925612362041  0.18344415366718894  0.7876452315544568  1.0000
  C   C12       1.0  0.8402588737888126  0.3165175037481306  0.7123067013932596  1.0000
  C   C13       1.0  0.3691961996921406  0.7876524951957437  0.18343093874079833  1.0000
  C   C14       1.0  0.840239318018128  0.7122947681343138  0.3165328596199186  1.0000
  C   C15       1.0  0.6307883514115534  0.8165808843477436  0.21234261893277326  1.0000
  C   C16       1.0  0.1597635136274748  0.6834530772677426  0.2877033367453165  1.0000
  C   C17       1.0  0.8918692460792884  0.11112611356768548  0.9106305929147636  1.0000
  C   C18       1.0  0.41367367132107097  0.3888314426761568  0.589424163877318  1.0000
  C   C19       1.0  0.1081482529246571  0.08938748886460253  0.8888764823234894  1.0000
  C   C20       1.0  0.58634269131948  0.4105689961969362  0.6111685404889612  1.0000
  C   C21       1.0  0.10815816545637355  0.8889130152681233  0.08934655988307585  1.0000
  C   C22       1.0  0.5863296361817588  0.6111487409307658  0.41058670860681457  1.0000
  C   C23       1.0  0.8918536419024221  0.910653125474646  0.11109337478447416  1.0000
  C   C24       1.0  0.4136946757978636  0.5894005624620818  0.38883909656336596  1.0000
  C   C25       1.0  0.5859106964801839  0.2573048169629217  0.7630973075868183  1.0000
  C   C26       1.0  0.10637585433807571  0.2427240662825057  0.736935956798547  1.0000
  C   C27       1.0  0.4140917372058866  0.23690759920717144  0.7426909829414824  1.0000
  C   C28       1.0  0.8936122516677898  0.26305547402387225  0.7572897874343026  1.0000
  C   C29       1.0  0.4140956624316061  0.7426844347534998  0.23690827514017335  1.0000
  C   C30       1.0  0.8935954276403423  0.7572697602525837  0.2630753460267029  1.0000
  C   C31       1.0  0.5858868690925833  0.763104338441778  0.2573041080278314  1.0000
  C   C32       1.0  0.1064198959580125  0.7369151044150187  0.24271988975500855  1.0000
  C   C33       1.0  0.7141355791244807  0.025475990452648003  0.02544594799517334  1.0000
  C   C34       1.0  0.26509801212296225  0.474562724483512  0.47457463530822946  1.0000
  C   C35       1.0  0.28588553012500023  0.9745600897011432  0.9745269920614844  1.0000
  C   C36       1.0  0.7349377337543146  0.5254006819166224  0.5254124479808694  1.0000
  C   C37       1.0  0.8791073329642813  0.013530506412060102  0.01350285829609281  1.0000
  C   C38       1.0  0.40630963624008853  0.48641710866597526  0.4864327777051967  1.0000
  C   C39       1.0  0.12090798232675586  0.9865010099571093  0.9864659279140541  1.0000
  C   C40       1.0  0.5936886860409983  0.5135707103830783  0.5135912560567562  1.0000
  C   C41       1.0  0.5895667446669748  0.2084968200611002  0.884167129133793  1.0000
  C   C42       1.0  0.1823257703706673  0.2915367442944758  0.6158691559244004  1.0000
  C   C43       1.0  0.41044745438995284  0.11583980541072952  0.7914967828007206  1.0000
  C   C44       1.0  0.8176807360180052  0.3841195218275502  0.7084647178223802  1.0000
  C   C45       1.0  0.4104369746351112  0.7915166128054666  0.11582399750745505  1.0000
  C   C46       1.0  0.8176428024172467  0.708465131039624  0.38413467530769196  1.0000
  C   C47       1.0  0.589555760342151  0.8841932624082036  0.2084798775493582  1.0000
  C   C48       1.0  0.18236202239467048  0.6158575638432496  0.2915318691363992  1.0000
  C   C49       1.0  0.6297647066474213  0.16355450621155407  0.9344607822143727  1.0000
  C   C50       1.0  0.2278810499294295  0.336480629529099  0.5655853929553558  1.0000
  C   C51       1.0  0.3702553244215139  0.06553730206012891  0.8364430992736516  1.0000
  C   C52       1.0  0.7721302640562017  0.43440330725867693  0.6635148410837387  1.0000
  C   C53       1.0  0.3702538592893206  0.8364709946176703  0.06551838292123328  1.0000
  C   C54       1.0  0.7720889123754875  0.6635207396387772  0.4344182302006486  1.0000
  C   C55       1.0  0.6297506361013703  0.9344912070084563  0.1635307347001884  1.0000
  C   C56       1.0  0.22791798590686332  0.5655737529084706  0.33647611994818044  1.0000
  C   C57       1.0  0.7132784739620988  0.17158179925741024  0.8000754177612491  1.0000
  C   C58       1.0  0.18483315941875136  0.3285042952524151  0.699959175897085  1.0000
  C   C59       1.0  0.28672183177285865  0.1999233439470913  0.82841144446229  1.0000
  C   C60       1.0  0.8151529556283209  0.30003276496265857  0.6715085006807582  1.0000
  C   C61       1.0  0.28672775497764047  0.8284295822938577  0.19990879960563754  1.0000
  C   C62       1.0  0.8151394133264988  0.6714965523629247  0.3000407979090125  1.0000
  C   C63       1.0  0.7132539997435641  0.8000986261119679  0.17156787558281655  1.0000
  C   C64       1.0  0.18485431566344354  0.6999519850988066  0.32850708631814723  1.0000
  C   C65       1.0  0.7540685063784025  0.1278521554623921  0.8501354036532475  1.0000
  C   C66       1.0  0.23196399679557095  0.372236273833444  0.6499023022883392  1.0000
  C   C67       1.0  0.2459431958808906  0.1498609800552587  0.8721403715643702  1.0000
  C   C68       1.0  0.7680449196707216  0.35008717338187273  0.6277626821101305  1.0000
  C   C69       1.0  0.24594721195419575  0.8721672998512843  0.1498472450306282  1.0000
  C   C70       1.0  0.7680285019570049  0.6277524648095892  0.3501011713944706  1.0000
  C   C71       1.0  0.7540497515339125  0.8501554020115096  0.12783215505339016  1.0000
  C   C72       1.0  0.23197319778189754  0.6498924980857768  0.37224693822571436  1.0000
  C   C73       1.0  0.7550274710116797  0.07221112806730902  0.9710352765797339  1.0000
  C   C74       1.0  0.2983240696456093  0.4278381506645561  0.5289815587611741  1.0000
  C   C75       1.0  0.24499584360084012  0.028966731892403206  0.9277920182740826  1.0000
  C   C76       1.0  0.7016995619741736  0.47100397679687234  0.5721489867077735  1.0000
  C   C77       1.0  0.24499641646148274  0.9278239533604021  0.028940314819720966  1.0000
  C   C78       1.0  0.7016823926467665  0.5721434960547285  0.4710176163661616  1.0000
  C   C79       1.0  0.7550167934900498  0.9710582345749404  0.07218041718707707  1.0000
  C   C80       1.0  0.29833221657902  0.5289731054557835  0.42784658212483595  1.0000
  C   C81       1.0  0.712597204709361  0.1226621060612487  0.9181852254894237  1.0000
  C   C82       1.0  0.2534528205271087  0.3774060935953047  0.5818517769005779  1.0000
  C   C83       1.0  0.2874310296361812  0.08180897628230349  0.8773336630883223  1.0000
  C   C84       1.0  0.7465687391107211  0.4181397630570275  0.622583226256978  1.0000
  C   C85       1.0  0.2874306143825223  0.8773648859121651  0.08178869945299978  1.0000
  C   C86       1.0  0.7465398467033709  0.6225821562115785  0.4181553681935241  1.0000
  C   C87       1.0  0.7125808288357122  0.918207389857898  0.12263569923891275  1.0000
  C   C88       1.0  0.2534709693667097  0.5818373212323423  0.3774129805081827  1.0000
  C   C89       1.0  0.24537810289255194  0.5217176088899295  0.8315494460120048  1.0000
  C   C90       1.0  0.09853335409335529  0.9784832113812103  0.6685315628143653  1.0000
  C   C91       1.0  0.7545988825029681  0.16847336627870393  0.4782826639177669  1.0000
  C   C92       1.0  0.901439644356948  0.33146546276795874  0.021536172597443254  1.0000
  C   C93       1.0  0.7546213361521197  0.47826872137927284  0.16848059474514088  1.0000
  C   C94       1.0  0.9014070828947852  0.021511724794336804  0.3315014612697312  1.0000
  C   C95       1.0  0.24535119128980645  0.8315526783570492  0.5217036825091981  1.0000
  C   C96       1.0  0.09858413098686467  0.6684955472973827  0.978479765629366  1.0000
  C   C97       1.0  0.18201922904199114  0.5677870834431645  0.8666563704376526  1.0000
  C   C98       1.0  0.11629256585169387  0.9324213611398096  0.6334323307131197  1.0000
  C   C99       1.0  0.8179771963183953  0.13335792921448333  0.43220812827620847  1.0000
  C   C100      1.0  0.883666989911717  0.36655359562665535  0.06760747414322298  1.0000
  C   C101      1.0  0.81798939461887  0.4321845881252103  0.1333714706967868  1.0000
  C   C102      1.0  0.8836556017393491  0.0675795706686273  0.36658607400887183  1.0000
  C   C103      1.0  0.18198070350157275  0.8666575481798876  0.567787401099565  1.0000
  C   C104      1.0  0.11634814094433205  0.6334059457297204  0.9324187759501681  1.0000
  C   C105      1.0  0.38853228019808467  0.4627648158088392  0.7868251935946303  1.0000
  C   C106      1.0  0.1380801891608954  0.037260609600466  0.7133626122703588  1.0000
  C   C107      1.0  0.6114502312817011  0.21318934483792168  0.5372540060255061  1.0000
  C   C108      1.0  0.8619200665476114  0.2866355220594274  0.9627468260143175  1.0000
  C   C109      1.0  0.6114687576313927  0.5372512135783936  0.21318187910316058  1.0000
  C   C110      1.0  0.8618655661847184  0.9627257776049591  0.28667905440624947  1.0000
  C   C111      1.0  0.3885170232752558  0.7868382318540698  0.46273650241219133  1.0000
  C   C112      1.0  0.138130894952333  0.7133243584363386  0.03724281551378538  1.0000
  C   C113      1.0  0.3328776795722205  0.5098247265207407  0.8189007576734467  1.0000
  C   C114      1.0  0.16153188689260403  0.9902914153524023  0.6811970443950272  1.0000
  C   C115      1.0  0.6670952966450159  0.18110648729486917  0.4901929378859506  1.0000
  C   C116      1.0  0.8384528867749168  0.3188033493645366  0.0097181250049657  1.0000
  C   C117      1.0  0.6671224744366739  0.49018124663972185  0.1811166340815403  1.0000
  C   C118      1.0  0.838403257318852  0.009688470452424302  0.3188590271528112  1.0000
  C   C119      1.0  0.3328543350215298  0.8189099871165125  0.5097994310839412  1.0000
  C   C120      1.0  0.16158637790223196  0.6811460098628928  0.9902906238554008  1.0000
  C   C121      1.0  0.2783458559870411  0.4391709000642479  0.7794476049460499  1.0000
  C   C122      1.0  0.9968789751142636  0.06101579510299621  0.7206805896411765  1.0000
  C   C123      1.0  0.7216405880665064  0.220587194876373  0.5608254518007311  1.0000
  C   C124      1.0  0.0031195442661271114  0.2793162981262541  0.9390008231308045  1.0000
  C   C125      1.0  0.7216549095832434  0.5608350469372709  0.2205639031431375  1.0000
  C   C126      1.0  0.003081598075084581  0.9389972218343631  0.2793296686278168  1.0000
  C   C127      1.0  0.27834256441291677  0.7794529426657706  0.4391503645819056  1.0000
  C   C128      1.0  0.9969113202864434  0.7206653129941006  0.06099087641984358  1.0000
  C   C129      1.0  0.21811203180843117  0.48557764997012504  0.810381343279289  1.0000
  C   C130      1.0  0.013955773940573105  0.014672245344080204  0.6897033542438746  1.0000
  C   C131      1.0  0.7818655484586473  0.18965737922881945  0.5144119051079129  1.0000
  C   C132      1.0  0.9860301516218185  0.3102955805587939  0.9853499714234104  1.0000
  C   C133      1.0  0.7818889998635047  0.5144112083894115  0.18964931247430164  1.0000
  C   C134      1.0  0.9859993059931539  0.9853317342564057  0.3103190763298753  1.0000
  C   C135      1.0  0.21810601665151091  0.8103827130222855  0.4855534393394763  1.0000
  C   C136      1.0  0.01399440535077192  0.6896739792957619  0.014657646384563277  1.0000
  N   N1        1.0  0.36209370681441305  0.4275846893241706  0.7678696093282723  1.0000
  N   N2        1.0  0.0574952838144682  0.0724791736285226  0.7323081410585813  1.0000
  N   N3        1.0  0.6378967313550278  0.23215429303572682  0.5724218852332397  1.0000
  N   N4        1.0  0.9425089892532127  0.2676854215913311  0.9275316052625868  1.0000
  N   N5        1.0  0.6379069254579407  0.5724343518843967  0.23213321476865895  1.0000
  N   N6        1.0  0.9424616634366745  0.9275373756289086  0.2677012666352922  1.0000
  N   N7        1.0  0.36208797903471174  0.7678757594507887  0.42755780587254577  1.0000
  N   N8        1.0  0.05754007769670727  0.732294607798096  0.07244553090470868  1.0000
  N   N9        1.0  0.2705680724631065  0.5922447780294818  0.9078336959649319  1.0000
  N   N10       1.0  0.27053055642088714  0.9078202714415158  0.5922744073739352  1.0000
  N   N11       1.0  0.7294263199760922  0.09218016684621942  0.40774680516177125  1.0000
  N   N12       1.0  0.7294454999349894  0.40771576610433163  0.09219084364753624  1.0000
  N   N13       1.0  0.198426786638187  0.5975387876314785  0.9025659546201579  1.0000
  N   N14       1.0  0.19837844570675153  0.9025639954590758  0.5975580987547103  1.0000
  N   N15       1.0  0.8015710438418253  0.0974384468382752  0.4024592481907873  1.0000
  N   N16       1.0  0.801590851972165  0.40242782550690503  0.09746042444158569  1.0000
  N   N17       1.0  0.09940359480787458  0.5860852205458686  0.8744106996829756  1.0000
  N   N18       1.0  0.05968815408505892  0.9141353814415895  0.6257359504999086  1.0000
  N   N19       1.0  0.9005931180023411  0.12560145662083497  0.413894395557861  1.0000
  N   N20       1.0  0.9402695785820541  0.37423899485845175  0.08590408544149138  1.0000
  N   N21       1.0  0.9006065186562111  0.413869300343805  0.12562233071642476  1.0000
  N   N22       1.0  0.9402546954957957  0.08587409350566591  0.37427249698886544  1.0000
  N   N23       1.0  0.09936058207591703  0.8744210498635498  0.5860914868035182  1.0000
  N   N24       1.0  0.05973585557232751  0.6257186004515917  0.9141387127764418  1.0000
  O   O1        1.0  0.5146932164215984  0.29840143743313524  0.7802397279101142  1.0000
  O   O2        1.0  0.0936137048757217  0.20149770209806664  0.7198516226023557  1.0000
  O   O3        1.0  0.48530168952701297  0.21976838454396855  0.7015901843372987  1.0000
  O   O4        1.0  0.9063600235448632  0.28015399655338064  0.7985111286052841  1.0000
  O   O5        1.0  0.485309989753162  0.7015954081801611  0.21976969115507927  1.0000
  O   O6        1.0  0.9063385913401732  0.7984891855352318  0.28018913722861766  1.0000
  O   O7        1.0  0.5146646173008094  0.7802329083255514  0.29839615518535106  1.0000
  O   O8        1.0  0.09367415901252943  0.719810494262383  0.20149264917273502  1.0000
  O   O9        1.0  0.8816951820841724  0.16704313785500352  0.9161984372774015  1.0000
  O   O10       1.0  0.46489223821514974  0.3328320342958407  0.5839727116565855  1.0000
  O   O11       1.0  0.118299662209111  0.08383384370771552  0.8329601538430463  1.0000
  O   O12       1.0  0.5351289671736127  0.41599884999959613  0.667174884599298  1.0000
  O   O13       1.0  0.11836634971101029  0.8329743740067317  0.08380259577748457  1.0000
  O   O14       1.0  0.5351314114085782  0.6671601256820168  0.4160056741337356  1.0000
  O   O15       1.0  0.8816394313145539  0.9162103873352552  0.16702654274970263  1.0000
  O   O16       1.0  0.4648984032649751  0.583964132505713  0.33283031831926013  1.0000
  O   O17       1.0  0.946986689958905  0.08663790478371422  0.8649015695292802  1.0000
  O   O18       1.0  0.398627779820366  0.4133603583037628  0.6350989359097099  1.0000
  O   O19       1.0  0.05304666260987999  0.13511310186293463  0.9133773113067747  1.0000
  O   O20       1.0  0.60139973125915  0.3649072918842081  0.5866219833291311  1.0000
  O   O21       1.0  0.05301907239131516  0.9134329444877521  0.135052294103147  1.0000
  O   O22       1.0  0.601385151530863  0.5866147854208635  0.36491466974799636  1.0000
  O   O23       1.0  0.9469992242457081  0.8649436079620969  0.08657824026053647  1.0000
  O   O24       1.0  0.39865912810167  0.6350762988400336  0.413361146035072  1.0000
  O   O25       1.0  0.6206519370982093  0.2506397364688624  0.7046143001151535  1.0000
  O   O26       1.0  0.07574715884261002  0.24951075425011032  0.7953701420951089  1.0000
  O   O27       1.0  0.3793514063400068  0.2953933326918944  0.7493564608242308  1.0000
  O   O28       1.0  0.924243162975586  0.2046146156741102  0.7505138277718258  1.0000
  O   O29       1.0  0.3793606878245227  0.7493217940022775  0.29540483641842036  1.0000
  O   O30       1.0  0.9242250070721525  0.7504931265679958  0.2046304034593833  1.0000
  O   O31       1.0  0.6206318048788405  0.7046176618740462  0.25065386722667427  1.0000
  O   O32       1.0  0.07579864127879435  0.795354477075449  0.24950274566938882  1.0000
