data_image0
_chemical_formula_structural       Fe2P2H6C2O14
_chemical_formula_sum              "Fe2 P2 H6 C2 O14"
_cell_length_a       5.0390390568784476
_cell_length_b       7.600843258680467
_cell_length_c       7.6080763518476875
_cell_angle_alpha    95.85215750279366
_cell_angle_beta     101.5774547133255
_cell_angle_gamma    106.51021090229554

_space_group_name_H-M_alt    "P 1"
_space_group_IT_number       1

loop_
  _space_group_symop_operation_xyz
  'x, y, z'

loop_
  _atom_site_type_symbol
  _atom_site_label
  _atom_site_symmetry_multiplicity
  _atom_site_fract_x
  _atom_site_fract_y
  _atom_site_fract_z
  _atom_site_occupancy
  Fe  Fe1       1.0  0.038026336710643684  0.2589071129059946  0.2997132110742058  1.0000
  Fe  Fe2       1.0  0.9619694802526125  0.7410907749869864  0.7002826508664697  1.0000
  P   P1        1.0  0.644784304023254  0.5497137535683336  0.2844940783234762  1.0000
  P   P2        1.0  0.355208126374599  0.45028551623750707  0.715502802474191  1.0000
  H   H1        1.0  0.7466377014092271  0.9224239267962274  0.39368567000473575  1.0000
  H   H2        1.0  0.2533681456142816  0.0775863684844538  0.6063208394379984  1.0000
  H   H3        1.0  0.5464613030508829  0.044854837368085  0.3248687470515677  1.0000
  H   H4        1.0  0.453540501768586  0.9551512857052132  0.6751367445101764  1.0000
  H   H5        1.0  0.736040710362822  0.607484280192381  0.014054289087503979  1.0000
  H   H6        1.0  0.26394970348844277  0.39251919373990773  0.9859414873697148  1.0000
  C   C1        1.0  0.12551443891239694  0.9735850654066454  0.052948496046830884  1.0000
  C   C2        1.0  0.8744948149364048  0.0264071244874486  0.9470550870021128  1.0000
  O   O1        1.0  0.20395590263770905  0.8520197198668598  0.9715998844284074  1.0000
  O   O2        1.0  0.7960561358143821  0.1479614288356927  0.028394923236383818  1.0000
  O   O3        1.0  0.2328727685629488  0.0593007798738299  0.21587698681596382  1.0000
  O   O4        1.0  0.7671291415866646  0.9406887522182074  0.7841174221252486  1.0000
  O   O5        1.0  0.7464668490325012  0.0509709100770976  0.38204844678605815  1.0000
  O   O6        1.0  0.25353625288841636  0.9490379216448234  0.6179627859357453  1.0000
  O   O7        1.0  0.8027380618594364  0.4080872309122298  0.3257561249181791  1.0000
  O   O8        1.0  0.197272583271932  0.5919203805832468  0.6742428334071919  1.0000
  O   O9        1.0  0.6978376005608026  0.6944170456874017  0.45569896420783346  1.0000
  O   O10       1.0  0.30216089567560533  0.30558639199529125  0.5442992049692137  1.0000
  O   O11       1.0  0.7634136531213044  0.6686159274740432  0.143933230345084  1.0000
  O   O12       1.0  0.2365727256138399  0.33138757404679353  0.8560606943891003  1.0000
  O   O13       1.0  0.32219244421408166  0.44870755824509695  0.2028843583613593  1.0000
  O   O14       1.0  0.677804694156407  0.5512930761515021  0.7971146232868734  1.0000
