data_image0
_chemical_formula_structural       Cu4H24C16S2N8O12
_chemical_formula_sum              "Cu4 H24 C16 S2 N8 O12"
_cell_length_a       8.016540717077946
_cell_length_b       8.016543138447773
_cell_length_c       11.203022745895522
_cell_angle_alpha    105.71960906524295
_cell_angle_beta     105.72011994613472
_cell_angle_gamma    94.79347009077672

_space_group_name_H-M_alt    "P 1"
_space_group_IT_number       1

loop_
  _space_group_symop_operation_xyz
  'x, y, z'

loop_
  _atom_site_type_symbol
  _atom_site_label
  _atom_site_symmetry_multiplicity
  _atom_site_fract_x
  _atom_site_fract_y
  _atom_site_fract_z
  _atom_site_occupancy
  Cu  Cu1       1.0  0.09700963747188499  0.4775435050756159  0.8031717356041809  1.0000
  Cu  Cu2       1.0  0.5224571669673849  0.902986709291156  0.6968270832733834  1.0000
  Cu  Cu3       1.0  0.9029898382241228  0.5224603288560701  0.19682528608486638  1.0000
  Cu  Cu4       1.0  0.47754184617562595  0.09701446665363277  0.3031728942544092  1.0000
  H   H1        1.0  0.2873911125916209  0.6510598321288444  0.0874555991978809  1.0000
  H   H2        1.0  0.3489377510555798  0.7126052165822472  0.4125458973864866  1.0000
  H   H3        1.0  0.7126063795142912  0.3489400162483562  0.9125447098190091  1.0000
  H   H4        1.0  0.6510614590150469  0.2873893765631124  0.5874546074701356  1.0000
  H   H5        1.0  0.0359057351235563  0.2200922932887437  0.5401151527028388  1.0000
  H   H6        1.0  0.7799079785378993  0.9640939446236203  0.9598839427330216  1.0000
  H   H7        1.0  0.9640909377922354  0.7799023451041263  0.4598777201609962  1.0000
  H   H8        1.0  0.22009946604175207  0.035919086209411  0.040120923646988195  1.0000
  H   H9        1.0  0.40949450172513474  0.33395411465086516  0.7697257056957907  1.0000
  H   H10       1.0  0.6660402240406142  0.5904952569028836  0.7302746195550041  1.0000
  H   H11       1.0  0.5905043083856043  0.6660457605643372  0.2302721903298916  1.0000
  H   H12       1.0  0.33395075666922486  0.40949665854687817  0.2697255219801703  1.0000
  H   H13       1.0  0.018532824257093176  0.7540393239950731  0.682629849980408  1.0000
  H   H14       1.0  0.24596003056605298  0.9814705618390533  0.8173690267218346  1.0000
  H   H15       1.0  0.9814653696957902  0.2459566419653854  0.3173626913943294  1.0000
  H   H16       1.0  0.7540463070585091  0.018535873488481496  0.18263700026746216  1.0000
  H   H17       1.0  0.9530799282561304  0.7733684805893475  0.8774272311904809  1.0000
  H   H18       1.0  0.2266304898137506  0.046919912729741504  0.6225736284769211  1.0000
  H   H19       1.0  0.046918426362665897  0.2266287437049144  0.12257273081859668  1.0000
  H   H20       1.0  0.7733702403375559  0.953083884446265  0.3774289889192558  1.0000
  H   H21       1.0  0.9854004486368877  0.693875207812944  0.9951625828428873  1.0000
  H   H22       1.0  0.30612056875013843  0.014598983848237901  0.5048370113804523  1.0000
  H   H23       1.0  0.014597695888582495  0.30612070868576785  0.004836187519444492  1.0000
  H   H24       1.0  0.6938790685682006  0.9853982319541998  0.49516498691426836  1.0000
  C   C1        1.0  0.4495790639061141  0.409346522141476  0.8727949279675683  1.0000
  C   C2        1.0  0.5906484241175034  0.5504158697818793  0.6272046447632886  1.0000
  C   C3        1.0  0.550422339847927  0.5906533643539332  0.12720348120794256  1.0000
  C   C4        1.0  0.409345374451071  0.44957737887557403  0.37279542185769526  1.0000
  C   C5        1.0  0.3825567372843111  0.5843893819958836  0.04768293726179703  1.0000
  C   C6        1.0  0.4156074024793097  0.6174440324974171  0.45231976424793857  1.0000
  C   C7        1.0  0.6174435656192826  0.4156117925230448  0.9523181866962813  1.0000
  C   C8        1.0  0.5843881272196896  0.38255185152318927  0.5476811625306863  1.0000
  C   C9        1.0  0.021056010336692983  0.34582527847514644  0.5227148656739189  1.0000
  C   C10       1.0  0.6541735669071259  0.9789430705368504  0.9772825146640115  1.0000
  C   C11       1.0  0.9789391627251832  0.6541680535480265  0.47727566911289887  1.0000
  C   C12       1.0  0.34583236369649484  0.021068639794556497  0.022721793349724413  1.0000
  C   C13       1.0  0.01168508038330166  0.6397376807376529  0.6014787454470748  1.0000
  C   C14       1.0  0.3602650784307428  0.9883183417419305  0.8985220253648263  1.0000
  C   C15       1.0  0.9883081293152429  0.3602595633919776  0.39851485113012325  1.0000
  C   C16       1.0  0.639743004446352  0.011690743080684698  0.10148308207136843  1.0000
  S   S1        1.0  0.9147545119641193  0.08525052974739819  0.7500029651099991  1.0000
  S   S2        1.0  0.08524991268092917  0.9147519906852963  0.2499974506534314  1.0000
  N   N1        1.0  0.32982847883658906  0.4938465748607613  0.9190411191173027  1.0000
  N   N2        1.0  0.5061489250356742  0.6701641011691136  0.5809592690203756  1.0000
  N   N3        1.0  0.6701705484285368  0.5061546152159551  0.08095707869975396  1.0000
  N   N4        1.0  0.49384616329349734  0.3298291460624867  0.41904194403088707  1.0000
  N   N5        1.0  0.03344459834738697  0.4857126483857072  0.6270817914368506  1.0000
  N   N6        1.0  0.5142863771255789  0.9665555240967761  0.8729181234025559  1.0000
  N   N7        1.0  0.9665507777467538  0.5142819843670523  0.37291082485207017  1.0000
  N   N8        1.0  0.48571909798609875  0.03345353531369709  0.12708825059456066  1.0000
  O   O1        1.0  0.9494335722168687  0.2707364988584899  0.8401465727976427  1.0000
  O   O2        1.0  0.7292703705849631  0.050553414162642696  0.6598530285611303  1.0000
  O   O3        1.0  0.05056674480884739  0.729264689792366  0.15985277144969245  1.0000
  O   O4        1.0  0.27073510643953097  0.9494398923217273  0.3401484573786887  1.0000
  O   O5        1.0  0.9512295559638061  0.6616755559427503  0.8984828015814795  1.0000
  O   O6        1.0  0.3383205208978381  0.0487688158356221  0.6015175295506338  1.0000
  O   O7        1.0  0.048772703242065105  0.3383216994037569  0.10151615044158288  1.0000
  O   O8        1.0  0.6616795577903218  0.9512310367558213  0.39848418247145634  1.0000
  O   O9        1.0  0.9343587395864572  0.9634362601858583  0.8292703440950716  1.0000
  O   O10       1.0  0.03657555319939829  0.0656623545064718  0.6707392811368678  1.0000
  O   O11       1.0  0.06565518299679948  0.03656891531868211  0.1707342509862144  1.0000
  O   O12       1.0  0.9634279948106512  0.9343427758772264  0.32926326134512607  1.0000
