data_image0
_chemical_formula_structural       Zr6H30C55O43
_chemical_formula_sum              "Zr6 H30 C55 O43"
_cell_length_a       14.74256327531912
_cell_length_b       14.754990343456045
_cell_length_c       14.811647937778837
_cell_angle_alpha    60.08780497613462
_cell_angle_beta     59.909095578230435
_cell_angle_gamma    60.01026894918069

_space_group_name_H-M_alt    "P 1"
_space_group_IT_number       1

loop_
  _space_group_symop_operation_xyz
  'x, y, z'

loop_
  _atom_site_type_symbol
  _atom_site_label
  _atom_site_symmetry_multiplicity
  _atom_site_fract_x
  _atom_site_fract_y
  _atom_site_fract_z
  _atom_site_occupancy
  Zr  Zr1       1.0  0.8806474196701335  0.8817956998140916  0.6190019850431767  1.0000
  Zr  Zr2       1.0  0.12311175582844675  0.117916281896207  0.38064761907716615  1.0000
  Zr  Zr3       1.0  0.12088776454970669  0.8796466736600195  0.6195232661783834  1.0000
  Zr  Zr4       1.0  0.882889105357883  0.1206849442228091  0.3791530493468331  1.0000
  Zr  Zr5       1.0  0.12114769619476805  0.8803120042027998  0.379438318350708  1.0000
  Zr  Zr6       1.0  0.8814415402159241  0.1207470924576699  0.618768313643898  1.0000
  H   H1        1.0  0.0946840125921895  0.7180819336601517  0.5929494067564391  1.0000
  H   H2        1.0  0.09943274632348684  0.09166101560559527  0.21725872126245346  1.0000
  H   H3        1.0  0.09547313507855654  0.09551162182088996  0.5932631627881833  1.0000
  H   H4        1.0  0.7186467348564778  0.09711929183718859  0.593137122774344  1.0000
  H   H5        1.0  0.8522966531304307  0.5858625301363035  0.6445270727940412  1.0000
  H   H6        1.0  0.122353873613541  0.6100602917438066  0.33552557636672026  1.0000
  H   H7        1.0  0.8553320363203557  0.4153180697484161  0.6418267446718176  1.0000
  H   H8        1.0  0.5773653873548098  0.863972581016867  0.9068433520014522  1.0000
  H   H9        1.0  0.6144222516033155  0.11745953922972772  0.9379017264464193  1.0000
  H   H10       1.0  0.41010093282490356  0.8621667471604227  0.07993118909800499  1.0000
  H   H11       1.0  0.1346280891276949  0.842423170578435  0.09526090520694198  1.0000
  H   H12       1.0  0.8504212104284791  0.14011281721002442  0.09225328592275878  1.0000
  H   H13       1.0  0.13113126816354992  0.8435298699511264  0.9268763367223655  1.0000
  H   H14       1.0  0.6059929168141095  0.43836346859402636  0.6221601694537926  1.0000
  H   H15       1.0  0.5910448005111706  0.41362173869406144  0.35322183377822824  1.0000
  H   H16       1.0  0.43662789089638937  0.60834456959509  0.6191305079484409  1.0000
  H   H17       1.0  0.17119609182122306  0.5583413783802555  0.8835342507530228  1.0000
  H   H18       1.0  0.7359589930323982  0.6507950526346846  0.9854130029457479  1.0000
  H   H19       1.0  0.7919935765248244  0.5661496865806653  0.9037029012832108  1.0000
  H   H20       1.0  0.7954004343053783  0.3967711780213606  0.07459604343200267  1.0000
  H   H21       1.0  0.7397846162225293  0.48217661247097254  0.1553937432463005  1.0000
  H   H22       1.0  0.5803109014340181  0.15079031227973172  0.3582642181542255  1.0000
  H   H23       1.0  0.5994621769765304  0.8469875551764617  0.6333490850994822  1.0000
  H   H24       1.0  0.41119551875048194  0.14579527003309792  0.3611632311973381  1.0000
  H   H25       1.0  0.2622808951136193  0.37750717307500276  0.34129891132075574  1.0000
  H   H26       1.0  0.37195004781487034  0.26119142972096654  0.043987938937348786  1.0000
  H   H27       1.0  0.9225237615449731  0.2483427594083595  0.8077011542451658  1.0000
  H   H28       1.0  0.2958511049833847  0.5271832526933052  0.43882992216011024  1.0000
  H   H29       1.0  0.3016258393105389  0.9025950396181417  0.7493611875343048  1.0000
  H   H30       1.0  0.17771972823721427  0.3283382991547157  0.12542903073344286  1.0000
  C   C1        1.0  0.9932634843140775  0.702664143376552  0.49519191357708087  1.0000
  C   C2        1.0  0.3137014738003216  0.9921460596804366  0.20228117249217087  1.0000
  C   C3        1.0  0.995755424615382  0.3109659283340279  0.4926514400029591  1.0000
  C   C4        1.0  0.700609982487343  0.9971611929551756  0.8064918446191527  1.0000
  C   C5        1.0  0.001214588623646903  0.6968316408054562  0.8012789757218995  1.0000
  C   C6        1.0  0.6995912755555268  0.0001813389165194273  0.49597944843262104  1.0000
  C   C7        1.0  0.005171968806862983  0.3030831841880257  0.19299853040426743  1.0000
  C   C8        1.0  0.3077192792270722  0.9973303435049772  0.4993233561050446  1.0000
  C   C9        1.0  0.31108613909839306  0.7008756897982876  0.49302971810944035  1.0000
  C   C10       1.0  0.9957877270187157  0.9957584809892097  0.8090986726544287  1.0000
  C   C11       1.0  0.7044934794251603  0.3110086582392457  0.4926728902904502  1.0000
  C   C12       1.0  0.996935778622351  0.9951993508329127  0.2001495272053973  1.0000
  C   C13       1.0  0.9907013601696877  0.41706556733877437  0.4876692095548093  1.0000
  C   C14       1.0  0.9895394332134019  0.605109829961144  0.491743505986058  1.0000
  C   C15       1.0  0.06464886766568877  0.4734545040737572  0.3987589259459057  1.0000
  C   C16       1.0  0.9121222701379639  0.5525749115813102  0.5772366069170618  1.0000
  C   C17       1.0  0.0646809727189109  0.5662045239176406  0.4023815227381676  1.0000
  C   C18       1.0  0.913590149787531  0.4585761943945599  0.5753117256531013  1.0000
  C   C19       1.0  0.41735752034006873  0.9903623615114441  0.1038115640054542  1.0000
  C   C20       1.0  0.6025047045039145  0.9938603913798403  0.9104372601026968  1.0000
  C   C21       1.0  0.47612138924512953  0.06142463346112243  0.06547006362080782  1.0000
  C   C22       1.0  0.5471309099411954  0.9197898960605785  0.9511484506863539  1.0000
  C   C23       1.0  0.5674949838789162  0.06391987526100007  0.9678415913292112  1.0000
  C   C24       1.0  0.4546105778242124  0.9188441013423302  0.04689382368783884  1.0000
  C   C25       1.0  0.9920076349304524  0.9947824684089992  0.9125084576804666  1.0000
  C   C26       1.0  0.9940169954501885  0.9927301298811031  0.10173375592000165  1.0000
  C   C27       1.0  0.911023742777026  0.0787205502037837  0.9595568495961969  1.0000
  C   C28       1.0  0.07285501322208895  0.9080581764106058  0.05639329846894018  1.0000
  C   C29       1.0  0.9126264907434419  0.07650030260172284  0.054212562239890086  1.0000
  C   C30       1.0  0.07118705478057309  0.9091455901255188  0.9628213992085861  1.0000
  C   C31       1.0  0.4153904159509953  0.6030087737106982  0.48838942667478613  1.0000
  C   C32       1.0  0.6063360866821483  0.4151482852450601  0.4893224788406556  1.0000
  C   C33       1.0  0.4595644246369445  0.5497284716961631  0.4110235481914162  1.0000
  C   C34       1.0  0.5641452103202269  0.46999433590156786  0.5639386996242878  1.0000
  C   C35       1.0  0.5553320033660258  0.4563097398508376  0.4120128962112021  1.0000
  C   C36       1.0  0.4694832737148862  0.5637078918690647  0.5628612808190924  1.0000
  C   C37       1.0  0.005291259314546415  0.5919448566914056  0.8962406838818566  1.0000
  C   C38       1.0  0.008347746526709408  0.3977415478098507  0.0897799944469568  1.0000
  C   C39       1.0  0.9156300880731864  0.5521781409842748  0.9578262441255276  1.0000
  C   C40       1.0  0.10283678787779134  0.43425189933853403  0.022864304732294685  1.0000
  C   C41       1.0  0.9176845088099698  0.4585173209908365  0.051881926860019745  1.0000
  C   C42       1.0  0.09957303582394435  0.5302030202847589  0.9293043829576674  1.0000
  C   C43       1.0  0.7987399778826048  0.5731088206251229  0.9704520797961039  1.0000
  C   C44       1.0  0.8009617443176255  0.46668878326073593  0.0776515711436406  1.0000
  C   C45       1.0  0.4076454123602531  0.9970468443008118  0.5018293984931503  1.0000
  C   C46       1.0  0.5978102970129059  4.682426207136189e-05  0.49722687762847073  1.0000
  C   C47       1.0  0.4606190570836119  0.9108632409742015  0.5793408936819802  1.0000
  C   C48       1.0  0.5452000744041073  0.08522790272832735  0.4203948749655382  1.0000
  C   C49       1.0  0.5558573380174323  0.9133068654993863  0.5757389634120784  1.0000
  C   C50       1.0  0.45073867967901293  0.08329877451033241  0.4229745973150757  1.0000
  C   C51       1.0  0.13647849368538809  0.44620021405444277  0.2932052545399486  1.0000
  C   C52       1.0  0.455632004267713  0.12453591601217077  0.13220357442198608  1.0000
  C   C53       1.0  0.8179767555635209  0.17126251847403073  0.9169590697084545  1.0000
  C   C54       1.0  0.4124715085549866  0.5861923307758091  0.32367975479242267  1.0000
  C   C55       1.0  0.42670496904509764  0.8104483038688173  0.6645156066320014  1.0000
  O   O1        1.0  0.9183403291407545  0.7400829638278738  0.5739817453082738  1.0000
  O   O2        1.0  0.27270805788793956  0.07029294379254479  0.24097305822264303  1.0000
  O   O3        1.0  0.07549025209247867  0.2688532781355306  0.41842114831624855  1.0000
  O   O4        1.0  0.7382274719003594  0.9221226646333777  0.76492881424236  1.0000
  O   O5        1.0  0.07770372634336549  0.7374431717717795  0.7622929278722026  1.0000
  O   O6        1.0  0.7385919167154995  0.07767125927593828  0.41964499641633074  1.0000
  O   O7        1.0  0.9252334383710379  0.26594022262700895  0.23789666045335173  1.0000
  O   O8        1.0  0.2683171543107079  0.9197065822817834  0.5751040421383848  1.0000
  O   O9        1.0  0.26843427638380035  0.7372729468890642  0.4193952456485235  1.0000
  O   O10       1.0  0.9209618568019595  0.0747517530786014  0.7675961210216116  1.0000
  O   O11       1.0  0.741619989314316  0.27004708258304805  0.571370252345922  1.0000
  O   O12       1.0  0.07556769021521596  0.919485392434126  0.23759684542002182  1.0000
  O   O13       1.0  0.07449912822597328  0.9200965421711301  0.7686715950829422  1.0000
  O   O14       1.0  0.7422715502990159  0.2693138107023216  0.41794845410466747  1.0000
  O   O15       1.0  0.9218951657515789  0.07406540448283772  0.23780485319333186  1.0000
  O   O16       1.0  0.27070794791563196  0.7391361346576845  0.570671570788832  1.0000
  O   O17       1.0  0.921522447458223  0.7391100642908198  0.764444772864657  1.0000
  O   O18       1.0  0.267366570513552  0.07536628859093504  0.4240054419489708  1.0000
  O   O19       1.0  0.08423592961799646  0.26217595562680873  0.23202610947782182  1.0000
  O   O20       1.0  0.7390249162683062  0.923428265968653  0.5726464923037896  1.0000
  O   O21       1.0  0.7392942768218094  0.07527914787527837  0.7655139590713206  1.0000
  O   O22       1.0  0.07281405175631767  0.7394513032400312  0.42017034869486036  1.0000
  O   O23       1.0  0.2708410146185188  0.9184974996880371  0.2388470721324509  1.0000
  O   O24       1.0  0.9223687691731969  0.26825918674390475  0.5732269843947578  1.0000
  O   O25       1.0  0.799243360174046  0.06970196143356605  0.5659383059798913  1.0000
  O   O26       1.0  0.06863786908311918  0.06751877042096777  0.5677771352327453  1.0000
  O   O27       1.0  0.07091114372816075  0.06584681570782891  0.29740551611227767  1.0000
  O   O28       1.0  0.06857100090697085  0.7984253187007299  0.5656046464679392  1.0000
  O   O29       1.0  0.15134613935029523  0.9495590512333435  0.45027846747344585  1.0000
  O   O30       1.0  0.9516203316579636  0.9513029248375416  0.4495033327331796  1.0000
  O   O31       1.0  0.9534879150951882  0.14935095320299754  0.4493206357106701  1.0000
  O   O32       1.0  0.9515305842792329  0.9512251804624087  0.6482272411184268  1.0000
  O   O33       1.0  0.24732512279428692  0.39432209259659606  0.2764155054786884  1.0000
  O   O34       1.0  0.09943673469408763  0.4767929164750769  0.22192843843814813  1.0000
  O   O35       1.0  0.4022430254678255  0.23530169825387773  0.10160592488796998  1.0000
  O   O36       1.0  0.49384581097493924  0.07869155412893046  0.20638173988437813  1.0000
  O   O37       1.0  0.8423166261729593  0.2641902137210437  0.8357181341406346  1.0000
  O   O38       1.0  0.7233625321041188  0.17066790322151357  0.9585584982257557  1.0000
  O   O39       1.0  0.32570819177616517  0.5520400131004523  0.35813955632451683  1.0000
  O   O40       1.0  0.45468682109597586  0.6313339601488722  0.2261572976188476  1.0000
  O   O41       1.0  0.3413072614465164  0.823643421275989  0.759731604215162  1.0000
  O   O42       1.0  0.4794720725987742  0.7185425863608972  0.65611605793611  1.0000
  O   O43       1.0  0.19814469898194187  0.3778875198660003  0.04721106896143114  1.0000
