data_image0
_chemical_formula_structural       AlH9C24Br3N3O6
_chemical_formula_sum              "Al1 H9 C24 Br3 N3 O6"
_cell_length_a       3.981039373965444
_cell_length_b       15.917056015022535
_cell_length_c       15.585437088568806
_cell_angle_alpha    60.37026829275613
_cell_angle_beta     80.36420597173222
_cell_angle_gamma    79.70401840881172

_space_group_name_H-M_alt    "P 1"
_space_group_IT_number       1

loop_
  _space_group_symop_operation_xyz
  'x, y, z'

loop_
  _atom_site_type_symbol
  _atom_site_label
  _atom_site_symmetry_multiplicity
  _atom_site_fract_x
  _atom_site_fract_y
  _atom_site_fract_z
  _atom_site_occupancy
  Al  Al1       1.0  0.018063318574036303  0.5038024634986156  0.4950738434641694  1.0000
  H   H1        1.0  0.43821096327148024  0.960836727744322  0.13183684352478772  1.0000
  H   H2        1.0  0.6195050472702164  0.40006881902331054  0.958721418530509  1.0000
  H   H3        1.0  0.6960151526092845  0.1255162202596765  0.41191789637327514  1.0000
  H   H4        1.0  0.550355369403931  0.48652795018404754  0.24100761580361768  1.0000
  H   H5        1.0  0.5516051287650966  0.39806653586329316  0.14561279227780954  1.0000
  H   H6        1.0  0.3361089586080865  0.2571612925267743  0.763769609690641  1.0000
  H   H7        1.0  0.3728868395021508  0.15413400051579618  0.9470784167362113  1.0000
  H   H8        1.0  0.5137909501111578  0.7636478746905622  0.49564385490686663  1.0000
  H   H9        1.0  0.5477817689578544  0.9432641171294875  0.41025149301115266  1.0000
  C   C1        1.0  0.46982707389322115  0.6529377961374363  0.414450899974945  1.0000
  C   C2        1.0  0.6136157939386919  0.41689812135839327  0.428737593316555  1.0000
  C   C3        1.0  0.471790175896203  0.43754882550448565  0.6474226814141703  1.0000
  C   C4        1.0  0.4623432144627485  0.7613934402350749  0.3615886398706892  1.0000
  C   C5        1.0  0.47061376946140154  0.38474583721715294  0.757431762248416  1.0000
  C   C6        1.0  0.6425704309480267  0.3564941658210543  0.3783611441042892  1.0000
  C   C7        1.0  0.4397427280188566  0.8175263231237222  0.25920647932629504  1.0000
  C   C8        1.0  0.45597384548499054  0.9172832227543779  0.21132639831188274  1.0000
  C   C9        1.0  0.5509596908534888  0.4248102665459185  0.8133682650855576  1.0000
  C   C10       1.0  0.5613021059293575  0.36879092222800836  0.9154323082004582  1.0000
  C   C11       1.0  0.6904034531814247  0.2544293676301805  0.42567394345907433  1.0000
  C   C12       1.0  0.6738823831200095  0.20460771252685817  0.37411923003035247  1.0000
  C   C13       1.0  0.5918486149298944  0.4073246883072059  0.27695157867852777  1.0000
  C   C14       1.0  0.5895153584778187  0.358599145086238  0.22416129750044436  1.0000
  C   C15       1.0  0.401345229243148  0.2871693266219494  0.8075884984468474  1.0000
  C   C16       1.0  0.4208293100364032  0.2300717182485954  0.9090540193073694  1.0000
  C   C17       1.0  0.49695518610201367  0.8075843865824907  0.4159003306995005  1.0000
  C   C18       1.0  0.516528901186284  0.9071317360599308  0.3687536101832054  1.0000
  C   C19       1.0  0.4978269954398516  0.9625855237876662  0.26594431623695414  1.0000
  C   C20       1.0  0.521397646259594  0.06826923942765009  0.21445407261312247  1.0000
  C   C21       1.0  0.5012641517286412  0.27093986057600006  0.9638050089349052  1.0000
  C   C22       1.0  0.5231305734935605  0.21290996834706277  0.0720960455655373  1.0000
  C   C23       1.0  0.6235572792665991  0.256466722649229  0.27303828573895583  1.0000
  C   C24       1.0  0.5914144900117648  0.20525188204013736  0.21794676025969312  1.0000
  Br  Br1       1.0  0.3747955546131934  0.7585830652270784  0.18358948533249733  1.0000
  Br  Br2       1.0  0.757010039670945  0.17924841894187435  0.5627335306154464  1.0000
  Br  Br3       1.0  0.6358905236192313  0.5565936255754095  0.7576775528029458  1.0000
  N   N1        1.0  0.48864618856644887  0.11764301796064558  0.11631582588745465  1.0000
  N   N2        1.0  0.5756817286589424  0.2598834493829471  0.11954097167642178  1.0000
  N   N3        1.0  0.5727454902580648  0.1088302953508347  0.26860294023892106  1.0000
  O   O1        1.0  0.26727814684556256  0.41535150434805956  0.6089257359429399  1.0000
  O   O2        1.0  0.21257022510836532  0.6162336001391749  0.4742134205629753  1.0000
  O   O3        1.0  0.3583164900332819  0.48298450199946785  0.4065656971548536  1.0000
  O   O4        1.0  0.6854426836820054  0.4996547427849407  0.5981616264776977  1.0000
  O   O5        1.0  0.8342762705369327  0.40286292645495064  0.48583246624213694  1.0000
  O   O6        1.0  0.742430558203459  0.6057956809235207  0.3975149874654774  1.0000
