data_image0
_chemical_formula_structural       Al2H18C48N6O24
_chemical_formula_sum              "Al2 H18 C48 N6 O24"
_cell_length_a       4.015231428735842
_cell_length_b       29.01468479328872
_cell_length_c       29.012481639307513
_cell_angle_alpha    119.99633665811946
_cell_angle_beta     89.99957803330867
_cell_angle_gamma    89.99855015299119

_space_group_name_H-M_alt    "P 1"
_space_group_IT_number       1

loop_
  _space_group_symop_operation_xyz
  'x, y, z'

loop_
  _atom_site_type_symbol
  _atom_site_label
  _atom_site_symmetry_multiplicity
  _atom_site_fract_x
  _atom_site_fract_y
  _atom_site_fract_z
  _atom_site_occupancy
  Al  Al1       1.0  0.995986213260146  0.5000064386846574  0.5000086143171245  1.0000
  Al  Al2       1.0  0.9959404942605374  0.1666511133923122  0.83333549144686  1.0000
  H   H1        1.0  0.5514188784662508  0.17150015346469163  0.6951720199452325  1.0000
  H   H2        1.0  0.5722142407724888  0.2170423013589655  0.6418770399748865  1.0000
  H   H3        1.0  0.47669582039358  0.3690653087013016  0.786659318747489  1.0000
  H   H4        1.0  0.4766157855584652  0.2976021995465317  0.5466751837700983  1.0000
  H   H5        1.0  0.5515553331916436  0.4951620495946187  0.6381648649001121  1.0000
  H   H6        1.0  0.5722943138487224  0.4496165524392167  0.6914586297995199  1.0000
  H   H7        1.0  0.5513908407169907  0.023671045311211076  0.8284988456478786  1.0000
  H   H8        1.0  0.5722191816051705  0.9248219119188263  0.7829503409703165  1.0000
  H   H9        1.0  0.4768651904572038  0.9175679685235565  0.6309259584346307  1.0000
  H   H10       1.0  0.4766694382310063  0.7490888710393762  0.702405474163477  1.0000
  H   H11       1.0  0.5515285791966492  0.6429855758479872  0.5048360368328346  1.0000
  H   H12       1.0  0.572360474966672  0.7418360606115257  0.5503848855099776  1.0000
  H   H13       1.0  0.5512455566737061  0.30479938858555033  0.9763079814298264  1.0000
  H   H14       1.0  0.5720692394747361  0.35813113760644905  0.07515211083590144  1.0000
  H   H15       1.0  0.4769506618255619  0.21337332556562671  0.08244308719596918  1.0000
  H   H16       1.0  0.4767134053647268  0.4533324563757262  0.2509232352828406  1.0000
  H   H17       1.0  0.551432284358178  0.36186030035180033  0.3570100642834361  1.0000
  H   H18       1.0  0.5722513361023187  0.3085551355923782  0.2581662978290779  1.0000
  C   C1        1.0  0.4959543167680068  0.4662777266115014  0.41916762804405033  1.0000
  C   C2        1.0  0.4959641398510115  0.4529011384628631  0.5337412945826046  1.0000
  C   C3        1.0  0.4959249069499876  0.5808413045454373  0.5471101271116225  1.0000
  C   C4        1.0  0.4959280562788281  0.21376904991195278  0.7996059776164087  1.0000
  C   C5        1.0  0.4959623080632056  0.08581734629203916  0.7862204253650233  1.0000
  C   C6        1.0  0.4959204445320751  0.20037497222214273  0.9141736895204318  1.0000
  C   C7        1.0  0.5043602898146419  0.24405892857650704  0.770293848467439  1.0000
  C   C8        1.0  0.5360924827775692  0.21477652984953702  0.7147538425290846  1.0000
  C   C9        1.0  0.5475552702632172  0.24022817660615195  0.6850180922587866  1.0000
  C   C10       1.0  0.5246261489092278  0.2962252839868071  0.7100398538867339  1.0000
  C   C11       1.0  0.4969086887611169  0.325892415142981  0.7658258907524669  1.0000
  C   C12       1.0  0.4876848450723372  0.2995780467810932  0.7947438078050482  1.0000
  C   C13       1.0  0.5261991697441886  0.32215462378536586  0.6797342160063096  1.0000
  C   C14       1.0  0.5261876713177502  0.3445035563185641  0.653596873761451  1.0000
  C   C15       1.0  0.5246101889072036  0.3704356742033994  0.6232940045461746  1.0000
  C   C16       1.0  0.4968414329919568  0.3407736732696093  0.5675089252959751  1.0000
  C   C17       1.0  0.4876080589964573  0.36708918668832513  0.5385948760365196  1.0000
  C   C18       1.0  0.5043578355692802  0.4226078058308004  0.563048434289982  1.0000
  C   C19       1.0  0.5361487556117481  0.45188784484705014  0.6185866999277039  1.0000
  C   C20       1.0  0.5475812859717593  0.4264326485539626  0.6483181826273493  1.0000
  C   C21       1.0  0.504409052354987  0.026216680880843054  0.7559344243309454  1.0000
  C   C22       1.0  0.5360982750780324  0.9999653654959744  0.7852229555229541  1.0000
  C   C23       1.0  0.5475686264475783  0.9447815466650197  0.7597680374301774  1.0000
  C   C24       1.0  0.5246886499298425  0.9138031064276717  0.7037669387387666  1.0000
  C   C25       1.0  0.49700057354702665  0.9399191525887503  0.674098275919654  1.0000
  C   C26       1.0  0.4877492278999399  0.9951458203488598  0.7004133952070859  1.0000
  C   C27       1.0  0.5262292460040003  0.8575733046646334  0.6778398643353328  1.0000
  C   C28       1.0  0.5262336779392669  0.8090822176699034  0.655489800836051  1.0000
  C   C29       1.0  0.5246611285055212  0.7528535247389031  0.6295630287797138  1.0000
  C   C30       1.0  0.49685053598530254  0.7267394921682991  0.659232317486861  1.0000
  C   C31       1.0  0.4875948537420173  0.6715129519692907  0.6329172609591039  1.0000
  C   C32       1.0  0.5043563924715855  0.6404400076195175  0.577398603036464  1.0000
  C   C33       1.0  0.5361468210186616  0.6666909845922361  0.5481111902199487  1.0000
  C   C34       1.0  0.5476066549410133  0.7218751511272571  0.5735641479422354  1.0000
  C   C35       1.0  0.5043824727398984  0.22970044719954064  0.9737782450408757  1.0000
  C   C36       1.0  0.5359843973078141  0.28523562202800423  1.4726407073265583e-05  1.0000
  C   C37       1.0  0.5474751792115597  0.3149864120101924  0.05519747086857049  1.0000
  C   C38       1.0  0.524700434282103  0.289972412213082  0.08618800545264796  1.0000
  C   C39       1.0  0.4970273214530465  0.2341888782225041  0.060086305796616585  1.0000
  C   C40       1.0  0.4877531745955324  0.2052613919756254  0.004859076281867692  1.0000
  C   C41       1.0  0.5262515560526212  0.32029461164919576  0.14243133718386497  1.0000
  C   C42       1.0  0.5262088105763354  0.346414475278074  0.19091276140151336  1.0000
  C   C43       1.0  0.5246542567790939  0.3767156914595731  0.24715021490641936  1.0000
  C   C44       1.0  0.49686854785675655  0.4324986246698046  0.2732682377437143  1.0000
  C   C45       1.0  0.4876207231687247  0.46142078590845154  0.328496842078053  1.0000
  C   C46       1.0  0.5043705202754012  0.43697520723871014  0.35957097253147907  1.0000
  C   C47       1.0  0.5360838033026027  0.3814368047019697  0.3333106742416234  1.0000
  C   C48       1.0  0.5475555840922368  0.35169379048107874  0.2781254397232971  1.0000
  N   N1        1.0  0.4424965483055773  0.33231451023474523  0.8529424351129081  1.0000
  N   N2        1.0  0.4424130224617215  0.3343522588342722  0.4803962634399567  1.0000
  N   N3        1.0  0.4426437165250476  0.02060651499387229  0.6676735645827208  1.0000
  N   N4        1.0  0.442365475029554  0.646055262198402  0.6656549640988629  1.0000
  N   N5        1.0  0.4426349371642289  0.1470585661046185  0.9794033577969329  1.0000
  N   N6        1.0  0.4423916878234025  0.5196182540731868  0.3539521660135563  1.0000
  O   O1        1.0  0.7326608483945095  0.5558762180678727  0.5539199573585094  1.0000
  O   O2        1.0  0.7326867918788693  0.49805064530508497  0.4441295673953931  1.0000
  O   O3        1.0  0.732678947812424  0.44609041846301517  0.5019623571771916  1.0000
  O   O4        1.0  0.25889503404307856  0.560408644239466  0.5139438966555474  1.0000
  O   O5        1.0  0.2589239853660601  0.4860674209873892  0.546474423524522  1.0000
  O   O6        1.0  0.2589569860499735  0.4535442260993958  0.439607913341554  1.0000
  O   O7        1.0  0.7326451127762966  0.16859896719486767  0.8892051462976411  1.0000
  O   O8        1.0  0.7326355239138991  0.2205762381363454  0.8313870218519809  1.0000
  O   O9        1.0  0.7326785291113467  0.11078667361495337  0.7794125170180736  1.0000
  O   O10       1.0  0.258877850681408  0.21310666989982235  0.8937386970155714  1.0000
  O   O11       1.0  0.25890244663998635  0.10624919347622343  0.8193833840943084  1.0000
  O   O12       1.0  0.2588710053430604  0.18060646502061675  0.7868685167741063  1.0000
  O   O13       1.0  0.30320626831820624  0.31088409212610907  0.8755486666047573  1.0000
  O   O14       1.0  0.542125081126315  0.3789105432455031  0.8749162720202719  1.0000
  O   O15       1.0  0.30325359971204346  0.3557897201048732  0.45778654849003425  1.0000
  O   O16       1.0  0.5419062615839823  0.2877481900440629  0.4584270273700355  1.0000
  O   O17       1.0  0.3034140904799116  0.06464526430897163  0.6890990373806786  1.0000
  O   O18       1.0  0.5423060239214478  0.995974779971405  0.6210768506910965  1.0000
  O   O19       1.0  0.3032524895904416  0.6020078579131719  0.6442182631120374  1.0000
  O   O20       1.0  0.5418038936365761  0.6706964049684458  0.7122630236356428  1.0000
  O   O21       1.0  0.3034130433636122  0.12443817544968264  0.9353625018378152  1.0000
  O   O22       1.0  0.5423008865154558  0.1250979172798381  0.004040023148426989  1.0000
  O   O23       1.0  0.3032908930857374  0.5422306060475108  0.39800390843333133  1.0000
  O   O24       1.0  0.5418189230898706  0.5415887803963882  0.32931164232441995  1.0000
