data_image0
_chemical_formula_structural       Mg12H120C128N16O80
_chemical_formula_sum              "Mg12 H120 C128 N16 O80"
_cell_length_a       15.131707584005488
_cell_length_b       19.55445072600121
_cell_length_c       19.76064066000777
_cell_angle_alpha    89.99996767214562
_cell_angle_beta     89.99990438847223
_cell_angle_gamma    90.00002346601397

_space_group_name_H-M_alt    "P 1"
_space_group_IT_number       1

loop_
  _space_group_symop_operation_xyz
  'x, y, z'

loop_
  _atom_site_type_symbol
  _atom_site_label
  _atom_site_symmetry_multiplicity
  _atom_site_fract_x
  _atom_site_fract_y
  _atom_site_fract_z
  _atom_site_occupancy
  Mg  Mg1       1.0  0.5000012057779556  0.5000013377514563  1.5670280149e-06  1.0000
  Mg  Mg2       1.0  0.5000001302562396  0.9999993875819297  0.4999998917799147  1.0000
  Mg  Mg3       1.0  9.301656121000003e-07  0.9999994514804555  2.2529590639999996e-07  1.0000
  Mg  Mg4       1.0  9.070692925999999e-07  0.4999990726155518  0.49999933686329  1.0000
  Mg  Mg5       1.0  0.7310342154217792  0.5296828316230417  0.973098911057285  1.0000
  Mg  Mg6       1.0  0.2689660811029242  0.9703181368895101  0.47309808471314346  1.0000
  Mg  Mg7       1.0  0.7689647456618688  0.029681845823866102  0.026900454102865  1.0000
  Mg  Mg8       1.0  0.23103361850687776  0.47031685581530536  0.5269021727107344  1.0000
  Mg  Mg9       1.0  0.26896577578847314  0.47031853763029124  0.026901659318582502  1.0000
  Mg  Mg10      1.0  0.7310352318368983  0.029681186794483904  0.5269004614365898  1.0000
  Mg  Mg11      1.0  0.23103392382062543  0.9703179892518179  0.9730996102178012  1.0000
  Mg  Mg12      1.0  0.7689657118381846  0.5296819564751374  0.47309890372272895  1.0000
  H   H1        1.0  0.7989212244438447  0.582067952205236  0.6028026607207337  1.0000
  H   H2        1.0  0.20107922484855584  0.9179296464922828  0.10279941954135552  1.0000
  H   H3        1.0  0.7010784257143927  0.08206980369244118  0.3972012295310776  1.0000
  H   H4        1.0  0.2989224291405038  0.4179312449766782  0.8971978309588736  1.0000
  H   H5        1.0  0.2010794276270218  0.4179313714773656  0.3972004399376203  1.0000
  H   H6        1.0  0.7989201054991425  0.08206865440634911  0.8971991266099196  1.0000
  H   H7        1.0  0.2989222263591174  0.9179310541683209  0.6027998469009788  1.0000
  H   H8        1.0  0.7010802055259546  0.5820696128846806  0.10280223335899312  1.0000
  H   H9        1.0  0.3504470801982221  0.7953228202652056  0.0300598148522297  1.0000
  H   H10       1.0  0.6495515463234727  0.7046763538463948  0.5300682370396714  1.0000
  H   H11       1.0  0.1495538468966444  0.2953253537943041  0.9699319378732768  1.0000
  H   H12       1.0  0.8504461872733062  0.20467667642282808  0.46994165704428786  1.0000
  H   H13       1.0  0.6495562153417753  0.20467650342124705  0.9699311404492406  1.0000
  H   H14       1.0  0.35044778401033483  0.2953219470486488  0.4699429605232837  1.0000
  H   H15       1.0  0.8504468051890867  0.7046775496395908  0.0300585113724026  1.0000
  H   H16       1.0  0.1495538039274962  0.7953246928280677  0.530067516291517  1.0000
  H   H17       1.0  0.3847412970794224  0.8754968961308902  0.0460030796085249  1.0000
  H   H18       1.0  0.6152539900969459  0.6245048259053902  0.5460070357684473  1.0000
  H   H19       1.0  0.1152557080083483  0.375497382449673  0.9539931826088763  1.0000
  H   H20       1.0  0.8847403960047586  0.12450465680442589  0.4539978427710382  1.0000
  H   H21       1.0  0.6152560506796334  0.1245029389457386  0.953992936261244  1.0000
  H   H22       1.0  0.38474137505831874  0.37549398638285686  0.4539996072886723  1.0000
  H   H23       1.0  0.8847396571598338  0.6245039868043705  0.0460023272052439  1.0000
  H   H24       1.0  0.11525430829002661  0.8754967124470736  0.5460062700034456  1.0000
  H   H25       1.0  0.3290567376161064  0.5090553156347823  0.7063431442228209  1.0000
  H   H26       1.0  0.6709441450352075  0.9909478496796212  0.20634280899522395  1.0000
  H   H27       1.0  0.17094007010098983  0.009051079730646401  0.29365534798627385  1.0000
  H   H28       1.0  0.8290557253505496  0.49094593649918034  0.7936573092678856  1.0000
  H   H29       1.0  0.6709445753243913  0.4909486105818316  0.2936559079820853  1.0000
  H   H30       1.0  0.3290551853131802  0.0090550537516236  0.793656243211224  1.0000
  H   H31       1.0  0.8290566167889821  0.9909441528121191  0.7063442102804771  1.0000
  H   H32       1.0  0.17094492672296016  0.5090528757916105  0.2063432611082803  1.0000
  H   H33       1.0  0.35974008222378734  0.5324571761245523  0.6279661046992615  1.0000
  H   H34       1.0  0.6402622943694142  0.9675450108395723  0.1279648093826609  1.0000
  H   H35       1.0  0.14025872069073836  0.0324533976264476  0.3720313622548872  1.0000
  H   H36       1.0  0.8597382242760931  0.4675435741694329  0.8720348159646109  1.0000
  H   H37       1.0  0.6402612307175489  0.4675457273072892  0.3720319353930037  1.0000
  H   H38       1.0  0.35973901857164486  0.0324568698072127  0.8720332307098887  1.0000
  H   H39       1.0  0.8597392879287965  0.9675418349169504  0.62796667784162  1.0000
  H   H40       1.0  0.1402637495255874  0.5324562609066206  0.12796575441042532  1.0000
  H   H41       1.0  0.4452618768043309  0.7005290731560336  0.0202448162093489  1.0000
  H   H42       1.0  0.5547341278308835  0.7994726634829163  0.5202507750424132  1.0000
  H   H43       1.0  0.054737677502807  0.2005269690679157  0.979749013972807  1.0000
  H   H44       1.0  0.9452629959592757  0.2994714758359224  0.4797590658123099  1.0000
  H   H45       1.0  0.5547381144153647  0.29947434166970777  0.9797476572624646  1.0000
  H   H46       1.0  0.44526321991509843  0.20052819437532324  0.47975738618227853  1.0000
  H   H47       1.0  0.9452629745784834  0.7994718432248861  0.0202444716128198  1.0000
  H   H48       1.0  0.05473699524278431  0.7005263136678437  0.5202480832986396  1.0000
  H   H49       1.0  0.7250465590184164  0.7378766218241353  0.0295353191222176  1.0000
  H   H50       1.0  0.274952068669272  0.7621230639808089  0.5295315323580425  1.0000
  H   H51       1.0  0.7749538359206055  0.23787765991588825  0.9704705078654926  1.0000
  H   H52       1.0  0.22504553621759274  0.26212334721483194  0.47046580563367973  1.0000
  H   H53       1.0  0.27495607564150504  0.2621247474280252  0.9704708178731141  1.0000
  H   H54       1.0  0.7250459399522029  0.23787728248802148  0.47046600168056335  1.0000
  H   H55       1.0  0.2250461552832519  0.7621226865508105  0.029535629131793004  1.0000
  H   H56       1.0  0.774953794134838  0.7378739309000294  0.529528186009685  1.0000
  H   H57       1.0  0.5445296348104023  0.9073853181482011  0.029645200165830908  1.0000
  H   H58       1.0  0.4554716360867701  0.5926164131635759  0.5296463403835718  1.0000
  H   H59       1.0  0.9554748166184268  0.4073848783288483  0.9703529407901571  1.0000
  H   H60       1.0  0.0445265383634634  0.0926161288671636  0.4703541291281681  1.0000
  H   H61       1.0  0.4554749824512214  0.09261758528429449  0.9703523338678721  1.0000
  H   H62       1.0  0.544529015984928  0.40738393330423145  0.4703562542180321  1.0000
  H   H63       1.0  0.04452649632277431  0.5926154681404938  0.029644593246359804  1.0000
  H   H64       1.0  0.9554721311200112  0.9073831948162762  0.529644923079708  1.0000
  H   H65       1.0  0.5220284744710781  0.5160205437250837  0.5941148772855342  1.0000
  H   H66       1.0  0.47797265477413486  0.9839826852152525  0.0941132723461209  1.0000
  H   H67       1.0  0.9779704792520222  0.016016339784087598  0.405885507660102  1.0000
  H   H68       1.0  0.022027713059195295  0.48397856724966465  0.9058864713487438  1.0000
  H   H69       1.0  0.4779748210591848  0.48397980274384617  0.40588518703205523  1.0000
  H   H70       1.0  0.5220279973028356  0.016020729608868595  0.9058852738028804  1.0000
  H   H71       1.0  0.0220275293659924  0.9839773585814414  0.5941135445497707  1.0000
  H   H72       1.0  0.9779735998788226  0.5160202450413749  0.0941135929705368  1.0000
  H   H73       1.0  0.7020443321146103  0.5422544495175501  0.7618577990616231  1.0000
  H   H74       1.0  0.29795642855879123  0.9577445931842729  0.261855424869637  1.0000
  H   H75       1.0  0.797953314009746  0.0422564213391965  0.2381445953781096  1.0000
  H   H76       1.0  0.2020432642815777  0.4577452288952627  0.7381428153881373  1.0000
  H   H77       1.0  0.29795367649908394  0.4577438513792984  0.23814631371163136  1.0000
  H   H78       1.0  0.7020455452471951  0.04225677607037429  0.7381416031097032  1.0000
  H   H79       1.0  0.20204469460880153  0.9577454593063589  0.7618559749988663  1.0000
  H   H80       1.0  0.7979547443414178  0.5422566517514369  0.2618537065371029  1.0000
  H   H81       1.0  0.4277064381604134  0.5022164522737852  0.7995966391097157  1.0000
  H   H82       1.0  0.572292256999809  0.9977892171348443  0.2995959190016535  1.0000
  H   H83       1.0  0.072288383280295  0.0022122385240521997  0.2004028690537254  1.0000
  H   H84       1.0  0.927706956205988  0.4977863647509296  0.7004047014770478  1.0000
  H   H85       1.0  0.5722902487321734  0.49779054229698977  0.2004034252101974  1.0000
  H   H86       1.0  0.4277077342136266  0.0022157318667624  0.7004026271473407  1.0000
  H   H87       1.0  0.9277083036107925  0.997782994018998  0.7995956771000934  1.0000
  H   H88       1.0  0.07229105241160032  0.5022119361469208  0.299595868900937  1.0000
  H   H89       1.0  0.626141541072471  0.4636960474262182  0.0712137633444598  1.0000
  H   H90       1.0  0.37385936919221757  0.036304674662631  0.5712094719852345  1.0000
  H   H91       1.0  0.873860958088585  0.9636971028133772  0.9287894065573995  1.0000
  H   H92       1.0  0.1261407575253841  0.5363033794279843  0.4287859685810602  1.0000
  H   H93       1.0  0.3738617544526478  0.5363058332188615  0.9287913615373784  1.0000
  H   H94       1.0  0.6261412828867136  0.963695671807038  0.4287865438822962  1.0000
  H   H95       1.0  0.1261403548477489  0.0363058006171784  0.0712131880430675  1.0000
  H   H96       1.0  0.8738598945528581  0.46369441007904305  0.5712100472871882  1.0000
  H   H97       1.0  0.6564911153833252  0.4163273147753161  0.006440047794015401  1.0000
  H   H98       1.0  0.3435112589325514  0.08367088707340288  0.5064352622406076  1.0000
  H   H99       1.0  0.8435133408571004  0.9163283239918556  0.9935626426486479  1.0000
  H   H100      1.0  0.1564888932980892  0.5836726329201128  0.4935596456712688  1.0000
  H   H101      1.0  0.34351218013944174  0.5836720089066957  0.9935665952579315  1.0000
  H   H102      1.0  0.6564900540099146  0.9163258796488092  0.4935602475710468  1.0000
  H   H103      1.0  0.156489954672054  0.08367406804676139  0.0064389398377713005  1.0000
  H   H104      1.0  0.8435117587829238  0.41632924772756735  0.5064348520264305  1.0000
  H   H105      1.0  0.8458442367949532  0.5713997206035089  0.8827996287777607  1.0000
  H   H106      1.0  0.15415493640745845  0.9285966965688389  0.3828009955812632  1.0000
  H   H107      1.0  0.654155407624586  0.0714037617923466  0.1171981947862619  1.0000
  H   H108      1.0  0.34584540159518434  0.42860051397242666  0.617200297381153  1.0000
  H   H109      1.0  0.15415641528245766  0.42859704611831273  0.11719689314724488  1.0000
  H   H110      1.0  0.8458457156656395  0.07140058154436699  0.617199574795336  1.0000
  H   H111      1.0  0.3458432618593008  0.9285991416386495  0.8828013634770712  1.0000
  H   H112      1.0  0.65415525047748  0.5714034122430719  0.382802297219449  1.0000
  H   H113      1.0  0.8548464702353231  0.6249061928956295  0.9462029167574428  1.0000
  H   H114      1.0  0.1451538853812622  0.8750932566862772  0.4462063492384162  1.0000
  H   H115      1.0  0.6451532030040426  0.12490771026476469  0.0537933585928982  1.0000
  H   H116      1.0  0.35484972812101734  0.3750925103059117  0.5537964919358701  1.0000
  H   H117      1.0  0.1451521992519034  0.3750926193962841  0.0537925930553058  1.0000
  H   H118      1.0  0.8548487492829723  0.12490760117451317  0.5537957393053221  1.0000
  H   H119      1.0  0.35484612734629206  0.8750941703819989  0.9462036693879768  1.0000
  H   H120      1.0  0.6451515848128225  0.6249073247690333  0.44620762083486204  1.0000
  C   C1        1.0  0.5667713955990976  0.5196201878654136  0.7875524021903146  1.0000
  C   C2        1.0  0.43322798689076336  0.9803839541944941  0.2875498438612993  1.0000
  C   C3        1.0  0.9332262383333969  0.019614545481758196  0.21244899284823052  1.0000
  C   C4        1.0  0.06677039641315471  0.4803804712168257  0.7124493957989415  1.0000
  C   C5        1.0  0.4332299173372293  0.4803847611351059  0.21245069846604284  1.0000
  C   C6        1.0  0.5667706825947859  0.0196189492369356  0.7124481962326428  1.0000
  C   C7        1.0  0.06677243114800997  0.9803791528837279  0.7875505654176962  1.0000
  C   C8        1.0  0.9332295947978011  0.5196173182892353  0.2875496564085296  1.0000
  C   C9        1.0  0.586694028184958  0.7119638305931346  0.0255942462965066  1.0000
  C   C10       1.0  0.4133032864295175  0.7880379030146472  0.5255953302171577  1.0000
  C   C11       1.0  0.9133063528033035  0.21196235256374513  0.9744055225648721  1.0000
  C   C12       1.0  0.0866930106785375  0.2880366067635051  0.4744095840711324  1.0000
  C   C13       1.0  0.4133066238939592  0.28804060701646955  0.9744027816828124  1.0000
  C   C14       1.0  0.5866940613204931  0.21196346623712256  0.4744092886121223  1.0000
  C   C15       1.0  0.08669363840847669  0.7880364597275217  0.0255930235858415  1.0000
  C   C16       1.0  0.9133063196643009  0.711960159956391  0.5255930105323117  1.0000
  C   C17       1.0  0.48389798845717996  0.8069882172523463  0.025665132657835005  1.0000
  C   C18       1.0  0.5160999868633525  0.6930135163147995  0.5256681638920639  1.0000
  C   C19       1.0  0.0161042666418112  0.3069861042079438  0.9743316740824498  1.0000
  C   C20       1.0  0.9838950969997383  0.19301336655300363  0.4743381943473537  1.0000
  C   C21       1.0  0.5161066288072291  0.1930146861808666  0.9743298710935305  1.0000
  C   C22       1.0  0.4838973608819402  0.3069868301507697  0.4743405033892357  1.0000
  C   C23       1.0  0.9838957245728964  0.6930132194765691  0.025664341785784504  1.0000
  C   C24       1.0  0.0161029116153415  0.8069859571291927  0.5256649063126773  1.0000
  C   C25       1.0  0.500007191271216  0.7366835096815691  0.0236869674593763  1.0000
  C   C26       1.0  0.4999954144406971  0.7633161794370977  0.5236920038542507  1.0000
  C   C27       1.0  0.9999984899479057  0.23668461452421494  0.9763087390655799  1.0000
  C   C28       1.0  5.4953959817999986e-06  0.26331741207874865  0.4763169727638896  1.0000
  C   C29       1.0  0.5000007303147457  0.263317859575146  0.9763060120644553  1.0000
  C   C30       1.0  0.5000065593512558  0.23668263285146202  0.476317169481014  1.0000
  C   C31       1.0  6.788179618400001e-06  0.763317266123906  0.0236867707421169  1.0000
  C   C32       1.0  0.9999991218561989  0.7366834457813382  0.5236886581738602  1.0000
  C   C33       1.0  0.6191502791070037  0.5293898714349085  0.672718032744406  1.0000
  C   C34       1.0  0.38085001656241957  0.9706092218024266  0.1727170644495146  1.0000
  C   C35       1.0  0.8808486818168717  0.029389772958829503  0.3272833568058644  1.0000
  C   C36       1.0  0.11915034407082462  0.4706097811706016  0.8272811685841077  1.0000
  C   C37       1.0  0.380850372966087  0.4706094522482688  0.3272830436880838  1.0000
  C   C38       1.0  0.6191479920579398  0.029391124666112493  0.8272814817020233  1.0000
  C   C39       1.0  0.11914998766479097  0.9706090393316559  0.6727172135715592  1.0000
  C   C40       1.0  0.8808516297330728  0.5293920994759987  0.17271788362095464  1.0000
  C   C41       1.0  0.6892984024967961  0.5403229576494438  0.6218188257658923  1.0000
  C   C42       1.0  0.3107039876027288  0.9596741188746382  0.12181694039283292  1.0000
  C   C43       1.0  0.8107032077717377  0.0403258768329096  0.3781830636991685  1.0000
  C   C44       1.0  0.1892970280055977  0.4596756940102865  0.87818079272391  1.0000
  C   C45       1.0  0.3107042321642481  0.45967432046307277  0.3781852870047189  1.0000
  C   C46       1.0  0.6892973253377832  0.04032571620202669  0.8781810997002921  1.0000
  C   C47       1.0  0.18929810516627296  0.9596749810281012  0.6218175066760028  1.0000
  C   C48       1.0  0.8107029632077101  0.5403266980288208  0.12181724736932861  1.0000
  C   C49       1.0  0.6422819626022899  0.8277835059471529  0.0317999490126155  1.0000
  C   C50       1.0  0.35771467751531105  0.6722197583204448  0.5317991441872253  1.0000
  C   C51       1.0  0.8577171590374418  0.32778201412883584  0.9682012729838689  1.0000
  C   C52       1.0  0.1422795746254408  0.17221746010905292  0.46820128062866934  1.0000
  C   C53       1.0  0.3577173677454013  0.17222093166138563  0.9682001153063384  1.0000
  C   C54       1.0  0.6422813485100037  0.3277831451094215  0.4682029443601223  1.0000
  C   C55       1.0  0.14227952785280712  0.6722162867689504  0.0317987913384812  1.0000
  C   C56       1.0  0.8577151296747801  0.8277772610414473  0.5317962534136101  1.0000
  C   C57       1.0  0.4623589581242129  0.5117181608653141  0.6937002502929559  1.0000
  C   C58       1.0  0.5376426131717267  0.9882860344021154  0.1936990733763935  1.0000
  C   C59       1.0  0.0376404944816287  0.011713364899399904  0.3062992525323125  1.0000
  C   C60       1.0  0.9623572557810788  0.4882805758078347  0.8062995282129748  1.0000
  C   C61       1.0  0.5376436765420963  0.48828627674345165  0.30630082613684106  1.0000
  C   C62       1.0  0.4623580389074676  0.011719425992552598  0.8062979546026341  1.0000
  C   C63       1.0  0.9623594967261438  0.9882787992884232  0.6937013178461342  1.0000
  C   C64       1.0  0.03764339629299229  0.5117161909131339  0.19370003005082745  1.0000
  C   C65       1.0  0.5998551182377837  0.6364388283324941  0.0211470349287453  1.0000
  C   C66       1.0  0.4001435278773258  0.8635608622270748  0.521146574949519  1.0000
  C   C67       1.0  0.9001439003436219  0.13643836646887314  0.9788537884549627  1.0000
  C   C68       1.0  0.09985479250265432  0.36356059033700916  0.4788557666471931  1.0000
  C   C69       1.0  0.40014619470132834  0.36356407509877187  0.9788530293893843  1.0000
  C   C70       1.0  0.5998544807387275  0.1364379500628772  0.478855513597722  1.0000
  C   C71       1.0  0.099855430002961  0.8635619799994458  0.0211462758651422  1.0000
  C   C72       1.0  0.900145859569335  0.6364366877759124  0.5211458158423383  1.0000
  C   C73       1.0  0.6578922134857023  0.7573105502586798  0.029462484085911508  1.0000
  C   C74       1.0  0.3421110404072252  0.742690158372632  0.5294611534109351  1.0000
  C   C75       1.0  0.842112157108943  0.2573105864335473  0.9705387774788152  1.0000
  C   C76       1.0  0.15789118005879743  0.24268990926552905  0.47053771365937547  1.0000
  C   C77       1.0  0.34211174290795304  0.24269184178017858  0.9705385923436225  1.0000
  C   C78       1.0  0.6578915942574215  0.2573101880957651  0.4705404290764719  1.0000
  C   C79       1.0  0.15789113841979233  0.7426902714274846  0.0294628050080377  1.0000
  C   C80       1.0  0.8421121154762048  0.7573073688496664  0.5294572900944061  1.0000
  C   C81       1.0  0.5554807962454191  0.8523410736026166  0.0298349798561972  1.0000
  C   C82       1.0  0.4445204742359011  0.647658612031897  0.529834584874699  1.0000
  C   C83       1.0  0.9445236255365972  0.35234165326640715  0.9701631920079735  1.0000
  C   C84       1.0  0.0554777298607334  0.14765986542928997  0.4701658537292772  1.0000
  C   C85       1.0  0.4445251427429966  0.14765978425982948  0.970163060233709  1.0000
  C   C86       1.0  0.5554795169708768  0.3523402002580767  0.47016851578422353  1.0000
  C   C87       1.0  0.055479669996032  0.6476592045956265  0.029834848083602605  1.0000
  C   C88       1.0  0.944521600487377  0.8523399696469268  0.5298326924215645  1.0000
  C   C89       1.0  0.5331342340197409  0.518534024312494  0.6485093610218726  1.0000
  C   C90       1.0  0.4668654539792528  0.9814650826496771  0.14850726551339483  1.0000
  C   C91       1.0  0.966863399330073  0.018532916106693192  0.3514910225123629  1.0000
  C   C92       1.0  0.033131608180305194  0.4814620217647061  0.8514909614275582  1.0000
  C   C93       1.0  0.4668650963254636  0.48146325380050553  0.351491209355558  1.0000
  C   C94       1.0  0.5331338763710819  0.018536797997079205  0.8514897624674803  1.0000
  C   C95       1.0  0.033134609287238014  0.9814623164361296  0.6485090418100157  1.0000
  C   C96       1.0  0.9668657395752759  0.5185373019185348  0.1485080907811565  1.0000
  C   C97       1.0  0.6362949964268695  0.5313489991195866  0.7424298299560377  1.0000
  C   C98       1.0  0.36370448520693804  0.9686510773814091  0.2424273663189993  1.0000
  C   C99       1.0  0.8637026438251496  0.03134995761243431  0.257571052438216  1.0000
  C   C100      1.0  0.13629323091531378  0.4686496360379167  0.7575708678164048  1.0000
  C   C101      1.0  0.36370433391652307  0.46864981317042265  0.257572764646838  1.0000
  C   C102      1.0  0.6362948451446473  0.031351314658167  0.7575686495487943  1.0000
  C   C103      1.0  0.13629536479270854  0.96864936607048  0.7424295179394775  1.0000
  C   C104      1.0  0.8637047777057346  0.5313512218232931  0.24242717227852492  1.0000
  C   C105      1.0  0.48088223697140364  0.510309257634077  0.7631929251264327  1.0000
  C   C106      1.0  0.5191165381777125  0.98969489823574  0.2631907587815263  1.0000
  C   C107      1.0  0.019114571418711503  0.010304495297958698  0.23680759060456322  1.0000
  C   C108      1.0  0.9808813489422193  0.48968999619841463  0.7368078420178393  1.0000
  C   C109      1.0  0.5191144499189663  0.48969569136615854  0.23680865736345422  1.0000
  C   C110      1.0  0.4808821313089453  0.010310050765944798  0.7368067752553671  1.0000
  C   C111      1.0  0.9808840980600524  0.9896876688893667  0.7631939918876611  1.0000
  C   C112      1.0  0.019113355356609005  0.5103057477367159  0.2631912101935542  1.0000
  C   C113      1.0  0.5816638813020205  0.5174216923520233  0.8628763682164405  1.0000
  C   C114      1.0  0.41833665740848147  0.9825798500415884  0.36287534569508045  1.0000
  C   C115      1.0  0.9183330905831043  0.017418644997732696  0.13712502805628904  1.0000
  C   C116      1.0  0.0816656922594845  0.48257794858188396  0.6371264230115017  1.0000
  C   C117      1.0  0.41833544904414316  0.4825812110786459  0.1371247082158789  1.0000
  C   C118      1.0  0.5816633338039948  0.017421519212312796  0.6371232004549228  1.0000
  C   C119      1.0  0.08166623976433131  0.9825765875458712  0.8628730120393868  1.0000
  C   C120      1.0  0.9183356206779723  0.5174208637090132  0.36287414736424495  1.0000
  C   C121      1.0  0.7175147277164413  0.8777619094470167  0.0318732654984188  1.0000
  C   C122      1.0  0.2824792687883004  0.622242377564639  0.5318690416830024  1.0000
  C   C123      1.0  0.7824804556563977  0.3777578372840793  0.9681289405503365  1.0000
  C   C124      1.0  0.2175136347151323  0.1222370344633958  0.46812280823797187  1.0000
  C   C125      1.0  0.2824799765815272  0.12224303955276382  0.9681288230491917  1.0000
  C   C126      1.0  0.717514113788866  0.3777620600442688  0.4681264681315156  1.0000
  C   C127      1.0  0.21751424863436605  0.6222389294339549  0.0318777025077779  1.0000
  C   C128      1.0  0.7824790869996435  0.8777566639034617  0.5318686531282424  1.0000
  N   N1        1.0  0.397020826823244  0.8315043631559503  0.019979130358621002  1.0000
  N   N2        1.0  0.6029765001233542  0.6684963508487698  0.5199851016021384  1.0000
  N   N3        1.0  0.1029801197554221  0.3315053422914929  0.980015638389446  1.0000
  N   N4        1.0  0.8970192313952837  0.16849617081654597  0.4800243067425641  1.0000
  N   N5        1.0  0.6029804861225472  0.168496494707064  0.9800143552260111  1.0000
  N   N6        1.0  0.39702084761944434  0.33150297283116703  0.4800255899053171  1.0000
  N   N7        1.0  0.8970205323261454  0.6684965383563367  0.019978353251787002  1.0000
  N   N8        1.0  0.10297877721520618  0.8315046870419424  0.5199833484252423  1.0000
  N   N9        1.0  0.3760065336197513  0.5036222990606518  0.6698660597943231  1.0000
  N   N10       1.0  0.6239931074526839  0.9963793527560441  0.1698652749586316  1.0000
  N   N11       1.0  0.1239902711717846  0.0036185392520878  0.3301319294089211  1.0000
  N   N12       1.0  0.8760061049946943  0.4963779449053689  0.830134840254857  1.0000
  N   N13       1.0  0.6239941184561175  0.4963790701932139  0.33013299241171984  1.0000
  N   N14       1.0  0.3760062228970895  0.003624573460548701  0.8301327651346001  1.0000
  N   N15       1.0  0.8760070765815869  0.9963746477206641  0.6698676288579861  1.0000
  N   N16       1.0  0.12399388621458482  0.503621890170237  0.16986623617791002  1.0000
  O   O1        1.0  0.533351721172302  0.5999427820484158  0.009658593398079103  1.0000
  O   O2        1.0  0.4666469501895421  0.9000584492027809  0.5096549923088035  1.0000
  O   O3        1.0  0.9666472777481516  0.09993773184305607  0.9903447807625341  1.0000
  O   O4        1.0  0.0333527115744303  0.40005610452270457  0.4903483409064436  1.0000
  O   O5        1.0  0.46665025262978344  0.40006267834516507  0.9903429890883119  1.0000
  O   O6        1.0  0.5333530410162624  0.09994292004940769  0.4903496265187998  1.0000
  O   O7        1.0  0.0333533743225871  0.900059034877053  0.0096578138400716  1.0000
  O   O8        1.0  0.9666512448204826  0.5999406621990601  0.5096502052423305  1.0000
  O   O9        1.0  0.8145357711337554  0.593569593752285  0.9211556862586788  1.0000
  O   O10       1.0  0.18546463951936695  0.9064278244601309  0.42115702583377873  1.0000
  O   O11       1.0  0.685463224363197  0.09357162086383403  0.0788411127445485  1.0000
  O   O12       1.0  0.31453899086414333  0.4064326766469151  0.5788432674615933  1.0000
  O   O13       1.0  0.1854628983530517  0.4064297299320145  0.07884032961039371  1.0000
  O   O14       1.0  0.8145379951458552  0.0935684308684728  0.5788430384853811  1.0000
  O   O15       1.0  0.3145347842582709  0.906430771174968  0.9211569273499479  1.0000
  O   O16       1.0  0.6854616612065739  0.5935702267831005  0.42116084530869113  1.0000
  O   O17       1.0  0.6791660462375119  0.6121655920907259  0.028989854616746403  1.0000
  O   O18       1.0  0.32082993918734803  0.8878335826291205  0.5289909996869329  1.0000
  O   O19       1.0  0.820831637541488  0.11216408719568695  0.9710114884544794  1.0000
  O   O20       1.0  0.17916707253550612  0.38783180570109016  0.4710133525072777  1.0000
  O   O21       1.0  0.3208346058375184  0.3878367999479124  0.9710102097019446  1.0000
  O   O22       1.0  0.6791660868347762  0.1121657410524719  0.4710131130872881  1.0000
  O   O23       1.0  0.17916967539430573  0.8878326795248059  0.0289900940347749  1.0000
  O   O24       1.0  0.820836883852053  0.6121624040563134  0.5289912663198209  1.0000
  O   O25       1.0  0.5133880017921938  0.5069606259102601  0.8990381974412783  1.0000
  O   O26       1.0  0.48661113573441384  0.9930414073744701  0.39903708252282405  1.0000
  O   O27       1.0  0.9866083035940607  0.006955574743699299  0.1009632047065381  1.0000
  O   O28       1.0  0.013388576116028601  0.49303848237517645  0.600961137916066  1.0000
  O   O29       1.0  0.4866106676900231  0.4930422775203027  0.1009628789914601  1.0000
  O   O30       1.0  0.5133875337514198  0.006958427702073797  0.6009599454590457  1.0000
  O   O31       1.0  0.0133936702067956  0.9930391464072198  0.8990368596134743  1.0000
  O   O32       1.0  0.9866100933685688  0.5069567501686123  0.39903589006708984  1.0000
  O   O33       1.0  0.6596054921192264  0.5254280596170986  0.8850800501325865  1.0000
  O   O34       1.0  0.34039103261883963  0.9745729587949724  0.3850806490518437  1.0000
  O   O35       1.0  0.8403901623519304  0.0254270461549311  0.114920329531742  1.0000
  O   O36       1.0  0.15960602582570263  0.4745736511531859  0.6149211241533905  1.0000
  O   O37       1.0  0.34038987304297313  0.4745738210278958  0.1149210263025395  1.0000
  O   O38       1.0  0.659604993405651  0.0254248307097598  0.6149209334404733  1.0000
  O   O39       1.0  0.15960718540198832  0.9745702319579054  0.8850797347904803  1.0000
  O   O40       1.0  0.8403913219315342  0.5254318092403877  0.3850779280536045  1.0000
  O   O41       1.0  0.7008047811142929  0.9397922816251665  0.048626258014032  1.0000
  O   O42       1.0  0.2991957872117794  0.5602079047477843  0.5486281205285621  1.0000
  O   O43       1.0  0.7991977051797293  0.4397928266980245  0.9513698405198809  1.0000
  O   O44       1.0  0.20080170892040167  0.0602061456897118  0.45137084901264773  1.0000
  O   O45       1.0  0.29919454923368244  0.0602070420585221  0.951372288136959  1.0000
  O   O46       1.0  0.7008008996740073  0.43979448728879333  0.4513770043573119  1.0000
  O   O47       1.0  0.20080162517060535  0.560207008378768  0.048626681405096406  1.0000
  O   O48       1.0  0.7991982822918046  0.9397901096391975  0.5486266850258446  1.0000
  O   O49       1.0  0.793328393796415  0.8566286303309026  0.013098528464389901  1.0000
  O   O50       1.0  0.20667621778249412  0.6433700420085201  0.5130943888531831  1.0000
  O   O51       1.0  0.7066753694278701  0.3566301492399333  0.9869026773311945  1.0000
  O   O52       1.0  0.2933285926529692  0.143368291613271  0.48689694313915777  1.0000
  O   O53       1.0  0.2066755625954428  0.14337120474503  0.9869035600788011  1.0000
  O   O54       1.0  0.7933283994803944  0.3566292816768525  0.4869011209556504  1.0000
  O   O55       1.0  0.29332990868519454  0.6433717314044571  0.013105989944655502  1.0000
  O   O56       1.0  0.706674042022392  0.8566284751104406  0.5130940121634495  1.0000
  O   O57       1.0  0.7661978344217104  0.5641231714212793  0.6446606411131199  1.0000
  O   O58       1.0  0.2338031837612462  0.9358733807604691  0.1446583605009906  1.0000
  O   O59       1.0  0.7338031278009397  0.06412710239757761  0.3553422471007011  1.0000
  O   O60       1.0  0.266198479891699  0.43587652696510304  0.8553398920359641  1.0000
  O   O61       1.0  0.23380017419378163  0.4358776864384949  0.3553424595464847  1.0000
  O   O62       1.0  0.7661974683154539  0.06412696570862408  0.8553396795924043  1.0000
  O   O63       1.0  0.2661988460012807  0.9358768238185602  0.6446588293296571  1.0000
  O   O64       1.0  0.733803493911367  0.5641263764662625  0.1446601722817462  1.0000
  O   O65       1.0  0.6763316560398281  0.530185639026861  0.5601244808113108  1.0000
  O   O66       1.0  0.32367483479836784  0.969810961081123  0.060124597537019  1.0000
  O   O67       1.0  0.8236732530886998  0.0301895500565479  0.439877414343691  1.0000
  O   O68       1.0  0.17632816886001026  0.4698130085956649  0.9398746480556852  1.0000
  O   O69       1.0  0.32367097862275773  0.4698090821235823  0.4398776077341466  1.0000
  O   O70       1.0  0.6763291215966802  0.030190408173112405  0.939874960723401  1.0000
  O   O71       1.0  0.17632938157665018  0.9698092622345557  0.5601231560312172  1.0000
  O   O72       1.0  0.8236718223526013  0.5301888720507648  0.0601238980941616  1.0000
  O   O73       1.0  0.6338532168493316  0.46565980983028515  0.022198140616524104  1.0000
  O   O74       1.0  0.3661458185212325  0.03433991726133459  0.522194872247141  1.0000
  O   O75       1.0  0.8661492833694169  0.9656587894581394  0.9778045221267604  1.0000
  O   O76       1.0  0.1338523245449039  0.5343375738547067  0.47780158153688757  1.0000
  O   O77       1.0  0.366150078675787  0.5343420708147945  0.9778069842653069  1.0000
  O   O78       1.0  0.6338541726925017  0.9656599178154155  0.4778021557338832  1.0000
  O   O79       1.0  0.13385136870270029  0.0343410456172819  0.0221975664185194  1.0000
  O   O80       1.0  0.8661437014848731  0.4656591928663971  0.5221949403910457  1.0000
