data_image0
_chemical_formula_structural       Ag4H20C28O28
_chemical_formula_sum              "Ag4 H20 C28 O28"
_cell_length_a       3.56015007704907
_cell_length_b       14.929134919229703
_cell_length_c       15.702705431637206
_cell_angle_alpha    106.20353469768791
_cell_angle_beta     90.0003595067653
_cell_angle_gamma    89.99943686535384

_space_group_name_H-M_alt    "P 1"
_space_group_IT_number       1

loop_
  _space_group_symop_operation_xyz
  'x, y, z'

loop_
  _atom_site_type_symbol
  _atom_site_label
  _atom_site_symmetry_multiplicity
  _atom_site_fract_x
  _atom_site_fract_y
  _atom_site_fract_z
  _atom_site_occupancy
  Ag  Ag1       1.0  0.0008860879785857  0.4007085898252782  0.9557058423856336  1.0000
  Ag  Ag2       1.0  0.5008818793672843  0.09928921496043587  0.04429241543356711  1.0000
  Ag  Ag3       1.0  0.999111644701493  0.5992910994220038  0.0442936770224662  1.0000
  Ag  Ag4       1.0  0.4991355154789046  0.9007077123440438  0.955708315633217  1.0000
  H   H1        1.0  0.43080386158507616  0.8156255055604048  0.5842571418146393  1.0000
  H   H2        1.0  0.9307973735881773  0.6843782894939066  0.41574346361092307  1.0000
  H   H3        1.0  0.5692051065518199  0.18437557863057918  0.4157427306507985  1.0000
  H   H4        1.0  0.0691975501927189  0.3156249244601952  0.5842594954296632  1.0000
  H   H5        1.0  0.5845981291979568  0.2853444198789603  0.8239839039519837  1.0000
  H   H6        1.0  0.08460098214020212  0.21465255533443178  0.17601681510157624  1.0000
  H   H7        1.0  0.4153996035270495  0.7146546092070948  0.17601799593420253  1.0000
  H   H8        1.0  0.9154051771918361  0.7853457576074092  0.8239836297606902  1.0000
  H   H9        1.0  0.552132551817806  0.22430548309338147  0.8911075541501321  1.0000
  H   H10       1.0  0.0521254769555668  0.2756915298418221  0.1088912158276685  1.0000
  H   H11       1.0  0.44786518089501465  0.7756928205279079  0.10889225145706402  1.0000
  H   H12       1.0  0.9478722557572609  0.7243067737794673  0.8911085897795205  1.0000
  H   H13       1.0  0.197849062520433  0.5775624235578007  0.5458415241684521  1.0000
  H   H14       1.0  0.6978420385183453  0.9224383275413289  0.4541560561540481  1.0000
  H   H15       1.0  0.8021599055960066  0.4224393487816442  0.4541578855719237  1.0000
  H   H16       1.0  0.3021556941493273  0.07756348212578959  0.5458459105849586  1.0000
  H   H17       1.0  0.31713087482056307  0.4112482301029771  0.7340787847052042  1.0000
  H   H18       1.0  0.8171329006352861  0.08875174327567946  0.2659217627885582  1.0000
  H   H19       1.0  0.6828584312361627  0.5887521566303704  0.26592091122478934  1.0000
  H   H20       1.0  0.18287044982650255  0.9112451467266994  0.7340764112673953  1.0000
  C   C1        1.0  0.5388722434820749  0.7335957405413749  0.6604416171018884  1.0000
  C   C2        1.0  0.03884911598372299  0.7664082061594539  0.3395622692187175  1.0000
  C   C3        1.0  0.4611507690352994  0.26640324187371783  0.3395570865414258  1.0000
  C   C4        1.0  0.9611570433280787  0.2335879490462459  0.6604331713085828  1.0000
  C   C5        1.0  0.4574733064556468  0.6381862671599307  0.6702779942163775  1.0000
  C   C6        1.0  0.9574739944610257  0.8618146466910304  0.3297193738314519  1.0000
  C   C7        1.0  0.5425356617139981  0.36181343140506067  0.32972216444814967  1.0000
  C   C8        1.0  0.0425237381861976  0.1381878511245489  0.670282130182507  1.0000
  C   C9        1.0  0.28820303773370165  0.5670916376962934  0.6088434036899742  1.0000
  C   C10       1.0  0.7881967373943652  0.93291105097704  0.39115671112379863  1.0000
  C   C11       1.0  0.7118031215410028  0.4329094558266107  0.39115710802511233  1.0000
  C   C12       1.0  0.21179537751215347  0.06709144684422341  0.608844792887453  1.0000
  C   C13       1.0  0.229353682642504  0.4783662789482008  0.6271473647810667  1.0000
  C   C14       1.0  0.7293528869129132  0.021633844076475797  0.3728511802839806  1.0000
  C   C15       1.0  0.770644050012983  0.521634805254152  0.3728525076789424  1.0000
  C   C16       1.0  0.2706392280060044  0.9783665333249514  0.6271478763963502  1.0000
  C   C17       1.0  0.3497571212698247  0.47433524460548426  0.7133473922666768  1.0000
  C   C18       1.0  0.8497651390310847  0.025666745846514488  0.2866530770297686  1.0000
  C   C19       1.0  0.6502378025234703  0.5256658489287888  0.2866531194429954  1.0000
  C   C20       1.0  0.15023540252347797  0.9743322365913158  0.7133456266027097  1.0000
  C   C21       1.0  0.5184233511124744  0.5491236478882654  0.7706172693933908  1.0000
  C   C22       1.0  0.018412091492308498  0.9508760526969197  0.22937850629001136  1.0000
  C   C23       1.0  0.4815687638186289  0.45087745497792747  0.22938388156593706  1.0000
  C   C24       1.0  0.9815772145768162  0.04912221361658449  0.7706187423090614  1.0000
  C   C25       1.0  0.6670278409326895  0.5473769780229745  0.8599296568997161  1.0000
  C   C26       1.0  0.16699732030210868  0.9526287084849869  0.14006849011043704  1.0000
  C   C27       1.0  0.33296427401071327  0.4526234273656796  0.14007131753366053  1.0000
  C   C28       1.0  0.8330032212319975  0.0473709621013043  0.8599297507969865  1.0000
  O   O1        1.0  0.7175075105406136  0.7914415293394583  0.7178396565928511  1.0000
  O   O2        1.0  0.2175077755133685  0.7085557225700186  0.28215897781993965  1.0000
  O   O3        1.0  0.28250426649111654  0.2085595828359175  0.2821621336269757  1.0000
  O   O4        1.0  0.7824871483452043  0.29144544559686386  0.7178466478978295  1.0000
  O   O5        1.0  0.40092459380955586  0.7461267863928068  0.5873333559400322  1.0000
  O   O6        1.0  0.9009179246352801  0.7538763716493618  0.412667044136427  1.0000
  O   O7        1.0  0.5990871831935535  0.2538750046019516  0.41266733230372676  1.0000
  O   O8        1.0  0.09908261691090561  0.2461254473439922  0.5873355618549496  1.0000
  O   O9        1.0  0.07756301707561158  0.41017664015578953  0.5705916226344243  1.0000
  O   O10       1.0  0.5775552270646994  0.08982590113803471  0.42940858408220356  1.0000
  O   O11       1.0  0.922434715583904  0.5898251601822505  0.429409704853569  1.0000
  O   O12       1.0  0.4224537410354258  0.9101758525432544  0.5705895471561463  1.0000
  O   O13       1.0  0.5755594217545974  0.6304442377929647  0.7501296910655171  1.0000
  O   O14       1.0  0.0755521022627619  0.8695553564938551  0.2498667789871477  1.0000
  O   O15       1.0  0.4244467375446915  0.3695554607748689  0.24987046759765977  1.0000
  O   O16       1.0  0.9244372038226841  0.1304429284778053  0.750131748113958  1.0000
  O   O17       1.0  0.6005212320507525  0.4727264489692827  0.879872431116013  1.0000
  O   O18       1.0  0.1005108068772174  0.02727392544796459  0.12012535041508703  1.0000
  O   O19       1.0  0.39946245628572546  0.5272732496212881  0.12012772753632109  1.0000
  O   O20       1.0  0.8994953524058645  0.9727243315194228  0.8798712589411012  1.0000
  O   O21       1.0  0.8510838192527287  0.6173391459183862  0.9054770233515229  1.0000
  O   O22       1.0  0.3510775081617439  0.882662718028669  0.09452297559426634  1.0000
  O   O23       1.0  0.14890829570296663  0.38266056199272913  0.09452377455588853  1.0000
  O   O24       1.0  0.6489258422836244  0.11733557625785809  0.9054761907646238  1.0000
  O   O25       1.0  0.49956594375790075  0.2872947406537564  0.8842419260010459  1.0000
  O   O26       1.0  0.9995644727142476  0.21270275245279888  0.11575698939721953  1.0000
  O   O27       1.0  0.5004317889426275  0.712704260445065  0.11575805613210832  1.0000
  O   O28       1.0  0.0004416866177905  0.787295560489042  0.8842434554650467  1.0000
