data_image0
_chemical_formula_structural       Ba2H16C24N4O12
_chemical_formula_sum              "Ba2 H16 C24 N4 O12"
_cell_length_a       5.560520264506936
_cell_length_b       8.34379247831352
_cell_length_c       13.833833817849765
_cell_angle_alpha    99.17737105678924
_cell_angle_beta     101.66471666489791
_cell_angle_gamma    90.04033168372727

_space_group_name_H-M_alt    "P 1"
_space_group_IT_number       1

loop_
  _space_group_symop_operation_xyz
  'x, y, z'

loop_
  _atom_site_type_symbol
  _atom_site_label
  _atom_site_symmetry_multiplicity
  _atom_site_fract_x
  _atom_site_fract_y
  _atom_site_fract_z
  _atom_site_occupancy
  Ba  Ba1       1.0  0.1423335062955857  0.250253897183299  4.334109469539743e-05  1.0000
  Ba  Ba2       1.0  0.8576942185216078  0.7497475481660556  0.9999588706372508  1.0000
  H   H1        1.0  0.7073702975749043  0.7475109257812419  0.3489969978641412  1.0000
  H   H2        1.0  0.35806986132632795  0.7524964312507334  0.6510306674314421  1.0000
  H   H3        1.0  0.29262765928082496  0.25248949610661237  0.6510104627287846  1.0000
  H   H4        1.0  0.6419216738757784  0.24751070556287402  0.3489623185837162  1.0000
  H   H5        1.0  0.5457047988496201  0.6699748330631865  0.4914529119422327  1.0000
  H   H6        1.0  0.05333223240619132  0.8294602305028036  0.5084143151105422  1.0000
  H   H7        1.0  0.4542547986820579  0.3300265247278062  0.5085476321291864  1.0000
  H   H8        1.0  0.9466344527697572  0.17053381345861857  0.4915848033717864  1.0000
  H   H9        1.0  0.13274204792679  0.5279673104937785  0.45674540457342533  1.0000
  H   H10       1.0  0.6752394682528261  0.971382517990456  0.5428312500979474  1.0000
  H   H11       1.0  0.8672161295662449  0.4720349282593758  0.5432464092755467  1.0000
  H   H12       1.0  0.32474118847681416  0.0286059164725074  0.4571794832444738  1.0000
  H   H13       1.0  0.8889268653456597  0.46542281519766243  0.2842698439566718  1.0000
  H   H14       1.0  0.6049776571938139  0.03447371653602  0.7152754379211643  1.0000
  H   H15       1.0  0.1110646239309716  0.5345767901021999  0.7157160082367753  1.0000
  H   H16       1.0  0.39504029529632584  0.965525701639038  0.2847373164717411  1.0000
  C   C1        1.0  0.1583353685266076  0.5583327102512214  0.21400623705451946  1.0000
  C   C2        1.0  0.9447125022213785  0.9416575022010748  0.7857825475921487  1.0000
  C   C3        1.0  0.8416721103064974  0.4416611289937507  0.7859870558620373  1.0000
  C   C4        1.0  0.05530952402852311  0.0583403067744541  0.2142195854542024  1.0000
  C   C5        1.0  0.39642486152592926  0.6422816763148799  0.2376589943837502  1.0000
  C   C6        1.0  0.15892632088644376  0.8577096655359283  0.7622615181707602  1.0000
  C   C7        1.0  0.6035772374607618  0.35772086129598074  0.7623403276711898  1.0000
  C   C8        1.0  0.8410847704846702  0.1422892899488488  0.23773902337580918  1.0000
  C   C9        1.0  0.5301936003782829  0.6839914241099762  0.3371449427569004  1.0000
  C   C10       1.0  0.1928725893820413  0.8159885217727804  0.6627856593376863  1.0000
  C   C11       1.0  0.46979346683477263  0.31600757933673423  0.6628571029259619  1.0000
  C   C12       1.0  0.807121929087593  0.1840078894016131  0.3372117665537928  1.0000
  C   C13       1.0  0.4393207620371057  0.6417172583567136  0.4152941185237822  1.0000
  C   C14       1.0  0.023534363116610307  0.8580502857314228  0.584556894097055  1.0000
  C   C15       1.0  0.5606515230626385  0.3582767242789016  0.5847033185704262  1.0000
  C   C16       1.0  0.9764527421953345  0.14195246986071197  0.4154483571292361  1.0000
  C   C17       1.0  0.20626098035609167  0.5612629276142085  0.395064188759747  1.0000
  C   C18       1.0  0.810738455776395  0.9383780711501472  0.6046376254104615  1.0000
  C   C19       1.0  0.7937029184946383  0.4387441891536029  0.6049285313776807  1.0000
  C   C20       1.0  0.18924053090960058  0.06160768268986059  0.39536623131008497  1.0000
  C   C21       1.0  0.07006028914800311  0.5245050301705803  0.2991649495652453  1.0000
  C   C22       1.0  0.7711282871841476  0.9754734055106908  0.7005197874449394  1.0000
  C   C23       1.0  0.9299253729902189  0.47549231651080953  0.7008252652197484  1.0000
  C   C24       1.0  0.2288844289944976  0.024530795547420294  0.2994914541337863  1.0000
  N   N1        1.0  0.5047208955112622  0.6875352369657223  0.16186050781058728  1.0000
  N   N2        1.0  0.34273105786848385  0.8119954373342536  0.8380879120403222  1.0000
  N   N3        1.0  0.4952922597881084  0.31247109347636126  0.8381429934207034  1.0000
  N   N4        1.0  0.6572894272535663  0.188003361495042  0.1619083817230091  1.0000
  O   O1        1.0  0.027672717917091895  0.5157471003603219  0.12491152368411919  1.0000
  O   O2        1.0  0.9034876207396253  0.9844421002435483  0.8748102586000641  1.0000
  O   O3        1.0  0.9723424927945742  0.4842527292066095  0.8750800517216035  1.0000
  O   O4        1.0  0.0965475100980342  0.0155593177838753  0.12519115675078044  1.0000
  O   O5        1.0  0.4215528298124126  0.6309129547601486  0.0706615155447778  1.0000
  O   O6        1.0  0.35025876507130954  0.8674506888747613  0.9293685182713602  1.0000
  O   O7        1.0  0.5784571983398266  0.36910296857190866  0.9293396091467656  1.0000
  O   O8        1.0  0.6497593911536726  0.13253971113960009  0.0706297700832579  1.0000
  O   O9        1.0  0.6880830228940908  0.7859130780368273  0.18585665162384396  1.0000
  O   O10       1.0  0.5023506780145722  0.714143769114436  0.8140238907536457  1.0000
  O   O11       1.0  0.3119547126349714  0.21407543052159636  0.8141554984810497  1.0000
  O   O12       1.0  0.4976856344769162  0.2858717319160461  0.1859657737857461  1.0000
