data_image0
_chemical_formula_structural       Ag2H20C22S2N4O6
_chemical_formula_sum              "Ag2 H20 C22 S2 N4 O6"
_cell_length_a       7.589693008823478
_cell_length_b       8.958375260557046
_cell_length_c       10.88846732482021
_cell_angle_alpha    68.5007710036985
_cell_angle_beta     73.44537793279248
_cell_angle_gamma    73.0684534907463

_space_group_name_H-M_alt    "P 1"
_space_group_IT_number       1

loop_
  _space_group_symop_operation_xyz
  'x, y, z'

loop_
  _atom_site_type_symbol
  _atom_site_label
  _atom_site_symmetry_multiplicity
  _atom_site_fract_x
  _atom_site_fract_y
  _atom_site_fract_z
  _atom_site_occupancy
  Ag  Ag1       1.0  0.3037739463387864  0.039946510086238604  0.9267794088268884  1.0000
  Ag  Ag2       1.0  0.6962197800210956  0.9600618120389227  0.0732189351322817  1.0000
  H   H1        1.0  0.6102789381441908  0.7960618735605964  0.8146237201102762  1.0000
  H   H2        1.0  0.389701764452589  0.203943758168748  0.18537340248712292  1.0000
  H   H3        1.0  0.96601110722603  0.7676530276162695  0.4115517738866499  1.0000
  H   H4        1.0  0.03399585055763768  0.23234696624474793  0.5884454703265263  1.0000
  H   H5        1.0  0.02739042750716438  0.2886798612325663  0.05336152450521331  1.0000
  H   H6        1.0  0.972614968399604  0.7113310533733284  0.9466429303031628  1.0000
  H   H7        1.0  0.370658572482938  0.2817494088412715  0.6408596006565188  1.0000
  H   H8        1.0  0.6293352117718101  0.7182638228440865  0.3591391291948795  1.0000
  H   H9        1.0  0.8119843356457535  0.29965717219236876  0.2677674559432716  1.0000
  H   H10       1.0  0.18802440557264785  0.7003463733524955  0.7322412517083093  1.0000
  H   H11       1.0  0.8374971368251067  0.7815587927415636  0.6035616738571149  1.0000
  H   H12       1.0  0.16248318946566795  0.21844310199323763  0.39643845599839966  1.0000
  H   H13       1.0  0.5791974839223998  0.2891816143654681  0.41956444746237753  1.0000
  H   H14       1.0  0.42080060591668195  0.7108207035879772  0.58043019960823  1.0000
  H   H15       1.0  0.1850499473574913  0.7808913010684081  0.19296055493287406  1.0000
  H   H16       1.0  0.8149461765826088  0.219118348991735  0.8070341689423159  1.0000
  H   H17       1.0  0.7015732936874668  0.5239322974748007  0.9255377827758264  1.0000
  H   H18       1.0  0.2984349403173354  0.47605777287677153  0.07446762886826963  1.0000
  H   H19       1.0  0.6459720117645205  0.35143356060173403  0.06466697582483491  1.0000
  H   H20       1.0  0.3540392868784963  0.6485553307102023  0.9353390923968588  1.0000
  C   C1        1.0  0.6089119807434712  0.9015023215691543  0.7239046095618347  1.0000
  C   C2        1.0  0.3910744169288661  0.09849230552617172  0.27609644755663953  1.0000
  C   C3        1.0  0.9735433839367289  0.8871351403097519  0.336487131720716  1.0000
  C   C4        1.0  0.026456085315011486  0.11286714068935312  0.6635118449976714  1.0000
  C   C5        1.0  0.7320135855930372  0.0349682075069211  0.4903742679823821  1.0000
  C   C6        1.0  0.2679834105461082  0.9650279304055973  0.5096214895331027  1.0000
  C   C7        1.0  0.007592940439963086  0.17583943752285341  0.13538463387383354  1.0000
  C   C8        1.0  0.9924092674799208  0.8241628774631026  0.8646156268319272  1.0000
  C   C9        1.0  0.47501454525398384  0.17299399584285172  0.6270444189235747  1.0000
  C   C10       1.0  0.5249760157958008  0.8270056052798936  0.3729580281546701  1.0000
  C   C11       1.0  0.8857492726141842  0.17982182276914932  0.2570030197589474  1.0000
  C   C12       1.0  0.11425355202776177  0.8201730352211599  0.7430038974567239  1.0000
  C   C13       1.0  0.8639769887011324  0.0332413275741175  0.36118542562424233  1.0000
  C   C14       1.0  0.13601893137557397  0.9667485358888683  0.6388178957307673  1.0000
  C   C15       1.0  0.7358788237203412  0.8955969564754087  0.6048192855068563  1.0000
  C   C16       1.0  0.2641041858633528  0.1044000491991  0.3951826643573212  1.0000
  C   C17       1.0  0.5963850869138979  0.17641812742824212  0.5038642634684506  1.0000
  C   C18       1.0  0.4036125712439541  0.823575530483531  0.4961339268815691  1.0000
  C   C19       1.0  0.0945297589441125  0.8921678015737484  0.21298135954545216  1.0000
  C   C20       1.0  0.9054680301213407  0.10783559453677333  0.7870231340701607  1.0000
  C   C21       1.0  0.5962071702189888  0.4827903478772343  0.01632785393707791  1.0000
  C   C22       1.0  0.40380977686835706  0.5172185733357965  0.9836601999037594  1.0000
  S   S1        1.0  0.5888817875319321  0.5881679366202234  0.1310819232901678  1.0000
  S   S2        1.0  0.41113202448104147  0.4118321017471018  0.8689212966320097  1.0000
  N   N1        1.0  0.4791756856673786  0.03765093146429171  0.7356781522509123  1.0000
  N   N2        1.0  0.5208118535211952  0.9623548391799375  0.26431849266083407  1.0000
  N   N3        1.0  0.1106083370006701  0.03432010997153871  0.11280100292590588  1.0000
  N   N4        1.0  0.8893934467969159  0.965673504511919  0.8872055667998208  1.0000
  O   O1        1.0  0.5056178635663924  0.7613418597124879  0.0644583292466621  1.0000
  O   O2        1.0  0.49439188574100246  0.23866310466946325  0.9355387410190729  1.0000
  O   O3        1.0  0.7846306086868537  0.5660819156295602  0.14143983081677897  1.0000
  O   O4        1.0  0.2153913337196228  0.43391346349446286  0.8585567141265498  1.0000
  O   O5        1.0  0.4684497765116689  0.5133405331150626  0.25842684749293443  1.0000
  O   O6        1.0  0.5315619009570014  0.48665208170447033  0.7415771353841688  1.0000
