data_image0
_chemical_formula_structural       Ag4P4H56C70N16
_chemical_formula_sum              "Ag4 P4 H56 C70 N16"
_cell_length_a       10.144889088214406
_cell_length_b       13.178982820239328
_cell_length_c       16.821
_cell_angle_alpha    73.23074730343305
_cell_angle_beta     85.63900451160004
_cell_angle_gamma    77.78582943543644

_space_group_name_H-M_alt    "P 1"
_space_group_IT_number       1

loop_
  _space_group_symop_operation_xyz
  'x, y, z'

loop_
  _atom_site_type_symbol
  _atom_site_label
  _atom_site_symmetry_multiplicity
  _atom_site_fract_x
  _atom_site_fract_y
  _atom_site_fract_z
  _atom_site_occupancy
  Ag  Ag1       1.0  0.4819604405649116  0.8817750232664776  0.0763657127769832  1.0000
  Ag  Ag2       1.0  0.5180408205461261  0.11822717562816357  0.9236305220564985  1.0000
  Ag  Ag3       1.0  0.026327046629745617  0.4058995838194973  0.1404012107224801  1.0000
  Ag  Ag4       1.0  0.9736752293845471  0.5940945291200208  0.8596027503406417  1.0000
  P   P1        1.0  0.5957908109326056  0.8270209781565256  0.2026747510750511  1.0000
  P   P2        1.0  0.4042098622949126  0.1729796035470841  0.7973230652738081  1.0000
  P   P3        1.0  0.008510734010052094  0.5179313006330304  0.2268905616941197  1.0000
  P   P4        1.0  0.9914905402625107  0.4820668552840459  0.7731125313974728  1.0000
  H   H1        1.0  0.5268368126533787  0.6413351047304232  0.12681954809278292  1.0000
  H   H2        1.0  0.4731630855037992  0.3586606254001197  0.8731811839804706  1.0000
  H   H3        1.0  0.4756360115386613  0.6055191751121711  0.9978797039433402  1.0000
  H   H4        1.0  0.5243684288228749  0.3944781722093964  0.0021186707723046838  1.0000
  H   H5        1.0  0.6605903309632879  0.5824224529011274  0.8919677435919907  1.0000
  H   H6        1.0  0.3394166744421839  0.4175765116114576  0.1080331203994831  1.0000
  H   H7        1.0  0.9404625161657164  0.6310141916124508  0.03597327447602792  1.0000
  H   H8        1.0  0.05954034773208859  0.368981538518085  0.9640308885566427  1.0000
  H   H9        1.0  0.7285046559666098  0.6556529054652954  0.28821469457990645  1.0000
  H   H10       1.0  0.2714928380104098  0.3443525278113881  0.7117845488566488  1.0000
  H   H11       1.0  0.5989621856813088  0.6326669608394296  0.23553547281177598  1.0000
  H   H12       1.0  0.4010370982693061  0.3673352380552046  0.7644644196651883  1.0000
  H   H13       1.0  0.9146721279707535  0.7075129872370098  0.22463674215019577  1.0000
  H   H14       1.0  0.0853291463018024  0.2924851686800665  0.7753627839715305  1.0000
  H   H15       1.0  0.9694198914494123  0.6964004591125743  0.1249435293989904  1.0000
  H   H16       1.0  0.030583373145091707  0.3035936538269368  0.8750574138524385  1.0000
  H   H17       1.0  0.2374484287778742  0.3584673710726989  0.2920302313451657  1.0000
  H   H18       1.0  0.7625552101902714  0.6415332106309178  0.7079698269731552  1.0000
  H   H19       1.0  0.45236439768870434  0.3621675041366146  0.3520237057821163  1.0000
  H   H20       1.0  0.5476406305563516  0.6378314603759776  0.647973087418144  1.0000
  H   H21       1.0  0.5014936554510996  0.5367845135959399  0.3591862722913034  1.0000
  H   H22       1.0  0.4985123613741608  0.4632144509166451  0.6408104755721453  1.0000
  H   H23       1.0  0.33666987408611965  0.7087784392136314  0.30211018469211137  1.0000
  H   H24       1.0  0.6633357420424487  0.2912221424899784  0.6978879994676532  1.0000
  H   H25       1.0  0.12463160076337233  0.7065548015550291  0.24188818046079774  1.0000
  H   H26       1.0  0.8753712499729146  0.2934449715530718  0.7581132857785988  1.0000
  H   H27       1.0  0.8293914215515487  0.3680193098585463  0.27648259998112934  1.0000
  H   H28       1.0  0.17061223057812214  0.6319772288675054  0.7235243165953024  1.0000
  H   H29       1.0  0.6833634707060128  0.3164018067404939  0.4011558021476064  1.0000
  H   H30       1.0  0.3166312447171932  0.6836068609182391  0.5988481880401366  1.0000
  H   H31       1.0  0.6830965988614537  0.3971044904330867  0.518433852446364  1.0000
  H   H32       1.0  0.31688919301681306  0.6029122631807695  0.4815663411761051  1.0000
  H   H33       1.0  0.830029563648282  0.5286888553276015  0.5106982840748486  1.0000
  H   H34       1.0  0.16995562718495455  0.4713303240727952  0.48929841628982024  1.0000
  H   H35       1.0  0.9774291636747706  0.579366770460453  0.38652770049909435  1.0000
  H   H36       1.0  0.02256238565946229  0.42064270579379576  0.6134720906399522  1.0000
  H   H37       1.0  0.7616941401456643  0.8414770487239878  0.3385407202154481  1.0000
  H   H38       1.0  0.23830456908295614  0.1585194900020639  0.661456911125434  1.0000
  H   H39       1.0  0.9761774231101652  0.9048442532301024  0.3325510344053768  1.0000
  H   H40       1.0  0.02382446536895341  0.09514743392287527  0.6674493313126462  1.0000
  H   H41       1.0  0.07772454940074877  0.9882144935174964  0.19484754958249795  1.0000
  H   H42       1.0  0.9222775262651906  0.0117804280175235  0.805155048896367  1.0000
  H   H43       1.0  0.9614066994174877  0.0102675458141661  0.06537010847677041  1.0000
  H   H44       1.0  0.03859752743417026  0.9897346530804754  0.9346301518110991  1.0000
  H   H45       1.0  0.7460585622684518  0.9465467581773126  0.07056659656483796  1.0000
  H   H46       1.0  0.25394268568106076  0.05345948369488699  0.9294305084452219  1.0000
  H   H47       1.0  0.6315557360940359  0.712332216489841  0.3870222801687789  1.0000
  H   H48       1.0  0.36844138350932804  0.2876667480227511  0.6129760647159513  1.0000
  H   H49       1.0  0.48668130563470424  0.7321856621013649  0.5071631045990301  1.0000
  H   H50       1.0  0.5133177911290902  0.2678133024112199  0.4928357441070474  1.0000
  H   H51       1.0  0.26695831146335547  0.8642745905955065  0.48849876863622643  1.0000
  H   H52       1.0  0.7330409724872523  0.1357276082991277  0.5114999348507894  1.0000
  H   H53       1.0  0.19629405537043712  0.9788655122052177  0.34615433486120395  1.0000
  H   H54       1.0  0.8037074060889465  0.0211358780939079  0.6538444515464832  1.0000
  H   H55       1.0  0.3406688155360627  0.9563525959540016  0.22437257099049654  1.0000
  H   H56       1.0  0.659332645923314  0.043648794345124  0.775625620922213  1.0000
  C   C1        1.0  0.7404803690801741  0.6386918060009776  0.09486496144896252  1.0000
  C   C2        1.0  0.2595215062374266  0.36130392412956513  0.9051374634355936  1.0000
  C   C3        1.0  0.6074661719901472  0.6311419497033839  0.08155226833969213  1.0000
  C   C4        1.0  0.3925366919076581  0.368853780427159  0.9184483277231266  1.0000
  C   C5        1.0  0.5782128198256445  0.6107588740313473  0.008849141171395994  1.0000
  C   C6        1.0  0.4217920212325836  0.3892368560991883  0.9911495807328591  1.0000
  C   C7        1.0  0.6796871986448849  0.5981924911759435  0.9497761206693269  1.0000
  C   C8        1.0  0.3203162531364399  0.4018048561456169  0.05022408286806269  1.0000
  C   C9        1.0  0.8362211830165693  0.6250313934175367  0.03123412017612993  1.0000
  C   C10       1.0  0.16378168088123599  0.3749643367129991  0.9687676648766299  1.0000
  C   C11       1.0  0.6780253436209236  0.6802002480252581  0.2283967630663568  1.0000
  C   C12       1.0  0.3219731520978256  0.3198011422738674  0.7716021593517794  1.0000
  C   C13       1.0  0.9155711328905269  0.6591104598755422  0.18137956369459118  1.0000
  C   C14       1.0  0.08442915280181752  0.34088769604152697  0.81862179124888  1.0000
  C   C15       1.0  0.1653189848923091  0.5317016822061333  0.26462463447461454  1.0000
  C   C16       1.0  0.8346830776121126  0.4682972823064587  0.7353782396858506  1.0000
  C   C17       1.0  0.25936173878733365  0.4349791042254481  0.29524463058168476  1.0000
  C   C18       1.0  0.7406405240654337  0.5650190516916282  0.7047572281831336  1.0000
  C   C19       1.0  0.37965867035733686  0.4374186368858162  0.3289176895846211  1.0000
  C   C20       1.0  0.6203441803789431  0.5625811362222848  0.6710813986748718  1.0000
  C   C21       1.0  0.40759184036641466  0.5356735033621547  0.33213153206298074  1.0000
  C   C22       1.0  0.5924121992984226  0.46432546115043744  0.6678676844540021  1.0000
  C   C23       1.0  0.3154067763820194  0.6318648340913028  0.3003830026692996  1.0000
  C   C24       1.0  0.6845976639795169  0.3681325132302574  0.699617750026249  1.0000
  C   C25       1.0  0.1945991641739155  0.6302694751456954  0.26651340868470186  1.0000
  C   C26       1.0  0.8054040872590633  0.3697286807713809  0.733488404743312  1.0000
  C   C27       1.0  0.9111999961503159  0.4777659357545474  0.3229425912116354  1.0000
  C   C28       1.0  0.0887963088981465  0.5222403061176522  0.6770636579071407  1.0000
  C   C29       1.0  0.8284908590277169  0.4034171955969796  0.32784153890005996  1.0000
  C   C30       1.0  0.171508424922898  0.5965850032976547  0.6721642985266669  1.0000
  C   C31       1.0  0.746585179305434  0.3748810513752402  0.39794134106998774  1.0000
  C   C32       1.0  0.2534109253946752  0.625125999092468  0.6020611674846208  1.0000
  C   C33       1.0  0.7463357432040781  0.42010337258714253  0.463488588058965  1.0000
  C   C34       1.0  0.25365222618296457  0.5799125724311978  0.5365104994942271  1.0000
  C   C35       1.0  0.8295155234694463  0.49388124431308705  0.45920777197678575  1.0000
  C   C36       1.0  0.17047304696262697  0.5061322749187198  0.5407912418643548  1.0000
  C   C37       1.0  0.9120637481542461  0.5223058023541398  0.3893914618915844  1.0000
  C   C38       1.0  0.08793175550082571  0.4777036739001089  0.610610525880105  1.0000
  C   C39       1.0  0.7413904317166384  0.887225765614346  0.20469427559972786  1.0000
  C   C40       1.0  0.2586090525823225  0.11277562468477949  0.795304006986612  1.0000
  C   C41       1.0  0.8056587373964419  0.8773520058146359  0.2784238916259553  1.0000
  C   C42       1.0  0.19434273722445988  0.12264534150693149  0.7215746191001243  1.0000
  C   C43       1.0  0.9264342796428264  0.9132140253770868  0.2750418406437661  1.0000
  C   C44       1.0  0.0735664067462167  0.08678251334896459  0.7249574835084189  1.0000
  C   C45       1.0  0.9836553062269643  0.9596678375541002  0.198318327657006  1.0000
  C   C46       1.0  0.0163471569741489  0.0403295097674672  0.8016813267222176  1.0000
  C   C47       1.0  0.9182642966474647  0.9720539036102807  0.12505975070411784  1.0000
  C   C48       1.0  0.0817363765800536  0.027946678093336192  0.8749398491296674  1.0000
  C   C49       1.0  0.7973419312305622  0.936349560172708  0.12792778460840273  1.0000
  C   C50       1.0  0.20265636413984112  0.0636526387219263  0.8720709642154245  1.0000
  C   C51       1.0  0.4974271283863557  0.835387515921461  0.2966749297994085  1.0000
  C   C52       1.0  0.5025725562609509  0.16461306578214865  0.7033229318862624  1.0000
  C   C53       1.0  0.5370372860321595  0.7715788182656809  0.3769405778066072  1.0000
  C   C54       1.0  0.4629637878920504  0.2284201462469113  0.6230558022459362  1.0000
  C   C55       1.0  0.4542724223481757  0.782371142567271  0.4453669506631073  1.0000
  C   C56       1.0  0.545729640156246  0.21762782194531374  0.5546311675375506  1.0000
  C   C57       1.0  0.33153980405742806  0.8564643665429799  0.43483655698737067  1.0000
  C   C58       1.0  0.6684610695184361  0.1435354065651211  0.5651620274507748  1.0000
  C   C59       1.0  0.29119952727720033  0.920015930825876  0.35526117387252026  1.0000
  C   C60       1.0  0.7087997566734144  0.0799862680687582  0.6447375296144884  1.0000
  C   C61       1.0  0.3733666801523442  0.9088031368579266  0.28670935478805143  1.0000
  C   C62       1.0  0.6266326037982708  0.09119906203670779  0.7132899431939349  1.0000
  C   C63       1.0  0.23772028594796524  0.7811210539053803  0.04094663996145437  1.0000
  C   C64       1.0  0.7622815893696355  0.2188746762251554  0.9590522179532429  1.0000
  C   C65       1.0  0.15153174548101592  0.6862428822880701  0.9675764394271339  1.0000
  C   C66       1.0  0.8484695419530651  0.3137512306514409  0.03242875596275502  1.0000
  C   C67       1.0  0.6887311929502927  0.8858115320634781  0.9114061140667005  1.0000
  C   C68       1.0  0.31125899343007996  0.1141914754266722  0.0885892568874738  1.0000
  C   C69       1.0  0.8145140784970695  0.819703997366453  0.8096745961764213  1.0000
  C   C70       1.0  0.1854850445897682  0.1802868811910159  0.1903153782367752  1.0000
  N   N1        1.0  0.8065699946006077  0.6057512420241764  0.9615012782607905  1.0000
  N   N2        1.0  0.1934320810653389  0.3942436795108506  0.038502509208022714  1.0000
  N   N3        1.0  0.7768477491698037  0.6588905218962181  0.165609412046301  1.0000
  N   N4        1.0  0.22315273687089388  0.3411068254253422  0.8343927109864567  1.0000
  N   N5        1.0  0.28538878504924975  0.8486727401872329  0.05464087876111278  1.0000
  N   N6        1.0  0.7146174321243566  0.1513254157298434  0.9453560426966446  1.0000
  N   N7        1.0  0.18364982756489207  0.7030357938858458  0.03522108235414114  1.0000
  N   N8        1.0  0.8163469045033126  0.2969607448401987  0.9647831791051118  1.0000
  N   N9        1.0  0.11723154066536524  0.6614117227033205  0.9115742528504639  1.0000
  N   N10       1.0  0.8827723249741766  0.3385799644496572  0.08842780567886172  1.0000
  N   N11       1.0  0.5964004938705544  0.9089139144430973  0.9547175610547356  1.0000
  N   N12       1.0  0.40359443506253  0.09108990164256169  0.0452780041160352  1.0000
  N   N13       1.0  0.7949290957398035  0.8717605678476373  0.8658442470456791  1.0000
  N   N14       1.0  0.2050638560328579  0.1282432482380287  0.1341525977886775  1.0000
  N   N15       1.0  0.8449245937445369  0.7745754732339662  0.7574390719595172  1.0000
  N   N16       1.0  0.1550764933411912  0.22541944830106075  0.24256476084610773  1.0000
