data_image0
_chemical_formula_structural       Cu8H120C136N8O48
_chemical_formula_sum              "Cu8 H120 C136 N8 O48"
_cell_length_a       15.36836407400104
_cell_length_b       15.368333137367905
_cell_length_c       20.647812905168447
_cell_angle_alpha    86.00056933052971
_cell_angle_beta     86.00047306636881
_cell_angle_gamma    63.692880141810434

_space_group_name_H-M_alt    "P 1"
_space_group_IT_number       1

loop_
  _space_group_symop_operation_xyz
  'x, y, z'

loop_
  _atom_site_type_symbol
  _atom_site_label
  _atom_site_symmetry_multiplicity
  _atom_site_fract_x
  _atom_site_fract_y
  _atom_site_fract_z
  _atom_site_occupancy
  Cu  Cu1       1.0  0.9909253976089545  0.9921226328945283  0.31192281252058524  1.0000
  Cu  Cu2       1.0  0.0078816674270641  0.009079472915075801  0.18807289136958624  1.0000
  Cu  Cu3       1.0  0.009195712214648204  0.007787693692506501  0.6876470218470915  1.0000
  Cu  Cu4       1.0  0.9922092296716728  0.9908048729274271  0.8123471658000625  1.0000
  Cu  Cu5       1.0  0.04158115204337071  0.5556107751608295  0.49880359615075065  1.0000
  Cu  Cu6       1.0  0.44438293292341063  0.9584195179947554  0.0011976354310264195  1.0000
  Cu  Cu7       1.0  0.9585378749866891  0.4443357962251256  0.501312580941459  1.0000
  Cu  Cu8       1.0  0.555662962007375  0.04145884222609202  0.998691065360916  1.0000
  H   H1        1.0  0.30703582559389997  0.9710403766394436  0.16797173215725542  1.0000
  H   H2        1.0  0.028939407816387992  0.6929757432403746  0.3320263782101875  1.0000
  H   H3        1.0  0.6933474377044107  0.028687475619037287  0.8321036377867447  1.0000
  H   H4        1.0  0.9713212628599238  0.30664783329614653  0.6679023369934711  1.0000
  H   H5        1.0  0.47421214812604984  0.9501691662331031  0.18181475383997286  1.0000
  H   H6        1.0  0.049815077258671195  0.5257968648181973  0.3181802189288803  1.0000
  H   H7        1.0  0.5261572114611751  0.04984727604829693  0.8182375054794095  1.0000
  H   H8        1.0  0.9501591866058304  0.4738371887123236  0.6817639274791462  1.0000
  H   H9        1.0  0.2717738613085814  0.9300634641027159  0.374589658127114  1.0000
  H   H10       1.0  0.0699368936337379  0.7282345724334719  0.1254098948259639  1.0000
  H   H11       1.0  0.7284760517869202  0.07020324544991767  0.6255366514886661  1.0000
  H   H12       1.0  0.9298053605668174  0.2715156259956116  0.8744724418345342  1.0000
  H   H13       1.0  0.441136465244334  0.906606666626388  0.3884307928700252  1.0000
  H   H14       1.0  0.09339719392535528  0.5588672697614926  0.1115686985541942  1.0000
  H   H15       1.0  0.559139118837706  0.09377966771963034  0.6116844853168502  1.0000
  H   H16       1.0  0.9062267973356911  0.44086201043468515  0.8883190000968071  1.0000
  H   H17       1.0  0.5633705826411131  0.7504273183878142  0.3464140705021351  1.0000
  H   H18       1.0  0.24957307449948726  0.4366213771890911  0.15359238414646373  1.0000
  H   H19       1.0  0.4367485427080169  0.24978574720554286  0.6537428948517103  1.0000
  H   H20       1.0  0.7502137600797029  0.5632542253536101  0.8462601047748778  1.0000
  H   H21       1.0  0.7454467627020732  0.9161428493286506  0.4646076689816852  1.0000
  H   H22       1.0  0.08384582063359862  0.2545806436721492  0.0353950264541112  1.0000
  H   H23       1.0  0.25469651692380785  0.0840059708980476  0.5353766979374583  1.0000
  H   H24       1.0  0.915986408297144  0.74530979666843  0.9646168264281272  1.0000
  H   H25       1.0  0.8162430836430019  0.813941085701899  0.5159072266102884  1.0000
  H   H26       1.0  0.1860506517484026  0.18379678438283523  0.9840952243912898  1.0000
  H   H27       1.0  0.18387221359711964  0.1862459018955747  0.4841085360374465  1.0000
  H   H28       1.0  0.8137511487064514  0.8161376915553052  0.015887292517071234  1.0000
  H   H29       1.0  0.7476346508784674  0.9299478267775004  0.5499512861389634  1.0000
  H   H30       1.0  0.0700452463805661  0.2523982781421026  0.95005305412991  1.0000
  H   H31       1.0  0.2526122586377824  0.07032870967104543  0.44999689549783994  1.0000
  H   H32       1.0  0.9296704072548395  0.7473846120192393  0.049999423464633694  1.0000
  H   H33       1.0  0.8594974634859726  0.7997771216027443  0.365229588478897  1.0000
  H   H34       1.0  0.20021359830717245  0.1405003345802811  0.1347720730633668  1.0000
  H   H35       1.0  0.1408234873904277  0.20010243883606904  0.6348340016494305  1.0000
  H   H36       1.0  0.7998733193965606  0.8591909861699134  0.8651548214953099  1.0000
  H   H37       1.0  0.2741233494023092  0.1256764362347909  0.2889088956552825  1.0000
  H   H38       1.0  0.8743286869525023  0.725862267917883  0.21108192740103965  1.0000
  H   H39       1.0  0.725809253336017  0.8743430739245781  0.7111424326671525  1.0000
  H   H40       1.0  0.1256640003268146  0.274178488540649  0.7888490994581403  1.0000
  H   H41       1.0  0.5333264546120589  0.10948316038818719  0.14076082033062684  1.0000
  H   H42       1.0  0.8905092523733558  0.46667308011841885  0.35924670312785173  1.0000
  H   H43       1.0  0.46644061513418933  0.8907998817001967  0.8591687902147245  1.0000
  H   H44       1.0  0.1091969230008729  0.5335579870929976  0.6408350006269856  1.0000
  H   H45       1.0  0.1377049352928239  0.23750109450075033  0.36141536807355834  1.0000
  H   H46       1.0  0.7625116839061833  0.8622816385280884  0.13857659166218642  1.0000
  H   H47       1.0  0.8622824212291462  0.7624982200808569  0.6386805225600656  1.0000
  H   H48       1.0  0.23750662025206276  0.13770625297109973  0.8613104326683043  1.0000
  H   H49       1.0  0.6881557144865481  0.11413790914250654  0.3432466626142201  1.0000
  H   H50       1.0  0.885854091639878  0.3118545112584955  0.1567577643821636  1.0000
  H   H51       1.0  0.31148726077356764  0.8862869674978668  0.6567260292808542  1.0000
  H   H52       1.0  0.11371720886251781  0.6885003862047158  0.8432809680839669  1.0000
  H   H53       1.0  0.7106658240515741  0.05964809477617919  0.13961351250945606  1.0000
  H   H54       1.0  0.9403566468025063  0.289328942737036  0.36039246817819054  1.0000
  H   H55       1.0  0.28913658882279236  0.9406669450904486  0.8603346109001823  1.0000
  H   H56       1.0  0.0593221821535082  0.7108665630409448  0.639671443439447  1.0000
  H   H57       1.0  0.7173987867652015  0.9250554393768837  0.3064993731345211  1.0000
  H   H58       1.0  0.0749316080305107  0.28260659553950523  0.19349740448342354  1.0000
  H   H59       1.0  0.2829782660564604  0.07490680995361741  0.6935719535840335  1.0000
  H   H60       1.0  0.9250739089045937  0.717031586170798  0.8064200628008608  1.0000
  H   H61       1.0  0.8357078003603461  0.961145487866517  0.40074550538035686  1.0000
  H   H62       1.0  0.03884765597343429  0.1643075481576801  0.09924886623009853  1.0000
  H   H63       1.0  0.16440164537629445  0.03884605122024706  0.5991347649616686  1.0000
  H   H64       1.0  0.9611471099685075  0.8356056746785258  0.9008591737662643  1.0000
  H   H65       1.0  0.40275224815998456  0.32448554772405913  0.28013939212065964  1.0000
  H   H66       1.0  0.6754956218134395  0.5972603296758267  0.2198760099854908  1.0000
  H   H67       1.0  0.5968773025077354  0.6758035942991681  0.719548626140906  1.0000
  H   H68       1.0  0.3241910520287661  0.4031169671295274  0.7804514230811322  1.0000
  H   H69       1.0  0.704776194340205  0.626765111982749  0.40546607887836233  1.0000
  H   H70       1.0  0.37323725168227645  0.295219113486489  0.09454280773886133  1.0000
  H   H71       1.0  0.2952996375287568  0.3733436712730338  0.5946536131637785  1.0000
  H   H72       1.0  0.6266543205787727  0.7046909472752176  0.9053488760569552  1.0000
  H   H73       1.0  0.2680895331715689  0.43408430304284457  0.3540466664550622  1.0000
  H   H74       1.0  0.5659007763009214  0.7319252362445569  0.14595741768088297  1.0000
  H   H75       1.0  0.7315977385131022  0.5661808260890026  0.6457019443013082  1.0000
  H   H76       1.0  0.43381713835253066  0.26839318590430156  0.854293584812169  1.0000
  H   H77       1.0  0.5099809670716128  0.16295453163062484  0.345013931405127  1.0000
  H   H78       1.0  0.8370251015428141  0.4900264807406032  0.15499875859659798  1.0000
  H   H79       1.0  0.4896394224275511  0.8375209861056097  0.65488357451121  1.0000
  H   H80       1.0  0.16248185328266376  0.5103524434588634  0.8451124554740234  1.0000
  H   H81       1.0  0.9942595723268397  0.9168753544882055  0.5342935536124926  1.0000
  H   H82       1.0  0.0831454694255314  0.005766429719031408  0.9656954037958699  1.0000
  H   H83       1.0  0.0061047264157281  0.0830499016030473  0.4654730103141703  1.0000
  H   H84       1.0  0.9169688942697505  0.9938886956274616  0.03452644818762001  1.0000
  H   H85       1.0  0.8997505462838119  0.9251482974353995  0.5919892709785586  1.0000
  H   H86       1.0  0.0748684106656157  0.10027368536175633  0.9080058959295485  1.0000
  H   H87       1.0  0.1006206337499549  0.07486834184138048  0.4078439616994772  1.0000
  H   H88       1.0  0.9251456798174544  0.8993735294752626  0.09215323234377588  1.0000
  H   H89       1.0  0.9751807832285877  0.8111827231396731  0.5570199627146337  1.0000
  H   H90       1.0  0.188833085728362  0.024851816724854817  0.9429751446915233  1.0000
  H   H91       1.0  0.02504309966315791  0.18883761503245475  0.44280677092721293  1.0000
  H   H92       1.0  0.8111764722028313  0.9749547671336102  0.05719518178486279  1.0000
  H   H93       1.0  0.11528316784716  0.7103898849850621  0.4243102628375794  1.0000
  H   H94       1.0  0.2896085892014355  0.8847227886253036  0.07568464868759861  1.0000
  H   H95       1.0  0.8849350779925159  0.2893543299535111  0.5756949602781205  1.0000
  H   H96       1.0  0.7106348284999484  0.1150844192643135  0.9242982082958948  1.0000
  H   H97       1.0  0.2854973967948879  0.7494096328175672  0.5530427115410533  1.0000
  H   H98       1.0  0.2505647191000335  0.7145141585716316  0.9469606682655967  1.0000
  H   H99       1.0  0.7144094136791638  0.2509027485720308  0.44693459339943337  1.0000
  H   H100      1.0  0.7490928251224104  0.2855939986805825  0.053066213827136686  1.0000
  H   H101      1.0  0.22842462819416906  0.6722066175383289  0.5785982914577517  1.0000
  H   H102      1.0  0.3277694850945991  0.7715795275827305  0.9213990946541558  1.0000
  H   H103      1.0  0.7716380751166553  0.32796731260081935  0.42141920540245087  1.0000
  H   H104      1.0  0.6720301308963385  0.228358497521093  0.07857850271045662  1.0000
  H   H105      1.0  0.16310236013878673  0.8004351570759172  0.5858410637548347  1.0000
  H   H106      1.0  0.1995446740444464  0.8369074491954932  0.9141583481829656  1.0000
  H   H107      1.0  0.8367885105655618  0.19974358453034582  0.4140738951365536  1.0000
  H   H108      1.0  0.8002612068832705  0.16320538553623715  0.08592390727694979  1.0000
  H   H109      1.0  0.1671589379707896  0.8180308439509358  0.3972632063526191  1.0000
  H   H110      1.0  0.18196148931529882  0.8328668028532533  0.10273340093511511  1.0000
  H   H111      1.0  0.8327645477616628  0.18191949174632757  0.6026772315437585  1.0000
  H   H112      1.0  0.8180862673184136  0.16723642034335057  0.897321819938654  1.0000
  H   H113      1.0  0.27675166983554794  0.7966518389360503  0.4349096023591488  1.0000
  H   H114      1.0  0.20333168830449472  0.723267094652478  0.0650955494842478  1.0000
  H   H115      1.0  0.7232093707454084  0.20339471875620774  0.5649540960849961  1.0000
  H   H116      1.0  0.7966198897095041  0.2767889912574332  0.9350475994377024  1.0000
  H   H117      1.0  0.16222547100333878  0.8916876804011694  0.46087252302248066  1.0000
  H   H118      1.0  0.10830064950372528  0.8377985426715426  0.03913220623759631  1.0000
  H   H119      1.0  0.8377333360484016  0.10833205291859128  0.5390237970949415  1.0000
  H   H120      1.0  0.8916697327334475  0.16225870093504102  0.9609783453582994  1.0000
  C   C1        1.0  0.17783300659523602  0.9632292724317468  0.262881469373454  1.0000
  C   C2        1.0  0.03676014014951081  0.8221714178698606  0.23711512995897266  1.0000
  C   C3        1.0  0.8227299659750288  0.0363903175730941  0.7372833791326627  1.0000
  C   C4        1.0  0.9636145490261256  0.1772687460219872  0.7627162425210444  1.0000
  C   C5        1.0  0.27913049557719205  0.9491394283523322  0.27051932470777024  1.0000
  C   C6        1.0  0.0508511422854809  0.7208777045795571  0.22948370238549393  1.0000
  C   C7        1.0  0.7212575700889232  0.0508148437313807  0.7295794386301041  1.0000
  C   C8        1.0  0.9491841208123332  0.2787548770461827  0.7704125573143943  1.0000
  C   C9        1.0  0.33641122800638357  0.9554927823891506  0.21617117503586775  1.0000
  C   C10       1.0  0.0444912272670237  0.6635900400532507  0.28382918247152844  1.0000
  C   C11       1.0  0.6639630775376872  0.044395028911594574  0.7839044681717342  1.0000
  C   C12       1.0  0.955614844291546  0.3360391524091284  0.7160880072981471  1.0000
  C   C13       1.0  0.4302482700438405  0.9434998990327658  0.22354619841337353  1.0000
  C   C14       1.0  0.0564899245563737  0.5697509351161615  0.2764509729061331  1.0000
  C   C15       1.0  0.5700978576965384  0.056520489557968276  0.7765202161502317  1.0000
  C   C16       1.0  0.9434843809454492  0.429896064091963  0.7234813077833735  1.0000
  C   C17       1.0  0.31754677479224813  0.9320629449434678  0.3324147301337206  1.0000
  C   C18       1.0  0.0679314086699208  0.6824634772391891  0.16758744937300926  1.0000
  C   C19       1.0  0.6827389705345582  0.06813349780547641  0.6676960695527826  1.0000
  C   C20       1.0  0.9318791685895248  0.31725367486441064  0.83230260088898  1.0000
  C   C21       1.0  0.4118941041338999  0.9190091319943575  0.34025207856096545  1.0000
  C   C22       1.0  0.0809948998901575  0.5881059733550702  0.15974715123392266  1.0000
  C   C23       1.0  0.5883824581364436  0.08122598572489195  0.6598575561576113  1.0000
  C   C24       1.0  0.9187748375771677  0.41160725482951926  0.8401478240201996  1.0000
  C   C25       1.0  0.4685467652953649  0.9235532724286343  0.2851815272930551  1.0000
  C   C26       1.0  0.07643663149659828  0.5314538466345908  0.21481891233221256  1.0000
  C   C27       1.0  0.5317681976684198  0.07656994056093687  0.7149080018866557  1.0000
  C   C28       1.0  0.9234350328297012  0.4682251449752997  0.7850979464615978  1.0000
  C   C29       1.0  0.6315821416244846  0.8465846451452138  0.3247641643990704  1.0000
  C   C30       1.0  0.15340601587966768  0.36842747561200184  0.17523847538242177  1.0000
  C   C31       1.0  0.36867139397151755  0.15349831855382942  0.6753528454727019  1.0000
  C   C32       1.0  0.8464857908932544  0.6313258689715583  0.824653241638572  1.0000
  C   C33       1.0  0.6270469222566389  0.7625246077450002  0.3519297757620237  1.0000
  C   C34       1.0  0.23747393749257378  0.3729509999837859  0.14807641442647682  1.0000
  C   C35       1.0  0.37310871786599625  0.23762298423338277  0.6481949064704509  1.0000
  C   C36       1.0  0.7623681450167511  0.6268877200541354  0.8517997478485597  1.0000
  C   C37       1.0  0.7909408915906296  0.8926252586090301  0.5069560402572577  1.0000
  C   C38       1.0  0.10736855996910322  0.20909049829182183  0.993044900446286  1.0000
  C   C39       1.0  0.2092367943409101  0.10755502822078714  0.4930062385238472  1.0000
  C   C40       1.0  0.8924445368892933  0.7907629702966759  0.006989947208374827  1.0000
  C   C41       1.0  0.8175665549068685  0.049887243212346125  0.242539485809779  1.0000
  C   C42       1.0  0.9501257875153611  0.18243538551637065  0.2574602248977484  1.0000
  C   C43       1.0  0.1820782269929992  0.9501260113875387  0.7575621911240163  1.0000
  C   C44       1.0  0.049874263626371415  0.8179163661483956  0.7424370154966626  1.0000
  C   C45       1.0  0.7937920514680812  0.7902315620423009  0.36218327595788946  1.0000
  C   C46       1.0  0.20976633400621136  0.2062085420961921  0.1378159280377531  1.0000
  C   C47       1.0  0.20647080162873266  0.20974793501621042  0.6379172045577804  1.0000
  C   C48       1.0  0.7902456534517698  0.7935264186573503  0.8620778452091077  1.0000
  C   C49       1.0  0.8738412779800414  0.6306215555632237  0.42562401695968083  1.0000
  C   C50       1.0  0.3693723494162882  0.12616164842330588  0.0743838379803137  1.0000
  C   C51       1.0  0.1262946695934062  0.3693338948102394  0.5745081529300649  1.0000
  C   C52       1.0  0.6306595286044472  0.873699435460409  0.9254993480157483  1.0000
  C   C53       1.0  0.11915512199136911  0.4045206514531969  0.4095098345146583  1.0000
  C   C54       1.0  0.5954768339866803  0.8808518269090655  0.09049649427765873  1.0000
  C   C55       1.0  0.8808204855094958  0.5955121179789554  0.590517521414654  1.0000
  C   C56       1.0  0.4044852875487379  0.11916959811144069  0.9094765531674087  1.0000
  C   C57       1.0  0.710996079775235  0.08346418548034515  0.24156965540568365  1.0000
  C   C58       1.0  0.916532102110537  0.289009475331227  0.2584328201252575  1.0000
  C   C59       1.0  0.2887262949139853  0.9168535145650621  0.758408464418963  1.0000
  C   C60       1.0  0.08313917803358349  0.7112694019335493  0.7415953702443261  1.0000
  C   C61       1.0  0.2720444237072641  0.19303129636646335  0.3041097146510907  1.0000
  C   C62       1.0  0.806973972237671  0.7279516327240643  0.19588831187993352  1.0000
  C   C63       1.0  0.7278205851378486  0.8070570696034667  0.6958780968840587  1.0000
  C   C64       1.0  0.19293878455170702  0.27216843145082237  0.8041202414770369  1.0000
  C   C65       1.0  0.5679835156860165  0.11017560100130915  0.18479650741129217  1.0000
  C   C66       1.0  0.8898107900773411  0.4320178494505526  0.3152121964695453  1.0000
  C   C67       1.0  0.43180256618970253  0.8901204204025459  0.8151235648800609  1.0000
  C   C68       1.0  0.10987197239003879  0.568195691293454  0.6848809989112469  1.0000
  C   C69       1.0  0.34652952114436186  0.21796518587023433  0.2823860058155532  1.0000
  C   C70       1.0  0.7820301033106318  0.6534777186727894  0.21762112252326926  1.0000
  C   C71       1.0  0.6532787159170114  0.7821825774409985  0.7175299791810305  1.0000
  C   C72       1.0  0.217823048661387  0.34670803608632644  0.7824679724098403  1.0000
  C   C73       1.0  0.19684476711928056  0.2550973856434381  0.3441891577196898  1.0000
  C   C74       1.0  0.7449065176923141  0.803149419639112  0.155807688165531  1.0000
  C   C75       1.0  0.8030689631139297  0.7449557393652882  0.6558269592640827  1.0000
  C   C76       1.0  0.2550443439539762  0.1969220796097703  0.8441685161945998  1.0000
  C   C77       1.0  0.1962476013173458  0.34113959917286246  0.36330917035007104  1.0000
  C   C78       1.0  0.6588681777823026  0.8037479485433753  0.13668937766311737  1.0000
  C   C79       1.0  0.8036274396278601  0.6589576348628655  0.6366296362735114  1.0000
  C   C80       1.0  0.3410375190888786  0.19637040362130165  0.8633680985176255  1.0000
  C   C81       1.0  0.7902086595054456  0.7060988475449222  0.3903855726373636  1.0000
  C   C82       1.0  0.2939048294807947  0.20979115951029575  0.10961571934818441  1.0000
  C   C83       1.0  0.20998523694277793  0.2939179844399291  0.60971958226326  1.0000
  C   C84       1.0  0.706071939790796  0.7900129858979882  0.890272279811036  1.0000
  C   C85       1.0  0.6534743388740695  0.11377836327969251  0.29907844982566445  1.0000
  C   C86       1.0  0.8862150305230471  0.3465288798193741  0.20092486101572862  1.0000
  C   C87       1.0  0.3462281530715075  0.8866179171332292  0.7008837950367737  1.0000
  C   C88       1.0  0.11338427670463597  0.6537665829877143  0.7991204722236702  1.0000
  C   C89       1.0  0.6670650727660644  0.08268299768401736  0.18452075404768925  1.0000
  C   C90       1.0  0.9173237385042795  0.33293680479010146  0.31548282451750964  1.0000
  C   C91       1.0  0.33270130240567397  0.9176885542003249  0.8154233184510674  1.0000
  C   C92       1.0  0.08230358030497338  0.6672927762084839  0.6845801248694274  1.0000
  C   C93       1.0  0.7150972613044928  0.8602536701440753  0.32974214878846203  1.0000
  C   C94       1.0  0.1397428676223029  0.28490896885449507  0.17025982092175704  1.0000
  C   C95       1.0  0.28520425203834066  0.1397384665278026  0.6703414174684853  1.0000
  C   C96       1.0  0.8602463013025029  0.7147867171679749  0.8296524388255195  1.0000
  C   C97       1.0  0.8916756068538447  0.9477498353750917  0.4360101035796405  1.0000
  C   C98       1.0  0.0522507320732402  0.10834184698286721  0.06398368894095091  1.0000
  C   C99       1.0  0.10849611998397529  0.05223489530566644  0.5637953847375883  1.0000
  C   C100      1.0  0.9477657658630606  0.8915048018493649  0.9361995071622928  1.0000
  C   C101      1.0  0.3453798749084314  0.3052067415150648  0.2991019907070651  1.0000
  C   C102      1.0  0.6947853118122396  0.6546296510633667  0.20090767122115955  1.0000
  C   C103      1.0  0.6543430308640977  0.6950296215167101  0.7006723893630067  1.0000
  C   C104      1.0  0.30496579322948497  0.345655552386468  0.7993249285740519  1.0000
  C   C105      1.0  0.7063551564121225  0.6931592785796071  0.3845526833691224  1.0000
  C   C106      1.0  0.30683990586574333  0.2936454627328472  0.11545515853345023  1.0000
  C   C107      1.0  0.2937724107119877  0.30694339831122613  0.6155693001286907  1.0000
  C   C108      1.0  0.6930592887385104  0.7062142053615119  0.8844355268734178  1.0000
  C   C109      1.0  0.27048289357703237  0.3660973431653646  0.3398627697844319  1.0000
  C   C110      1.0  0.6338926149284988  0.7295239586713081  0.16014724926971988  1.0000
  C   C111      1.0  0.7292808395973936  0.6341119617376306  0.6599524919738898  1.0000
  C   C112      1.0  0.36588853468418153  0.2707161799032319  0.8400396955262721  1.0000
  C   C113      1.0  0.5123289509449195  0.1384331872740674  0.24269753960663118  1.0000
  C   C114      1.0  0.8615618787644196  0.4876736116853095  0.2573058248191061  1.0000
  C   C115      1.0  0.48744840521585797  0.8618609129115596  0.7572303929453953  1.0000
  C   C116      1.0  0.1381333081527458  0.5125531983505953  0.7427723726316345  1.0000
  C   C117      1.0  0.5542792898359323  0.14126086742385266  0.30014910781487464  1.0000
  C   C118      1.0  0.8587128767330442  0.44572656407491706  0.1998620194257938  1.0000
  C   C119      1.0  0.44542957945146366  0.8591258797655428  0.699791034692048  1.0000
  C   C120      1.0  0.14087559364541144  0.5545654384333929  0.8002088138229341  1.0000
  C   C121      1.0  0.9398511359461565  0.8903263406111324  0.5475315712564068  1.0000
  C   C122      1.0  0.10968881851851363  0.06017790943373309  0.952464331826164  1.0000
  C   C123      1.0  0.060458110552268386  0.10970543634068974  0.45228732716890363  1.0000
  C   C124      1.0  0.8903113138894909  0.9395370153357445  0.04771406929405944  1.0000
  C   C125      1.0  0.1373711960201902  0.6985852385779766  0.4752617610675358  1.0000
  C   C126      1.0  0.3014103964781256  0.8626299169574025  0.024734041852283895  1.0000
  C   C127      1.0  0.8628078370241212  0.3012730554958053  0.5247436341757279  1.0000
  C   C128      1.0  0.6987129359501267  0.13720480303200588  0.9752515706316203  1.0000
  C   C129      1.0  0.21708062384536217  0.7427322698092954  0.5557990169332216  1.0000
  C   C130      1.0  0.25724241839828466  0.7829319749633329  0.9442023895380345  1.0000
  C   C131      1.0  0.7829096246912215  0.2574300201522561  0.44418346842168427  1.0000
  C   C132      1.0  0.7425668113611508  0.21709080034706565  0.055815456963316  1.0000
  C   C133      1.0  0.19863822987159813  0.8175173756382037  0.4433190893516469  1.0000
  C   C134      1.0  0.1824713520296157  0.8013842562397359  0.05668078622265681  1.0000
  C   C135      1.0  0.8013322260629251  0.18249073948474875  0.5565917587200957  1.0000
  C   C136      1.0  0.8175149111535022  0.19866703793447013  0.9434069311159591  1.0000
  N   N1        1.0  0.8735989448158249  0.9146160325513506  0.4948360177970771  1.0000
  N   N2        1.0  0.08539056112683602  0.12642451596430251  0.005160966333683306  1.0000
  N   N3        1.0  0.1266443636103602  0.08544802297704733  0.5050157596820526  1.0000
  N   N4        1.0  0.9145537485631507  0.8733535755757561  0.9949836058574706  1.0000
  N   N5        1.0  0.1843028375812779  0.7497952877170065  0.4902596461683118  1.0000
  N   N6        1.0  0.2501919256824152  0.8157129291182772  0.0097372640540101  1.0000
  N   N7        1.0  0.8157611913367049  0.25020801127076464  0.5097062942336095  1.0000
  N   N8        1.0  0.749791839825825  0.1842431242395151  0.9902915042769393  1.0000
  O   O1        1.0  0.1294977807067426  0.958928224498777  0.3151916350086098  1.0000
  O   O2        1.0  0.041063173037649406  0.8705110669829423  0.18480802553595055  1.0000
  O   O3        1.0  0.8705160185471145  0.0418711453677715  0.6850052688602306  1.0000
  O   O4        1.0  0.9581249965598673  0.12948780040650826  0.8149954955875817  1.0000
  O   O5        1.0  0.1467062226346911  0.9791048110855981  0.20546166886289546  1.0000
  O   O6        1.0  0.020890381258382704  0.8532940116791748  0.2945314826114114  1.0000
  O   O7        1.0  0.8540380028407314  0.019112691297557827  0.7946435919373018  1.0000
  O   O8        1.0  0.9808802620289115  0.14596594862159407  0.7053520116895273  1.0000
  O   O9        1.0  0.560513550427828  0.9174511213019727  0.288193659764822  1.0000
  O   O10       1.0  0.0825429209852615  0.4394894414078507  0.21180538137851815  1.0000
  O   O11       1.0  0.4398122566217495  0.08265684839476246  0.7119009586536151  1.0000
  O   O12       1.0  0.9173396633555128  0.5601982553119388  0.7880943972526852  1.0000
  O   O13       1.0  0.12424408670533889  0.481026604597055  0.4255997110540051  1.0000
  O   O14       1.0  0.5189759660799211  0.8757574404709558  0.07440135656355551  1.0000
  O   O15       1.0  0.8757896429478363  0.5189479515347133  0.5744760821944084  1.0000
  O   O16       1.0  0.48104235751029734  0.12420595282772952  0.9255277198087842  1.0000
  O   O17       1.0  0.8689409876998867  0.551189150206099  0.4424269706884019  1.0000
  O   O18       1.0  0.44880502536493333  0.1310572399241892  0.0575776919995974  1.0000
  O   O19       1.0  0.13115920586334076  0.44877494505785626  0.5576868580403698  1.0000
  O   O20       1.0  0.5512125642829133  0.8688350921857549  0.9423156849683069  1.0000
  O   O21       1.0  0.8530573372400525  0.03248037556959104  0.2989760686933423  1.0000
  O   O22       1.0  0.967539109938052  0.14693633323599897  0.20102419261648663  1.0000
  O   O23       1.0  0.14705617731343779  0.9656827955006195  0.7010735440312459  1.0000
  O   O24       1.0  0.0343183217444363  0.8529340422020437  0.7989297683409903  1.0000
  O   O25       1.0  0.9635764412944781  0.9638396872276475  0.4204898916154108  1.0000
  O   O26       1.0  0.0361640314434908  0.0364413683403058  0.07949882438452252  1.0000
  O   O27       1.0  0.03663762484126921  0.036032707088168095  0.5792090856140393  1.0000
  O   O28       1.0  0.9639715681310007  0.963367273232599  0.9207926837093938  1.0000
  O   O29       1.0  0.865878660462023  0.04009134016866523  0.18837989280987702  1.0000
  O   O30       1.0  0.9599220840347797  0.13411972863392654  0.31161947147683133  1.0000
  O   O31       1.0  0.13399664412253287  0.9611777209110957  0.811822221225917  1.0000
  O   O32       1.0  0.0388163835266511  0.8660002043239459  0.6881806339929497  1.0000
  O   O33       1.0  0.9437826790714113  0.6502974638796385  0.43736689592603284  1.0000
  O   O34       1.0  0.3497057990974213  0.056220753310000836  0.06263020312913173  1.0000
  O   O35       1.0  0.0563669722377327  0.34964010865802925  0.5627630857726444  1.0000
  O   O36       1.0  0.6503529165075365  0.94363279967407  0.9372364048246598  1.0000
  O   O37       1.0  0.05419109596626011  0.37746033039859134  0.43008237813420896  1.0000
  O   O38       1.0  0.6225382065020001  0.9458087428272248  0.06991414394629202  1.0000
  O   O39       1.0  0.9458479566324486  0.6225225154047964  0.5700241348121864  1.0000
  O   O40       1.0  0.3774791068574928  0.05414436783899393  0.929974880866503  1.0000
  O   O41       1.0  0.11950477267900787  0.6428305098060533  0.5148289325194995  1.0000
  O   O42       1.0  0.3571741239902479  0.8804889277789201  0.9851670113545339  1.0000
  O   O43       1.0  0.8807430677716753  0.3570313537670274  0.4852237532903985  1.0000
  O   O44       1.0  0.6429512999088658  0.11927141702570761  0.014769852336087297  1.0000
  O   O45       1.0  0.4165854442897015  0.1557841616768059  0.24042313588150685  1.0000
  O   O46       1.0  0.8441967102662388  0.5834182801124469  0.25958442294208345  1.0000
  O   O47       1.0  0.583229365803895  0.8443678134115725  0.7594883714035277  1.0000
  O   O48       1.0  0.1556331854066144  0.41677139649274864  0.740513986744759  1.0000
