data_image0
_chemical_formula_structural       U2Ag4H36C68N8O20
_chemical_formula_sum              "U2 Ag4 H36 C68 N8 O20"
_cell_length_a       7.301467313927909
_cell_length_b       11.788695495346252
_cell_length_c       18.41858048829175
_cell_angle_alpha    106.15572486881508
_cell_angle_beta     89.99857260479106
_cell_angle_gamma    108.05590005377127

_space_group_name_H-M_alt    "P 1"
_space_group_IT_number       1

loop_
  _space_group_symop_operation_xyz
  'x, y, z'

loop_
  _atom_site_type_symbol
  _atom_site_label
  _atom_site_symmetry_multiplicity
  _atom_site_fract_x
  _atom_site_fract_y
  _atom_site_fract_z
  _atom_site_occupancy
  U   U1        1.0  0.5177993623717255  3.185171969020005e-05  0.7499866824728656  1.0000
  U   U2        1.0  0.4821980564198114  0.9999672531270107  0.2500144754215086  1.0000
  Ag  Ag1       1.0  0.22422590508756457  0.2125526282836319  0.8418604898293722  1.0000
  Ag  Ag2       1.0  0.011943405530558823  0.7873902937278743  0.6582763270841525  1.0000
  Ag  Ag3       1.0  0.7757707667542845  0.7874467665503033  0.1581404112894873  1.0000
  Ag  Ag4       1.0  0.9880514299368741  0.2126081679158958  0.3417244071026531  1.0000
  H   H1        1.0  0.05542227698047953  0.23074578629926634  0.012165535444893311  1.0000
  H   H2        1.0  0.8244024479524299  0.7690713456603647  0.4879603514162625  1.0000
  H   H3        1.0  0.9445817695410312  0.7692601377545356  0.9878376195304098  1.0000
  H   H4        1.0  0.17560153954312338  0.23092898418571642  0.5120401740024505  1.0000
  H   H5        1.0  0.05082157050197369  0.3919892752859155  0.1314072139914018  1.0000
  H   H6        1.0  0.6589352927143324  0.607747101779772  0.3686388459226109  1.0000
  H   H7        1.0  0.9491829752311814  0.6080203847307574  0.8685949805278881  1.0000
  H   H8        1.0  0.3410677918469389  0.3922541609901559  0.6313618463943201  1.0000
  H   H9        1.0  0.19258035430710416  0.6203945187615006  0.1370972173202318  1.0000
  H   H10       1.0  0.572136033681275  0.3793788698396695  0.3629779898116325  1.0000
  H   H11       1.0  0.8074260025898995  0.379613285722158  0.8629003018036412  1.0000
  H   H12       1.0  0.42786431223321125  0.6206223939532692  0.6370221597715826  1.0000
  H   H13       1.0  0.5978186758074101  0.7546046152863682  0.8275158232283459  1.0000
  H   H14       1.0  0.8433166336741849  0.24526431134203355  0.6725501054857118  1.0000
  H   H15       1.0  0.402192133425487  0.24539292392366724  0.1724809453472389  1.0000
  H   H16       1.0  0.15668321501438953  0.7547332203560444  0.32744937645388456  1.0000
  H   H17       1.0  0.63346823064245  0.5788401423787021  0.7224913852314074  1.0000
  H   H18       1.0  0.054423081739258715  0.4211009717622927  0.7776460893560965  1.0000
  H   H19       1.0  0.3665402416805819  0.4211527250996241  0.2775072622678749  1.0000
  H   H20       1.0  0.9455735595967383  0.5788956240337839  0.2223543110342803  1.0000
  H   H21       1.0  0.48933530211443355  0.3584459381817524  0.7310183558437514  1.0000
  H   H22       1.0  0.1303773132653419  0.6414912033979618  0.7691790169606206  1.0000
  H   H23       1.0  0.5106700232057976  0.6415515901809599  0.2689827542631491  1.0000
  H   H24       1.0  0.8696184238125539  0.35850632274328825  0.23082263572771916  1.0000
  H   H25       1.0  0.3503526181406684  0.7770076648490515  0.07151710177718229  1.0000
  H   H26       1.0  0.5735559212443988  0.22277291583508677  0.4285113547502205  1.0000
  H   H27       1.0  0.6496528079638466  0.22299827867792738  0.9284779127169286  1.0000
  H   H28       1.0  0.4264439592738469  0.7772274174795157  0.5714875425181134  1.0000
  H   H29       1.0  0.49065880452559446  0.8268049011138318  0.9566190872982503  1.0000
  H   H30       1.0  0.663904471250234  0.17302122583278387  0.5434449724965589  1.0000
  H   H31       1.0  0.5093474635015127  0.17319451141357692  0.0433747588406845  1.0000
  H   H32       1.0  0.3360967484165157  0.826976308577123  0.4565534240602176  1.0000
  H   H33       1.0  0.3151480788868852  0.9656520739045079  0.9726535295041998  1.0000
  H   H34       1.0  0.3493821101228818  0.033864501527062905  0.5272452365993843  1.0000
  H   H35       1.0  0.6848467579043743  0.034346390317928396  0.027346119282860595  1.0000
  H   H36       1.0  0.650609021427975  0.9661292934091745  0.47275520569470325  1.0000
  C   C1        1.0  0.11784861425675065  0.32932679249159236  0.016276828904423706  1.0000
  C   C2        1.0  0.7885820035044944  0.6704772080643906  0.48378630946796625  1.0000
  C   C3        1.0  0.8821544994865391  0.6706772667375275  0.9837254495407349  1.0000
  C   C4        1.0  0.2114219839910589  0.3295231217816905  0.5162142159507468  1.0000
  C   C5        1.0  0.11409871880508854  0.4210684409634807  0.0834104535606741  1.0000
  C   C6        1.0  0.6932330646031557  0.5787035533287648  0.4166387716401942  1.0000
  C   C7        1.0  0.8859058289137989  0.5789412229211948  0.9165901128589978  1.0000
  C   C8        1.0  0.3067709228923973  0.42129677651731606  0.5833617537785187  1.0000
  C   C9        1.0  0.19114175639928993  0.5452672164289326  0.08638745780039161  1.0000
  C   C10       1.0  0.6459988083310577  0.4545151387442701  0.4136640135973622  1.0000
  C   C11       1.0  0.8088645985119811  0.45474058418672303  0.9136116894230993  1.0000
  C   C12       1.0  0.3540042768921197  0.5454861253149944  0.586336136019689  1.0000
  C   C13       1.0  0.27425131692182  0.5765181957937173  0.022403249512258618  1.0000
  C   C14       1.0  0.6978413170552072  0.42328007102426574  0.47765364584947184  1.0000
  C   C15       1.0  0.7257531717711031  0.4234858738832372  0.9775946873508232  1.0000
  C   C16       1.0  0.302159931131648  0.5767202585554968  0.5223468795354052  1.0000
  C   C17       1.0  0.2758608734801626  0.47728840645778786  0.9576256292223704  1.0000
  C   C18       1.0  0.7987659459025664  0.5225477354131057  0.5424156502164124  1.0000
  C   C19       1.0  0.7241422124049279  0.5227128588908059  0.04237397769480818  1.0000
  C   C20       1.0  0.20123894452726887  0.47745166150912866  0.4575847083040827  1.0000
  C   C21       1.0  0.3692166149684013  0.5069463915429253  0.8927417962167894  1.0000
  C   C22       1.0  0.862210855318132  0.49289928589499965  0.6073470908834793  1.0000
  C   C23       1.0  0.6307887441672264  0.4930539423043215  0.1072571011192238  1.0000
  C   C24       1.0  0.1377917326791404  0.5070982460693968  0.39265239108995326  1.0000
  C   C25       1.0  0.4456329026631279  0.6339853911014329  0.8933933457822929  1.0000
  C   C26       1.0  0.8114808848989765  0.36584873429454484  0.606716148370566  1.0000
  C   C27       1.0  0.5543724584582321  0.3660149466138165  0.1066039234541023  1.0000
  C   C28       1.0  0.1885203327820406  0.6341487962473522  0.3932838762858282  1.0000
  C   C29       1.0  0.5390470783218504  0.658875637468917  0.8296442654404572  1.0000
  C   C30       1.0  0.880095252521947  0.3409957515469769  0.6704493611395677  1.0000
  C   C31       1.0  0.46096096109651097  0.3411191024369272  0.17035200237280176  1.0000
  C   C32       1.0  0.11990596515906295  0.6590017789949201  0.3295506635168266  1.0000
  C   C33       1.0  0.5571532767462486  0.5612757264110826  0.7710376882345924  1.0000
  C   C34       1.0  0.995692672942404  0.4386347072533638  0.7290953681152672  1.0000
  C   C35       1.0  0.4428483764870704  0.43871993686062166  0.22896254530832746  1.0000
  C   C36       1.0  0.0043067070403779275  0.5613618875197021  0.2709055750088183  1.0000
  C   C37       1.0  0.4780857614036833  0.4387690594777779  0.7755105381966131  1.0000
  C   C38       1.0  0.038998368570545866  0.5611274129290607  0.7246388136579114  1.0000
  C   C39       1.0  0.5219195353964352  0.5612256737150716  0.22448844308217988  1.0000
  C   C40       1.0  0.960999641757887  0.4388691817108352  0.27536212944926314  1.0000
  C   C41       1.0  0.35387826932274896  0.703114213040884  0.021058991658144142  1.0000
  C   C42       1.0  0.6507765728640464  0.2966927879652276  0.47901178949169315  1.0000
  C   C43       1.0  0.6461275903483497  0.2968898593478997  0.9789378598221178  1.0000
  C   C44       1.0  0.349225578919004  0.703306609980018  0.5209880262950932  1.0000
  C   C45       1.0  0.43244381568581486  0.7307073750623301  0.9583151178557755  1.0000
  C   C46       1.0  0.7016577284766753  0.2691185718438192  0.5417729017927967  1.0000
  C   C47       1.0  0.5675633824718672  0.26929389713242813  0.0416817756127941  1.0000
  C   C48       1.0  0.2983407512194631  0.7308789610104327  0.45822603743000906  1.0000
  C   C49       1.0  0.054928110985819956  0.9775930138322976  0.9251313097208679  1.0000
  C   C50       1.0  0.07740679270523998  0.02240643345599839  0.5748576067461002  1.0000
  C   C51       1.0  0.9450667264673455  0.0224054516794752  0.0748677963663198  1.0000
  C   C52       1.0  0.9225880115944419  0.9775892278605766  0.4251431694120953  1.0000
  C   C53       1.0  0.8768025317507548  0.9973157483233024  0.9411710638894847  1.0000
  C   C54       1.0  0.8795854366602781  0.002889121233103299  0.5588697626608193  1.0000
  C   C55       1.0  0.1231895637460809  0.0026827117648125  0.05883021296335761  1.0000
  C   C56       1.0  0.12040796615539047  0.9971037383337773  0.44113159815172054  1.0000
  C   C57       1.0  0.17771666039370612  0.9818972268846836  0.9846587980338626  1.0000
  C   C58       1.0  0.19578036348116265  0.0178961329764533  0.5152974647559034  1.0000
  C   C59       1.0  0.822275902485103  0.0181021675497703  0.015342103034242898  1.0000
  C   C60       1.0  0.8042144103126673  0.9820967293022561  0.4847028106738165  1.0000
  C   C61       1.0  0.10991562597882171  0.9390502428382064  0.8450750218608647  1.0000
  C   C62       1.0  0.17107980730158798  0.06088622533331289  0.6548986213037509  1.0000
  C   C63       1.0  0.890080144914478  0.0609500887875853  0.1549244180565879  1.0000
  C   C64       1.0  0.8289127555772212  0.9391131691011413  0.3451022797643546  1.0000
  C   C65       1.0  0.7515788151162253  0.0046598532740205  0.8801096115291144  1.0000
  C   C66       1.0  0.7470044256310473  0.9956263964735044  0.6199128679851357  1.0000
  C   C67       1.0  0.2484165175771196  0.9953423404646173  0.1198917903013097  1.0000
  C   C68       1.0  0.2529917794907348  0.004372065303421399  0.380087866218588  1.0000
  N   N1        1.0  0.1951581813126424  0.3556932861607578  0.9551247351208331  1.0000
  N   N2        1.0  0.8397334081695647  0.6441221893269216  0.5449168480069488  1.0000
  N   N3        1.0  0.80484446769632  0.6443098438793626  0.0448757483095648  1.0000
  N   N4        1.0  0.16027148226027074  0.35587720759531294  0.4550835105135532  1.0000
  N   N5        1.0  0.38547215526883594  0.41268069287082904  0.8340264292675881  1.0000
  N   N6        1.0  0.9726217876076221  0.5871735015688415  0.6660910325754088  1.0000
  N   N7        1.0  0.6145299945284818  0.5873187012064136  0.16597501461882297  1.0000
  N   N8        1.0  0.027380363513522358  0.4128258950870674  0.33390932591125017  1.0000
  O   O1        1.0  0.2599405568282194  0.0189051253909369  0.8287208658729099  1.0000
  O   O2        1.0  0.24117405245495865  0.9809363140692683  0.671151599627926  1.0000
  O   O3        1.0  0.7400552120793478  0.9810952023668449  0.17128020214416037  1.0000
  O   O4        1.0  0.7588253885395133  0.0190658787795144  0.3288503449531319  1.0000
  O   O5        1.0  0.017795400307179188  0.833671367356722  0.8027552147270853  1.0000
  O   O6        1.0  0.1844089091329835  0.16618821849414897  0.6972805391364787  1.0000
  O   O7        1.0  0.9821948614628866  0.1663261646985603  0.19724372439421234  1.0000
  O   O8        1.0  0.815584558003927  0.8338102455951244  0.3027191096336637  1.0000
  O   O9        1.0  0.8298327802853719  0.03870331109327199  0.824294962421014  1.0000
  O   O10       1.0  0.7912970641802276  0.9618512751093959  0.6758405976495679  1.0000
  O   O11       1.0  0.17016305095770434  0.9613026173188999  0.1757060216532764  1.0000
  O   O12       1.0  0.20869549737475518  0.0381481167463846  0.3241613888182826  1.0000
  O   O13       1.0  0.5690408752274652  0.978463139863955  0.8832327805273364  1.0000
  O   O14       1.0  0.5905125051369707  0.021553293895273405  0.6166883033495267  1.0000
  O   O15       1.0  0.43095262241529053  0.0215381232631842  0.1167673689712885  1.0000
  O   O16       1.0  0.4094883061737562  0.9784489003760086  0.38331309854856954  1.0000
  O   O17       1.0  0.601847959573952  0.1693686425312606  0.7771065609710845  1.0000
  O   O18       1.0  0.4326474939944874  0.8306542659713331  0.7228277129745067  1.0000
  O   O19       1.0  0.3981533807923583  0.8306400854514208  0.22289492389936777  1.0000
  O   O20       1.0  0.5673524137200445  0.16934885993445897  0.2771743985216801  1.0000
