data_image0
_chemical_formula_structural       Ag4H12C12S4N8O12
_chemical_formula_sum              "Ag4 H12 C12 S4 N8 O12"
_cell_length_a       5.41287025600874
_cell_length_b       7.662427422091954
_cell_length_c       14.054196075758089
_cell_angle_alpha    89.64355501558201
_cell_angle_beta     90.00018973288108
_cell_angle_gamma    90.00006241604098

_space_group_name_H-M_alt    "P 1"
_space_group_IT_number       1

loop_
  _space_group_symop_operation_xyz
  'x, y, z'

loop_
  _atom_site_type_symbol
  _atom_site_label
  _atom_site_symmetry_multiplicity
  _atom_site_fract_x
  _atom_site_fract_y
  _atom_site_fract_z
  _atom_site_occupancy
  Ag  Ag1       1.0  1.0878103822e-06  2.590164882999999e-07  8.0756459866e-06  1.0000
  Ag  Ag2       1.0  0.500010290771165  7.794918992900218e-06  0.5000029204171454  1.0000
  Ag  Ag3       1.0  0.49999974994099017  0.49999430484445634  0.499999841384586  1.0000
  Ag  Ag4       1.0  0.9999897187653489  0.5000047517112094  0.9999992043289865  1.0000
  H   H1        1.0  0.5995163775360622  0.7754485531021654  0.9141825739510665  1.0000
  H   H2        1.0  0.0995209539449391  0.2245464296103847  0.5858145027903419  1.0000
  H   H3        1.0  0.4004775800495751  0.22455954897150576  0.08582422626135872  1.0000
  H   H4        1.0  0.9004914780692703  0.7754369681729756  0.41418446791014674  1.0000
  H   H5        1.0  0.5524296306213755  0.6324454062479105  0.7475317372600045  1.0000
  H   H6        1.0  0.052385970851020106  0.3675625563345903  0.7524695459136909  1.0000
  H   H7        1.0  0.4476012759662211  0.36758094169484684  0.2524771994762958  1.0000
  H   H8        1.0  0.94759505452857  0.6324221715996289  0.24752729026344164  1.0000
  H   H9        1.0  0.24519381713836452  0.9127571107261544  0.7823013473737177  1.0000
  H   H10       1.0  0.7451769336676435  0.0872366056151819  0.7176980622802063  1.0000
  H   H11       1.0  0.7548223097859859  0.087235414170145  0.21769833580612644  1.0000
  H   H12       1.0  0.2548521254457228  0.9127819620993377  0.2823066043859725  1.0000
  C   C1        1.0  0.7084135948261192  0.7095757906555706  0.7708969158555163  1.0000
  C   C2        1.0  0.20839174957758644  0.2904153914390548  0.729094616435674  1.0000
  C   C3        1.0  0.29159144739197274  0.29042725005111686  0.2290963644764616  1.0000
  C   C4        1.0  0.7915874283660999  0.7095758451077927  0.270903643495835  1.0000
  C   C5        1.0  0.9289249305056445  0.7515227574003945  0.7248707300108563  1.0000
  C   C6        1.0  0.42893292159609325  0.24846838744885244  0.7751324873764602  1.0000
  C   C7        1.0  0.0710597897897571  0.2484736994193284  0.2751275304568921  1.0000
  C   C8        1.0  0.5710776630120264  0.7515305958796005  0.22487288882541634  1.0000
  C   C9        1.0  0.06371520350074178  0.8543027949962365  0.7894256627363632  1.0000
  C   C10       1.0  0.5637020850319061  0.14568312019268595  0.7105642488466231  1.0000
  C   C11       1.0  0.9362879912331864  0.14568333000679695  0.2105633465936734  1.0000
  C   C12       1.0  0.4363214316985235  0.854335556243207  0.28943116773042027  1.0000
  S   S1        1.0  0.0153019070551821  0.6769633887839605  0.6117722466245183  1.0000
  S   S2        1.0  0.5153146132531033  0.3230534254034651  0.8882517563891313  1.0000
  S   S3        1.0  0.98467542358744  0.32305883486141335  0.3882544783016471  1.0000
  S   S4        1.0  0.48468858161566436  0.6769624150836933  0.1117628716235899  1.0000
  N   N1        1.0  0.9326297774510124  0.8736770973619628  0.8696742404906884  1.0000
  N   N2        1.0  0.4326381912069621  0.126297300671979  0.6303104800419845  1.0000
  N   N3        1.0  0.06734755298296587  0.12630253574892686  0.1303119219760376  1.0000
  N   N4        1.0  0.5673945627214251  0.8736874690899513  0.3696827984452327  1.0000
  N   N5        1.0  0.717732552117063  0.7858357016812788  0.8566602102785268  1.0000
  N   N6        1.0  0.21774495603946784  0.21414119566069434  0.643325640904699  1.0000
  N   N7        1.0  0.28223923601345297  0.21414904297747478  0.1433352028022554  1.0000
  N   N8        1.0  0.7822619335506503  0.7858411228619885  0.35665411794313673  1.0000
  O   O1        1.0  0.2842775013921753  0.6457252375943766  0.6199947139066992  1.0000
  O   O2        1.0  0.7843179212932866  0.35426996820743994  0.8799905182541394  1.0000
  O   O3        1.0  0.7156647275538289  0.3542752347791023  0.3799950083911199  1.0000
  O   O4        1.0  0.21570374798420025  0.6457395560260861  0.120006320479888  1.0000
  O   O5        1.0  0.8711082633273152  0.5159452877126469  0.5987920396985587  1.0000
  O   O6        1.0  0.3710752846727489  0.4840838293186138  0.9011982949594639  1.0000
  O   O7        1.0  0.1289263381079735  0.4840877528360181  0.40120266680528266  1.0000
  O   O8        1.0  0.6289001983948879  0.5159322202443803  0.0987985444086874  1.0000
  O   O9        1.0  0.9570054883960494  0.8148891561253605  0.5422141347109317  1.0000
  O   O10       1.0  0.45697970201261034  0.1850875616329546  0.9577962348875035  1.0000
  O   O11       1.0  0.043010638536792094  0.18507454019092512  0.4577955071707436  1.0000
  O   O12       1.0  0.5429976285121967  0.8149022778495336  0.0422098519049428  1.0000
