data_image0
_chemical_formula_structural       Zn2H26C48N6O12
_chemical_formula_sum              "Zn2 H26 C48 N6 O12"
_cell_length_a       11.776318182249947
_cell_length_b       13.16651944204579
_cell_length_c       23.823841947045437
_cell_angle_alpha    89.61354677891879
_cell_angle_beta     86.55945668360883
_cell_angle_gamma    85.20179093972015

_space_group_name_H-M_alt    "P 1"
_space_group_IT_number       1

loop_
  _space_group_symop_operation_xyz
  'x, y, z'

loop_
  _atom_site_type_symbol
  _atom_site_label
  _atom_site_symmetry_multiplicity
  _atom_site_fract_x
  _atom_site_fract_y
  _atom_site_fract_z
  _atom_site_occupancy
  Zn  Zn1       1.0  0.6165065013177938  0.4996097667678896  0.4946299670360261  1.0000
  Zn  Zn2       1.0  0.38349188172593085  0.5003894506423804  0.5053668483302687  1.0000
  H   H1        1.0  0.4988699670717124  0.7546086308484589  0.9445562660102311  1.0000
  H   H2        1.0  0.49780141409473094  0.24373618541977043  0.9493296174112517  1.0000
  H   H3        1.0  0.6768298319609086  0.4397704559938021  0.2121114096652832  1.0000
  H   H4        1.0  0.32317631617988957  0.5602385292918867  0.7878885153970856  1.0000
  H   H5        1.0  0.6688698065835441  0.4454904660804218  0.3176568202179908  1.0000
  H   H6        1.0  0.331134119085597  0.5545253999556152  0.6823435753211272  1.0000
  H   H7        1.0  0.32738203575388525  0.5654754301496681  0.21615699373248995  1.0000
  H   H8        1.0  0.6726259756341763  0.4345426613910774  0.7838432772853211  1.0000
  H   H9        1.0  0.35981990665152364  0.18089034160598058  0.4933146358691687  1.0000
  H   H10       1.0  0.6401668991707085  0.8191044799903224  0.5066812690748321  1.0000
  H   H11       1.0  0.7230135227261557  0.17148386010813965  0.503216511877703  1.0000
  H   H12       1.0  0.5011287453600418  0.24539741101921922  0.055444722844178805  1.0000
  H   H13       1.0  0.2769779410678553  0.8285055419731292  0.49678388507258125  1.0000
  H   H14       1.0  0.263867478391262  0.018882348480154593  0.49267765252411516  1.0000
  H   H15       1.0  0.7361197278978368  0.9811071209402726  0.5073216099186553  1.0000
  H   H16       1.0  0.2972253539593765  0.5783928297435211  0.3687160497422682  1.0000
  H   H17       1.0  0.23912792761277052  0.6218614669783805  0.30600305040742637  1.0000
  H   H18       1.0  0.7027734041202507  0.4216238734360688  0.6312840758649898  1.0000
  H   H19       1.0  0.7608775899118286  0.3781559209877372  0.6939930977456044  1.0000
  H   H20       1.0  0.8168846288856174  0.3991901234845089  0.5458324071114262  1.0000
  H   H21       1.0  0.18310904650016374  0.6008038278533476  0.4541653969089979  1.0000
  H   H22       1.0  0.7714482389030696  0.6331606130678298  0.4304951220141078  1.0000
  H   H23       1.0  0.22855480468225414  0.3668332002754724  0.569503247004576  1.0000
  H   H24       1.0  0.018138684177138507  0.3427331896977819  0.5789520825468486  1.0000
  H   H25       1.0  0.9818640716297226  0.6572644362244872  0.4210458671498287  1.0000
  H   H26       1.0  0.5022013855244155  0.7562720907800794  0.050669567862478004  1.0000
  C   C1        1.0  0.4669477748852985  0.6994739470412624  0.5026036933216957  1.0000
  C   C2        1.0  0.6046538794157216  0.4597000941655693  0.701956015175739  1.0000
  C   C3        1.0  0.4020705353365345  0.5388908078699544  0.2387700955752976  1.0000
  C   C4        1.0  0.5979370277340763  0.4611219612935501  0.7612301997799449  1.0000
  C   C5        1.0  0.5019456690460942  0.5035276299981105  0.20909329183553643  1.0000
  C   C6        1.0  0.4980621241738633  0.49648208866084786  0.7909074229302817  1.0000
  C   C7        1.0  0.5397687966156896  0.18646592966099715  0.4984868595569552  1.0000
  C   C8        1.0  0.46021533584761454  0.8135304348603472  0.5015124785551208  1.0000
  C   C9        1.0  0.3460938959379619  0.9750221353864604  0.4958585271989122  1.0000
  C   C10       1.0  0.6538910302503567  0.024974976858722207  0.5041412058091694  1.0000
  C   C11       1.0  0.3528703323683046  0.8702456360011511  0.49790528272290413  1.0000
  C   C12       1.0  0.5330499289574037  0.30052299408258426  0.49739356650114536  1.0000
  C   C13       1.0  0.6471154440727959  0.12975145527286  0.5020961043871424  1.0000
  C   C14       1.0  0.5585050428758793  0.8637713524216933  0.5036380414428336  1.0000
  C   C15       1.0  0.4414826697269022  0.1362226795084069  0.4963607768090911  1.0000
  C   C16       1.0  0.49721511008811353  0.5069208780768052  0.3887962442200888  1.0000
  C   C17       1.0  0.50278945207112  0.4930866205886701  0.6112012119909025  1.0000
  C   C18       1.0  0.5542724366325658  0.9714082054558303  0.5020777387998123  1.0000
  C   C19       1.0  0.44570931355432464  0.028585909273381595  0.4979216739187677  1.0000
  C   C20       1.0  0.05143016062181973  0.40002505550165074  0.5506251587853157  1.0000
  C   C21       1.0  0.9485668607157932  0.5999695894739788  0.44937632337764205  1.0000
  C   C22       1.0  0.16640382171251392  0.41263215869136627  0.5458700093357436  1.0000
  C   C23       1.0  0.5997094555401504  0.4686431183527234  0.23635514000509522  1.0000
  C   C24       1.0  0.8335905890349339  0.587363298031022  0.4541290291989383  1.0000
  C   C25       1.0  0.142628001015126  0.5442732853440616  0.4804718978874831  1.0000
  C   C26       1.0  0.8573721419988659  0.4557251390837607  0.5195261267699678  1.0000
  C   C27       1.0  0.023214032741314825  0.5373165993073314  0.4818266553856958  1.0000
  C   C28       1.0  0.9767863936457175  0.46267798605912697  0.5181768257718602  1.0000
  C   C29       1.0  0.49571055696726063  0.40265729580035986  0.8796567937228943  1.0000
  C   C30       1.0  0.5042955904393055  0.5973516850716011  0.12034397086915762  1.0000
  C   C31       1.0  0.49778729121693044  0.593394230875802  0.8778169253359706  1.0000
  C   C32       1.0  0.5022127803511155  0.40661636797844386  0.12218233507566371  1.0000
  C   C33       1.0  0.49822207411799  0.5927171547162828  0.9401035471799943  1.0000
  C   C34       1.0  0.40029913213906104  0.5313673524438087  0.7636451301270456  1.0000
  C   C35       1.0  0.5017708480509954  0.4072866793135149  0.0598988754050538  1.0000
  C   C36       1.0  0.49897988318601  0.4995452451290419  0.9701314185149031  1.0000
  C   C37       1.0  0.5010155937796129  0.5004585502627562  0.029871348962785798  1.0000
  C   C38       1.0  0.4977796190728157  0.4054473949392588  0.9418630057043984  1.0000
  C   C39       1.0  0.5022182992668079  0.5945578969977063  0.0581380080188438  1.0000
  C   C40       1.0  0.4993424583815766  0.6841060074647916  0.9688278698179006  1.0000
  C   C41       1.0  0.5006541037587056  0.31589474514053956  0.0311715142293849  1.0000
  C   C42       1.0  0.501283119509239  0.6850304959813798  0.027716794426567007  1.0000
  C   C43       1.0  0.49871605322120877  0.3149694448771996  0.9722850332489941  1.0000
  C   C44       1.0  0.5945135619980846  0.4711641143844433  0.2946681868765992  1.0000
  C   C45       1.0  0.40549558962391785  0.5288501568473478  0.7053316389761265  1.0000
  C   C46       1.0  0.49460105938386795  0.5059511935747238  0.3264384893342935  1.0000
  C   C47       1.0  0.5054082654925979  0.49406079364067085  0.6735609164878937  1.0000
  C   C48       1.0  0.3953561242946578  0.540314167129381  0.2980433659547472  1.0000
  N   N1        1.0  0.49639950133181543  0.49751042668666673  0.8516644894468614  1.0000
  N   N2        1.0  0.5036001331657901  0.5024834219902843  0.1483364979904849  1.0000
  N   N3        1.0  0.7895853225110727  0.5157863955858487  0.48898734567718805  1.0000
  N   N4        1.0  0.21041158834084692  0.48420980222789467  0.5110086797199571  1.0000
  N   N5        1.0  0.2940073290480143  0.573307765012892  0.3262283155641157  1.0000
  N   N6        1.0  0.7059983595283371  0.4267073256956309  0.6737699311474189  1.0000
  O   O1        1.0  0.5664845912624942  0.652479648790255  0.5000103343215372  1.0000
  O   O2        1.0  0.5062877459190959  0.6770846406851305  0.1466318361252377  1.0000
  O   O3        1.0  0.49944042783550924  0.6720088929450795  0.8498573351860303  1.0000
  O   O4        1.0  0.5005599978172912  0.32798568800764377  0.150146985501209  1.0000
  O   O5        1.0  0.43351208907296285  0.34751959732116694  0.4999856914298846  1.0000
  O   O6        1.0  0.3731569511133587  0.6574575001558076  0.5057998947967378  1.0000
  O   O7        1.0  0.6268399615741488  0.3425387086922669  0.4941940317762032  1.0000
  O   O8        1.0  0.5945659959602452  0.4994598257635586  0.40989009626697037  1.0000
  O   O9        1.0  0.40543538872908885  0.5005446665584757  0.5901087187138927  1.0000
  O   O10       1.0  0.40152537039912073  0.5150699438377728  0.4180788191493079  1.0000
  O   O11       1.0  0.5984786861806769  0.4849329967317502  0.5819182417228461  1.0000
  O   O12       1.0  0.4937236408900534  0.32291133082372175  0.8533675428796528  1.0000
