data_image0
_chemical_formula_structural       Co4H28C52N4O16
_chemical_formula_sum              "Co4 H28 C52 N4 O16"
_cell_length_a       11.830691839299266
_cell_length_b       13.897802954223254
_cell_length_c       14.000875295346946
_cell_angle_alpha    90.00033506553561
_cell_angle_beta     115.25219247020264
_cell_angle_gamma    90.000364630508

_space_group_name_H-M_alt    "P 1"
_space_group_IT_number       1

loop_
  _space_group_symop_operation_xyz
  'x, y, z'

loop_
  _atom_site_type_symbol
  _atom_site_label
  _atom_site_symmetry_multiplicity
  _atom_site_fract_x
  _atom_site_fract_y
  _atom_site_fract_z
  _atom_site_occupancy
  Co  Co1       1.0  0.08907614011958738  0.5464205350734231  0.03761817837049359  1.0000
  Co  Co2       1.0  0.9108971477173213  0.04643061746106978  0.46235725122070204  1.0000
  Co  Co3       1.0  0.9108748864983267  0.45355687902638653  0.9623445593657536  1.0000
  Co  Co4       1.0  0.0890987531508856  0.9535705415818254  0.5376258563646132  1.0000
  H   H1        1.0  0.3408620732566447  0.4645394010492509  0.10038385030525632  1.0000
  H   H2        1.0  0.6591446068360938  0.9645597571000902  0.3996266881747488  1.0000
  H   H3        1.0  0.659134812205231  0.5354545626577334  0.8996138950404244  1.0000
  H   H4        1.0  0.340887857409875  0.03547378139722209  0.6004023801559697  1.0000
  H   H5        1.0  0.5630625936866025  0.5108395658145568  0.1523384371710819  1.0000
  H   H6        1.0  0.4369533573206965  0.010862211556485599  0.34768707566283297  1.0000
  H   H7        1.0  0.43694372005388254  0.48915655661248547  0.8476862576068954  1.0000
  H   H8        1.0  0.5630847043131766  0.9891742051063586  0.6523411419785958  1.0000
  H   H9        1.0  0.4501662959523784  0.8074292828038808  0.14572606581135972  1.0000
  H   H10       1.0  0.5498664135424605  0.3074489863758316  0.354286462268405  1.0000
  H   H11       1.0  0.5498521170466616  0.19256683962675678  0.8542886808424369  1.0000
  H   H12       1.0  0.45017906949914277  0.6925838325776892  0.6457287020648222  1.0000
  H   H13       1.0  0.2323747215412197  0.7477061464320441  0.09421609516788722  1.0000
  H   H14       1.0  0.7676422903075205  0.24771439218271488  0.4057933166676833  1.0000
  H   H15       1.0  0.7676333837839734  0.25230148854733153  0.9057871002505493  1.0000
  H   H16       1.0  0.23239013882685097  0.7523097922883935  0.5942257396400946  1.0000
  H   H17       1.0  0.010163043453580699  0.7478082142891509  0.2632039085855382  1.0000
  H   H18       1.0  0.9898295707689185  0.24780084315469955  0.23676818918885803  1.0000
  H   H19       1.0  0.9898365880234934  0.2521713586158043  0.736778393371793  1.0000
  H   H20       1.0  0.0101606799280773  0.7521650584594752  0.7632007509565355  1.0000
  H   H21       1.0  0.6632799237503163  0.8139204949161679  0.279505642714561  1.0000
  H   H22       1.0  0.336709817632105  0.31392673040932095  0.2204743800578441  1.0000
  H   H23       1.0  0.33673565799237787  0.18607202978952836  0.7205002324391643  1.0000
  H   H24       1.0  0.6632636036267454  0.6860751480442955  0.7794863852702463  1.0000
  H   H25       1.0  0.6841050641482055  0.5783964225050371  0.08644615048603296  1.0000
  H   H26       1.0  0.31591178058137354  0.07843894445202439  0.41359150277600776  1.0000
  H   H27       1.0  0.31588254570020513  0.42158530907671826  0.9135682689789846  1.0000
  H   H28       1.0  0.6841329307944192  0.9216183389344508  0.5864698108747959  1.0000
  C   C1        1.0  0.3697242664061946  0.5396592996262513  0.11140770195238756  1.0000
  C   C2        1.0  0.6302770581274258  0.03968036493078131  0.3886020219269071  1.0000
  C   C3        1.0  0.6302679612803104  0.46033826176671505  0.888592659374801  1.0000
  C   C4        1.0  0.36974419635659217  0.9603531735282688  0.6114244569658709  1.0000
  C   C5        1.0  0.49274036959278783  0.5661617494066036  0.1395600636585498  1.0000
  C   C6        1.0  0.507271590011996  0.06618197652903038  0.3604593399394034  1.0000
  C   C7        1.0  0.5072659191056416  0.433833653461015  0.8604574797052749  1.0000
  C   C8        1.0  0.492761808807181  0.9338530010482058  0.6395700633754231  1.0000
  C   C9        1.0  0.5262609198869299  0.6638989114774104  0.15288578574839562  1.0000
  C   C10       1.0  0.4737541287261919  0.16392823072208532  0.3471310069271141  1.0000
  C   C11       1.0  0.4737453687887763  0.33609289369925927  0.8471317575968412  1.0000
  C   C12       1.0  0.5262708390086246  0.8361103444972426  0.6528896604879222  1.0000
  C   C13       1.0  0.4307447676513902  0.7303896910835875  0.1377367695650875  1.0000
  C   C14       1.0  0.5692692418126056  0.23040738931118904  0.3622771795857672  1.0000
  C   C15       1.0  0.569258694820924  0.26960571175429476  0.8622733325993294  1.0000
  C   C16       1.0  0.43076319236562444  0.7696225514696945  0.637743307033837  1.0000
  C   C17       1.0  0.3090939565843485  0.6976689934286144  0.10872168953331142  1.0000
  C   C18       1.0  0.6909168257729377  0.19768752752626273  0.39128805602290123  1.0000
  C   C19       1.0  0.6909020043647729  0.3023307265888561  0.891278581429617  1.0000
  C   C20       1.0  0.3091109431050327  0.8023438523196588  0.6087329011439236  1.0000
  C   C21       1.0  0.9114160845837203  0.7327988777768155  0.23903413254257797  1.0000
  C   C22       1.0  0.08858105544616988  0.23280040037700891  0.2609516424665586  1.0000
  C   C23       1.0  0.08858918184206031  0.2671842928637104  0.7609580458448448  1.0000
  C   C24       1.0  0.9114176490234911  0.7671863679126857  0.7390324699744112  1.0000
  C   C25       1.0  0.8419283169729324  0.7884781084242364  0.27824395176804  1.0000
  C   C26       1.0  0.15806486873047018  0.2884797783602976  0.22174501454134798  1.0000
  C   C27       1.0  0.158079783176575  0.21150290363781468  0.7217578132307594  1.0000
  C   C28       1.0  0.84192168642835  0.7115105875743025  0.7782347432215106  1.0000
  C   C29       1.0  0.7148480736799314  0.7695876340150106  0.24736783052636477  1.0000
  C   C30       1.0  0.2851532920076351  0.26959953453276597  0.2526261008527158  1.0000
  C   C31       1.0  0.28516752054061095  0.2303984148575751  0.7526416202991157  1.0000
  C   C32       1.0  0.7148416818349759  0.730405941742106  0.7473588172013664  1.0000
  C   C33       1.0  0.6568620354356155  0.6918843488220858  0.1805806132621726  1.0000
  C   C34       1.0  0.3431440010102804  0.19190199799925267  0.3194273976330707  1.0000
  C   C35       1.0  0.34314140446203817  0.30810457815297804  0.8194230525993901  1.0000
  C   C36       1.0  0.6568716109592428  0.8081193082595702  0.6805870593618764  1.0000
  C   C37       1.0  0.7270315389000286  0.6375463379437033  0.14093805017849081  1.0000
  C   C38       1.0  0.27297756937434764  0.1375746317230693  0.3590764603290991  1.0000
  C   C39       1.0  0.27296163078457875  0.36243899130992213  0.8590647914852951  1.0000
  C   C40       1.0  0.7270539627976119  0.8624567481582517  0.6409529881548437  1.0000
  C   C41       1.0  0.8526288902464785  0.6583845865705273  0.16788786282463528  1.0000
  C   C42       1.0  0.1473701458896457  0.15839260751851467  0.3321074450546675  1.0000
  C   C43       1.0  0.14735301712015314  0.3416043402912122  0.8320973714578842  1.0000
  C   C44       1.0  0.8526454234297559  0.8416150274785891  0.6678948544719034  1.0000
  C   C45       1.0  0.9031697631811612  0.8664282385925475  0.3566866761852197  1.0000
  C   C46       1.0  0.09680199536713019  0.36643126848887403  0.1433000621414493  1.0000
  C   C47       1.0  0.0968355682784932  0.13354485856849146  0.6433240958172988  1.0000
  C   C48       1.0  0.9031434614632302  0.6335526214652488  0.8566713928838966  1.0000
  C   C49       1.0  0.9180074610998759  0.6000343838980482  0.11683578380049649  1.0000
  C   C50       1.0  0.08196931530320478  0.1000423499183967  0.3831433501277743  1.0000
  C   C51       1.0  0.0819519891502409  0.39994878654979255  0.8831335444607332  1.0000
  C   C52       1.0  0.9180237943686578  0.8999552114335359  0.6168423282141619  1.0000
  N   N1        1.0  0.27836948721056126  0.6039137630160454  0.0952861035120449  1.0000
  N   N2        1.0  0.7216242255077673  0.1039296661560627  0.4047176937902607  1.0000
  N   N3        1.0  0.7216199142316526  0.39608092019442137  0.9047068166008713  1.0000
  N   N4        1.0  0.278386733730251  0.8961009940985246  0.5953008094980207  1.0000
  O   O1        1.0  0.027945805282186594  0.623203999642314  0.1295335487165374  1.0000
  O   O2        1.0  0.9720274930379276  0.12321027411277899  0.37043518787566415  1.0000
  O   O3        1.0  0.9720117657701407  0.3767705363316478  0.8704322489825673  1.0000
  O   O4        1.0  0.027955273848498094  0.8767894457616803  0.6295289272079643  1.0000
  O   O5        1.0  0.8560444119786652  0.529943110876502  0.05968102475689816  1.0000
  O   O6        1.0  0.1439352321502625  0.029951753464757792  0.440303015670807  1.0000
  O   O7        1.0  0.14390849380977497  0.4700386204680314  0.9402852435191705  1.0000
  O   O8        1.0  0.8560532322195298  0.9700422102018534  0.559688854320683  1.0000
  O   O9        1.0  0.0160394252496943  0.8537218488537731  0.4237033012738962  1.0000
  O   O10       1.0  0.9839340292674307  0.3537084590059932  0.07628039992022913  1.0000
  O   O11       1.0  0.9839677729026305  0.14626204138509993  0.5763074255966742  1.0000
  O   O12       1.0  0.016008621284996097  0.6462624792479301  0.9236893349671504  1.0000
  O   O13       1.0  0.8379438806493268  0.9404728489434714  0.35374599982765187  1.0000
  O   O14       1.0  0.1620194702872979  0.4404791304816981  0.1462388689972229  1.0000
  O   O15       1.0  0.1620549013229535  0.059495930957254486  0.6462602818927435  1.0000
  O   O16       1.0  0.8379203591237924  0.559504039895991  0.8537248550360347  1.0000
