data_image0
_chemical_formula_structural       Cd4H52C72N12O16
_chemical_formula_sum              "Cd4 H52 C72 N12 O16"
_cell_length_a       11.78977754309869
_cell_length_b       14.248650004033626
_cell_length_c       17.46496902818627
_cell_angle_alpha    90.00024718219092
_cell_angle_beta     89.99953194957149
_cell_angle_gamma    89.99997187703718

_space_group_name_H-M_alt    "P 1"
_space_group_IT_number       1

loop_
  _space_group_symop_operation_xyz
  'x, y, z'

loop_
  _atom_site_type_symbol
  _atom_site_label
  _atom_site_symmetry_multiplicity
  _atom_site_fract_x
  _atom_site_fract_y
  _atom_site_fract_z
  _atom_site_occupancy
  Cd  Cd1       1.0  0.9840481269686807  0.3636649219504234  0.9843844426454352  1.0000
  Cd  Cd2       1.0  0.9840403375866843  0.6363471431794564  0.015614238427254202  1.0000
  Cd  Cd3       1.0  0.0159528211207984  0.8636530028897199  0.5156204848327379  1.0000
  Cd  Cd4       1.0  0.015953224668869802  0.13634261396445166  0.48437780863834246  1.0000
  H   H1        1.0  0.7816641908789566  0.37445093527949785  0.8659009847181167  1.0000
  H   H2        1.0  0.7816634558618745  0.6255478779255128  0.1341005300060445  1.0000
  H   H3        1.0  0.2183359026726208  0.8744528941753487  0.634100545331961  1.0000
  H   H4        1.0  0.21833605006394666  0.12554895640450064  0.36589892248439077  1.0000
  H   H5        1.0  0.7734532200443099  0.3682216636501963  0.10254207037571922  1.0000
  H   H6        1.0  0.7734576623133125  0.6317799601927376  0.8974600621901702  1.0000
  H   H7        1.0  0.2265419017771606  0.8682229052443943  0.3974582369405938  1.0000
  H   H8        1.0  0.22654087799890021  0.1317768365181067  0.6025400404769102  1.0000
  H   H9        1.0  0.5619029888912054  0.3686357872078502  0.10482722755184433  1.0000
  H   H10       1.0  0.5619091554449653  0.6313645194027941  0.8951749263716454  1.0000
  H   H11       1.0  0.4380929808753963  0.8686355266777355  0.39517365379295916  1.0000
  H   H12       1.0  0.43809108150347253  0.13136342685240268  0.6048240296814813  1.0000
  H   H13       1.0  0.5699197908227305  0.3726367485660447  0.8571955664809466  1.0000
  H   H14       1.0  0.5699206457798099  0.6273614493008423  0.1428036803741648  1.0000
  H   H15       1.0  0.430079455620806  0.872637263322254  0.6428036668795586  1.0000
  H   H16       1.0  0.43007970728543654  0.12736450076123162  0.3571929156320054  1.0000
  H   H17       1.0  0.0111150589746458  0.6978210703892032  0.7499332468764026  1.0000
  H   H18       1.0  0.011115655809000206  0.3021773557320913  0.2500679361487813  1.0000
  H   H19       1.0  0.9888851387706978  0.19781981846047356  0.7500665158431445  1.0000
  H   H20       1.0  0.9888845941203926  0.8021775064552871  0.24993271108645848  1.0000
  H   H21       1.0  0.19137793053391056  0.2930216180312896  0.08064828491001921  1.0000
  H   H22       1.0  0.1913812152985131  0.7069760326388561  0.9193530492640819  1.0000
  H   H23       1.0  0.8086206284115179  0.7930206320894726  0.4193523300769827  1.0000
  H   H24       1.0  0.8086206734379291  0.2069767664535433  0.5806456005530052  1.0000
  H   H25       1.0  0.4027042093927521  0.28675432206030377  0.08352258897289033  1.0000
  H   H26       1.0  0.4027015879026693  0.7132432422911991  0.9164781525128307  1.0000
  H   H27       1.0  0.5972968978301908  0.7867534072476302  0.4164774313560572  1.0000
  H   H28       1.0  0.5972986007586627  0.21324548125105738  0.583519374238236  1.0000
  H   H29       1.0  0.40247035938678993  0.45121550225290713  0.8750410307132483  1.0000
  H   H30       1.0  0.4024697802636226  0.5487834658369619  0.12496028463352363  1.0000
  H   H31       1.0  0.5975279925210729  0.9512165561409418  0.6249573342932708  1.0000
  H   H32       1.0  0.5975297709392039  0.0487823322633361  0.3750394700265361  1.0000
  H   H33       1.0  0.19053927219770372  0.4483352868300088  0.8804014820349907  1.0000
  H   H34       1.0  0.19053875625559874  0.5516637678222052  0.11959871162706295  1.0000
  H   H35       1.0  0.8094599295950078  0.9483348221906239  0.619598017970482  1.0000
  H   H36       1.0  0.8094616414339982  0.051661874194394386  0.38040219832460315  1.0000
  H   H37       1.0  0.9690037338405375  0.5152921961823083  0.5571552503368196  1.0000
  H   H38       1.0  0.9690044345576612  0.4847058386796518  0.44284580394333534  1.0000
  H   H39       1.0  0.0309940269856313  0.0152923541009926  0.9428450145871282  1.0000
  H   H40       1.0  0.030994011324907002  0.9847067657182291  0.0571549136764062  1.0000
  H   H41       1.0  0.9619064006825582  0.40102724210521495  0.7867060053672719  1.0000
  H   H42       1.0  0.9619089638741372  0.598970795655447  0.21329508804332425  1.0000
  H   H43       1.0  0.03809452540045301  0.9010247803154385  0.7132933279882963  1.0000
  H   H44       1.0  0.038091405906755  0.09897223114141697  0.2867065611270548  1.0000
  H   H45       1.0  0.9632532333302141  0.30135572977202685  0.6674093076515106  1.0000
  H   H46       1.0  0.9632542939826936  0.6986409037970417  0.3325917783341552  1.0000
  H   H47       1.0  0.03674435877701401  0.8013574079663711  0.8325891020549181  1.0000
  H   H48       1.0  0.0367443206294098  0.19864241132032126  0.1674090767776661  1.0000
  H   H49       1.0  0.9588982817212326  0.35089001607807546  0.5796399984607419  1.0000
  H   H50       1.0  0.9589008539640178  0.6491080229128342  0.420361684111704  1.0000
  H   H51       1.0  0.04109928116132981  0.8508907526045559  0.9203597308771025  1.0000
  H   H52       1.0  0.041097789869290614  0.14910766126181574  0.07963842394343602  1.0000
  C   C1        1.0  0.7289071597549608  0.37357240199706604  0.9172576468395878  1.0000
  C   C2        1.0  0.7289087421325321  0.6264306436810967  0.08274358621970632  1.0000
  C   C3        1.0  0.2710912379337245  0.8735733661670793  0.582743307544071  1.0000
  C   C4        1.0  0.27109076327293025  0.1264305683263203  0.41725586937822373  1.0000
  C   C5        1.0  0.7244780615227102  0.3697739613987992  0.04953896498712851  1.0000
  C   C6        1.0  0.7244801668773138  0.6302304897286604  0.9504617199210585  1.0000
  C   C7        1.0  0.2755196039678793  0.8697733575764912  0.4504602026373804  1.0000
  C   C8        1.0  0.27551922254463085  0.13022776782149487  0.5495378047116759  1.0000
  C   C9        1.0  0.6065903371307472  0.3690167225391931  0.05021549943835881  1.0000
  C   C10       1.0  0.6065949948026274  0.6309891803820874  0.9497852629381145  1.0000
  C   C11       1.0  0.3934047842294462  0.8690153651695096  0.4497836655244854  1.0000
  C   C12       1.0  0.3934052423681181  0.1309850102543635  0.5502136917874695  1.0000
  C   C13       1.0  0.6110525442861601  0.3729449871317243  0.9130661510375335  1.0000
  C   C14       1.0  0.6110532273894123  0.6270545975752739  0.08693286900940221  1.0000
  C   C15       1.0  0.3889458537797523  0.8729452234856936  0.5869336559853127  1.0000
  C   C16       1.0  0.3889479740426509  0.127056557403975  0.41306487106109563  1.0000
  C   C17       1.0  0.5468812896275568  0.3704719621793515  0.9807085849868857  1.0000
  C   C18       1.0  0.5468836380822282  0.6295311578439851  0.0192907889099203  1.0000
  C   C19       1.0  0.45311541351622964  0.8704704112747448  0.5192906407515707  1.0000
  C   C20       1.0  0.4531167136938664  0.1295306415825976  0.4807075324569253  1.0000
  C   C21       1.0  0.9871871238347582  0.5694728652869468  0.8611684313804562  1.0000
  C   C22       1.0  0.9871906875359218  0.43052586396937187  0.13883309520230114  1.0000
  C   C23       1.0  0.012816542386666201  0.0694728279476848  0.6388308792277118  1.0000
  C   C24       1.0  0.012818816799260401  0.9305277029363379  0.3611685766901616  1.0000
  C   C25       1.0  0.42161599812004624  0.36968313826599797  0.9796359239097401  1.0000
  C   C26       1.0  0.42161663674662725  0.6303172256388194  0.020362995565776  1.0000
  C   C27       1.0  0.5783824018806101  0.8696822436806994  0.5203621538971108  1.0000
  C   C28       1.0  0.5783828663695164  0.1303180561890969  0.4796359011494289  1.0000
  C   C29       1.0  0.9979887975224813  0.6277032898258881  0.727551891596555  1.0000
  C   C30       1.0  0.9979882339483838  0.3722961368369155  0.2724484302875752  1.0000
  C   C31       1.0  0.0020122897633854005  0.12770466471869207  0.7724493418609057  1.0000
  C   C32       1.0  0.0020119746284024  0.8722951687612692  0.22755131878833626  1.0000
  C   C33       1.0  0.24196692867625566  0.32746054301448174  0.03643856570684531  1.0000
  C   C34       1.0  0.24197054691750003  0.6725377888106437  0.963561916938808  1.0000
  C   C35       1.0  0.7580299135839611  0.8274605131438902  0.4635598802980568  1.0000
  C   C36       1.0  0.7580288175448757  0.1725383097061126  0.5364383293010421  1.0000
  C   C37       1.0  0.3598529454397266  0.32486027615413343  0.037783786733612615  1.0000
  C   C38       1.0  0.35985403385361536  0.6751394111598544  0.9622160458833238  1.0000
  C   C39       1.0  0.6401438983540474  0.8248609891482984  0.46221465011321083  1.0000
  C   C40       1.0  0.6401470254659501  0.1751399873138482  0.5377830643666499  1.0000
  C   C41       1.0  0.0046926259453741  0.6972262242502864  0.5965679758157878  1.0000
  C   C42       1.0  0.004693062762363801  0.3027743099555451  0.4034326700529079  1.0000
  C   C43       1.0  0.9953058757549444  0.19722718368535652  0.9034335025412048  1.0000
  C   C44       1.0  0.9953071868151542  0.8027736477177428  0.0965679792836625  1.0000
  C   C45       1.0  0.35964315747085623  0.41435108857955777  0.9214597175695687  1.0000
  C   C46       1.0  0.3596439665726976  0.5856471951784242  0.07854011620246133  1.0000
  C   C47       1.0  0.6403552161786693  0.9143504760700764  0.5785390901545356  1.0000
  C   C48       1.0  0.6403555628892975  0.0856462893825878  0.4214591957350677  1.0000
  C   C49       1.0  0.2416824755583846  0.41385282726752587  0.9242673758389657  1.0000
  C   C50       1.0  0.24168331833340775  0.5861483119608835  0.07573425353725581  1.0000
  C   C51       1.0  0.7583158983718263  0.9138500462843665  0.5757337204251415  1.0000
  C   C52       1.0  0.7583145144451182  0.08614596916840608  0.42426563274232626  1.0000
  C   C53       1.0  0.9924234412291213  0.6142056630392431  0.6484890461377262  1.0000
  C   C54       1.0  0.9924261538226845  0.3857944677170693  0.3515113064266728  1.0000
  C   C55       1.0  0.007575957630777501  0.11420464612368159  0.851512712349795  1.0000
  C   C56       1.0  0.0075757431798706  0.8857951850836442  0.1484879176204146  1.0000
  C   C57       1.0  0.9738779188807957  0.5245486740218083  0.6189778649831155  1.0000
  C   C58       1.0  0.9738768286721964  0.47545006066890483  0.3810225898516181  1.0000
  C   C59       1.0  0.026124077450873504  0.024549209096065297  0.8810218599608463  1.0000
  C   C60       1.0  0.026120774481285  0.9754499127115606  0.11897752259053365  1.0000
  C   C61       1.0  0.969186655658099  0.4604952271177181  0.7475505668304336  1.0000
  C   C62       1.0  0.9691870836814261  0.5395049131291856  0.2524493412960567  1.0000
  C   C63       1.0  0.030817628120360003  0.9604936770075766  0.7524484034175246  1.0000
  C   C64       1.0  0.030813321175941204  0.03950544288608878  0.24755209840526501  1.0000
  C   C65       1.0  0.9623218740119697  0.44606207111595336  0.6676340143777324  1.0000
  C   C66       1.0  0.9623204781618002  0.5539373701160457  0.3323665041805414  1.0000
  C   C67       1.0  0.0376849628462921  0.9460623441048313  0.8323666227500939  1.0000
  C   C68       1.0  0.0376782218049314  0.05393677298420128  0.16763384121206576  1.0000
  C   C69       1.0  0.9855820107612275  0.5511024816747394  0.7769243376506125  1.0000
  C   C70       1.0  0.9855777585464838  0.44889765188208497  0.22307777038169263  1.0000
  C   C71       1.0  0.014424210859743903  0.05110148516639159  0.723077198538455  1.0000
  C   C72       1.0  0.014421556647136005  0.948896939602349  0.27692339367388297  1.0000
  N   N1        1.0  0.7846618350265047  0.3721703297530254  0.984350080287051  1.0000
  N   N2        1.0  0.7846608357732807  0.6278347986139323  0.0156508453448509  1.0000
  N   N3        1.0  0.21533741168539686  0.872170260375796  0.5156502965789401  1.0000
  N   N4        1.0  0.2153361242269582  0.12783369689026358  0.4843486152043967  1.0000
  N   N5        1.0  0.18391684727939153  0.3720062176999122  0.9810726007860212  1.0000
  N   N6        1.0  0.18391835283718905  0.6279942433032629  0.0189293471140104  1.0000
  N   N7        1.0  0.8160807031384253  0.8720031129797192  0.5189289206506873  1.0000
  N   N8        1.0  0.8160803034502564  0.1279935806998012  0.48107068656771196  1.0000
  N   N9        1.0  0.94077800035938  0.35880600771888266  0.6365322331066068  1.0000
  N   N10       1.0  0.940780417598262  0.6411920386737292  0.3634695493837584  1.0000
  N   N11       1.0  0.059222102427597206  0.8588071380627651  0.863468096683583  1.0000
  N   N12       1.0  0.059217382708133905  0.1411926720463299  0.13653110336630195  1.0000
  O   O1        1.0  0.9806031825084462  0.5023003144163454  0.9093476322398004  1.0000
  O   O2        1.0  0.9806106824171295  0.4977012248180871  0.09065622094065873  1.0000
  O   O3        1.0  0.0194039160848121  0.0022972125462387997  0.5906548771879586  1.0000
  O   O4        1.0  0.019405567850192502  0.9977061229260968  0.4093428246887711  1.0000
  O   O5        1.0  0.9928944500517076  0.6550620842758975  0.88353906125554  1.0000
  O   O6        1.0  0.992902575928021  0.3449380462914533  0.11646300642093622  1.0000
  O   O7        1.0  0.007104076523099  0.15506193107238184  0.6164616960023537  1.0000
  O   O8        1.0  0.0071086752589906  0.8449400057953865  0.3835412268592365  1.0000
  O   O9        1.0  0.9919737786627609  0.6878410839072302  0.524655576415853  1.0000
  O   O10       1.0  0.9919640095349822  0.31216255613816196  0.47534420609390093  1.0000
  O   O11       1.0  0.008029817732442301  0.18783861564462967  0.9753452962873512  1.0000
  O   O12       1.0  0.008033689931849601  0.8121591099153631  0.024655903739976302  1.0000
  O   O13       1.0  0.0267666229788688  0.7770317567391627  0.6275180101985783  1.0000
  O   O14       1.0  0.0267691778131933  0.22296736480934243  0.37248308651776807  1.0000
  O   O15       1.0  0.9732352243924755  0.277035368953129  0.8724877572903653  1.0000
  O   O16       1.0  0.973231967038096  0.7229668751139967  0.1275161365488202  1.0000
