data_image0
_chemical_formula_structural       Cd4H36C42N4O18
_chemical_formula_sum              "Cd4 H36 C42 N4 O18"
_cell_length_a       8.11885542333162
_cell_length_b       10.122706011869488
_cell_length_c       14.16817660788693
_cell_angle_alpha    75.49665713426153
_cell_angle_beta     78.2182262697702
_cell_angle_gamma    73.151962714515

_space_group_name_H-M_alt    "P 1"
_space_group_IT_number       1

loop_
  _space_group_symop_operation_xyz
  'x, y, z'

loop_
  _atom_site_type_symbol
  _atom_site_label
  _atom_site_symmetry_multiplicity
  _atom_site_fract_x
  _atom_site_fract_y
  _atom_site_fract_z
  _atom_site_occupancy
  Cd  Cd1       1.0  0.1860879778823659  0.06827169766970091  0.17951866758929205  1.0000
  Cd  Cd2       1.0  0.8139126576400458  0.9317275352988403  0.8204816530844068  1.0000
  Cd  Cd3       1.0  0.6128125718986933  0.8489129082245485  0.07892789629365646  1.0000
  Cd  Cd4       1.0  0.3871877695508488  0.15108737458579924  0.9210715623325425  1.0000
  H   H1        1.0  0.26301477791853495  0.31890619504343226  0.09272218574680831  1.0000
  H   H2        1.0  0.7369861038103949  0.6810919642630112  0.9072747721378676  1.0000
  H   H3        1.0  0.47431183068115956  0.27186355474886176  0.06973926303244582  1.0000
  H   H4        1.0  0.5256882326509641  0.7281377858434014  0.930260741825094  1.0000
  H   H5        1.0  0.27290516776886153  0.914078414655414  0.030817577436650468  1.0000
  H   H6        1.0  0.7270964498846624  0.08592183758801042  0.9691824380429352  1.0000
  H   H7        1.0  0.9759533191582079  0.7657346815602752  0.021481585301472685  1.0000
  H   H8        1.0  0.024046048137947213  0.23426458594524752  0.9785188826582709  1.0000
  H   H9        1.0  0.9244146007971138  0.6411998381484453  0.11420506963553832  1.0000
  H   H10       1.0  0.07558506854963548  0.35879838348531484  0.8857969645111295  1.0000
  H   H11       1.0  0.8328391900441972  0.3321072913665333  0.4120853119672744  1.0000
  H   H12       1.0  0.1671577885783008  0.6678962378335458  0.5879167840644682  1.0000
  H   H13       1.0  0.6291317730481507  0.19153558561874465  0.5156029245572356  1.0000
  H   H14       1.0  0.37086799621110333  0.8084668048153318  0.48439621825281165  1.0000
  H   H15       1.0  0.48408641416864373  0.0723280250158993  0.4341593626223456  1.0000
  H   H16       1.0  0.5159153273305606  0.9276764079379803  0.5658398739388772  1.0000
  H   H17       1.0  0.4764504541879263  0.23952942742949562  0.6847797247095214  1.0000
  H   H18       1.0  0.5235536281185772  0.7604707200095434  0.3152136589431791  1.0000
  H   H19       1.0  0.6113398438541181  0.4073930207560252  0.5547263900801909  1.0000
  H   H20       1.0  0.3886587650691096  0.592613576985386  0.44527071281870434  1.0000
  H   H21       1.0  0.6969423063000451  0.5778568991751811  0.786289950422457  1.0000
  H   H22       1.0  0.3030644386177456  0.42213380762765257  0.21371259993658498  1.0000
  H   H23       1.0  0.5494624674384241  0.4064552242740476  0.907370262143658  1.0000
  H   H24       1.0  0.45053916468570054  0.5935356008264634  0.0926293566624494  1.0000
  H   H25       1.0  0.78955895082035  0.6790521953473815  0.6265129917625032  1.0000
  H   H26       1.0  0.21044139860691755  0.3209480914330173  0.37348717100312706  1.0000
  H   H27       1.0  0.7595443031644248  0.548616330151454  0.4574503751978867  1.0000
  H   H28       1.0  0.24046511002928378  0.45137849225793064  0.5425518058101345  1.0000
  H   H29       1.0  0.022643704655813234  0.8211704609564308  0.1821735500650661  1.0000
  H   H30       1.0  0.9773548203103601  0.1788319759247585  0.8178278524492908  1.0000
  H   H31       1.0  0.8804595085620974  0.6460441269323383  0.29475668086318046  1.0000
  H   H32       1.0  0.11954183895173287  0.35395718706303825  0.7052445849871702  1.0000
  H   H33       1.0  0.9053586103784422  0.8313385028898925  0.5346014832813636  1.0000
  H   H34       1.0  0.09463569996812987  0.1686609107036361  0.4654009821013999  1.0000
  H   H35       1.0  0.06755999636854429  0.9885256723726314  0.41250825222307697  1.0000
  H   H36       1.0  0.9324272463847194  0.011481260021867001  0.5874944010867366  1.0000
  C   C1        1.0  0.6199946555244296  0.13173792316121077  0.290538930068017  1.0000
  C   C2        1.0  0.38000508182391696  0.868264451392669  0.7094573961843479  1.0000
  C   C3        1.0  0.7410086849130051  0.20530714454916685  0.2322874247293285  1.0000
  C   C4        1.0  0.25899166451426237  0.7946931422312389  0.7677127380362946  1.0000
  C   C5        1.0  0.8159564713936972  0.2788898542201822  0.27704623001138623  1.0000
  C   C6        1.0  0.1840445820472637  0.721112509617001  0.7229541737914643  1.0000
  C   C7        1.0  0.7732059276143629  0.2748794781535437  0.3785374243572761  1.0000
  C   C8        1.0  0.2267918853603916  0.7251208777008102  0.6214630329804363  1.0000
  C   C9        1.0  0.6579384965378665  0.19806396128232956  0.4361814597601422  1.0000
  C   C10       1.0  0.3420628190650631  0.8019373368328575  0.5638169895325189  1.0000
  C   C11       1.0  0.5789394280132925  0.1293978659724999  0.39151394686612656  1.0000
  C   C12       1.0  0.42105864712343083  0.870601424159858  0.6084845559613966  1.0000
  C   C13       1.0  0.5391300678130335  0.0481465396199852  0.24737832458980338  1.0000
  C   C14       1.0  0.46086183790443863  0.9518571277280048  0.752624360586111  1.0000
  C   C15       1.0  0.788163779962467  0.21156948867184167  0.12254453529435952  1.0000
  C   C16       1.0  0.21183558733368094  0.7884297788336739  0.8774559326653842  1.0000
  C   C17       1.0  0.940592150435151  0.3661403399568642  0.21914113343455452  1.0000
  C   C18       1.0  0.05940619632610824  0.6338673235065502  0.7808579239745228  1.0000
  C   C19       1.0  0.5247819802551489  0.3179504058429146  0.7039249675058555  1.0000
  C   C20       1.0  0.475219875627161  0.6820487687683612  0.2960709810452754  1.0000
  C   C21       1.0  0.6017903284880431  0.41121159698053605  0.6318779756528343  1.0000
  C   C22       1.0  0.39821069304201717  0.5887907509764645  0.3681196115923271  1.0000
  C   C23       1.0  0.6674123155904041  0.5078813824547055  0.659890537958489  1.0000
  C   C24       1.0  0.33259141261935793  0.49211566587607103  0.3401083956804385  1.0000
  C   C25       1.0  0.6465857695267017  0.5058926990399188  0.7610942832415473  1.0000
  C   C26       1.0  0.35342081314161783  0.49410324228522756  0.23890733029105604  1.0000
  C   C27       1.0  0.5661594385510115  0.4100173525711455  0.8285443608307546  1.0000
  C   C28       1.0  0.43384415783534536  0.5899755110791318  0.17145464758711165  1.0000
  C   C29       1.0  0.7548512670080427  0.6080791311813272  0.5914718809560069  1.0000
  C   C30       1.0  0.24514913028558277  0.3919211794193559  0.4085325066461393  1.0000
  C   C31       1.0  0.793925855639337  0.619379060174566  0.4928213991975028  1.0000
  C   C32       1.0  0.2060809812132263  0.38061581145854023  0.5071775556854943  1.0000
  C   C33       1.0  0.0004478694467592648  0.8181745995350839  0.2610671686149644  1.0000
  C   C34       1.0  0.9995503295356372  0.1818288713077294  0.7389305552942103  1.0000
  C   C35       1.0  0.9168670723064025  0.7211750725743897  0.32481316688727446  1.0000
  C   C36       1.0  0.0831313367918156  0.2788231875663882  0.6751897186848553  1.0000
  C   C37       1.0  0.880789645205368  0.7212982978624254  0.42605793946438536  1.0000
  C   C38       1.0  0.1192138288201505  0.2786998201603979  0.5739436528241483  1.0000
  C   C39       1.0  0.9329519967215844  0.8225726764875745  0.4576091632960413  1.0000
  C   C40       1.0  0.06704484209977578  0.17742666406194732  0.542392303375216  1.0000
  C   C41       1.0  0.02077489062781264  0.9122891486162747  0.3898861881010091  1.0000
  C   C42       1.0  0.9792172932070712  0.08771346094980714  0.6101159508435643  1.0000
  N   N1        1.0  0.5070522142437  0.31639757477133673  0.800847705984367  1.0000
  N   N2        1.0  0.49295149003287975  0.6835994616492941  0.19914911523630244  1.0000
  N   N3        1.0  0.053939783347836084  0.9112416948052486  0.29279665459064563  1.0000
  N   N4        1.0  0.9460562211212745  0.0887608190899911  0.7072064507746346  1.0000
  O   O1        1.0  0.38198622889239425  0.04459422704795202  0.2827224450520091  1.0000
  O   O2        1.0  0.6180096053495275  0.9554135173995562  0.7172790193474154  1.0000
  O   O3        1.0  0.6358866716236163  0.9857540771989265  0.18132880191157602  1.0000
  O   O4        1.0  0.36411013528684316  0.01424524747040581  0.818669848201992  1.0000
  O   O5        1.0  0.6746026142579569  0.2688007944512947  0.06621897679329439  1.0000
  O   O6        1.0  0.3253984391830045  0.7312015693858883  0.933781427009556  1.0000
  O   O7        1.0  0.9491593647872563  0.16298633057384387  0.09106968272862294  1.0000
  O   O8        1.0  0.05083987866321853  0.8370087562212235  0.9089315641494763  1.0000
  O   O9        1.0  0.8811758276276436  0.4969538954539774  0.19827479949141488  1.0000
  O   O10       1.0  0.11882798035938433  0.5030431925772733  0.8017311755417322  1.0000
  O   O11       1.0  0.10093138561743592  0.3004103233757576  0.19933204447071515  1.0000
  O   O12       1.0  0.8990688760548408  0.6995899197341161  0.8006603727612853  1.0000
  O   O13       1.0  0.36260529329106117  0.2683266548944871  0.05155919519657458  1.0000
  O   O14       1.0  0.6373975686555439  0.7316735509018103  0.948438560578701  1.0000
  O   O15       1.0  0.32986821207611433  0.9719239538440195  0.052415222381192436  1.0000
  O   O16       1.0  0.6701328333871216  0.0280784060231269  0.9475844772822342  1.0000
  O   O17       1.0  0.902716043054717  0.7441097956156356  0.08664164775653653  1.0000
  O   O18       1.0  0.09728303016856897  0.25589052173169347  0.9133579581557071  1.0000
