data_image0
_chemical_formula_structural       Hg4H16C24N4Cl4O12
_chemical_formula_sum              "Hg4 H16 C24 N4 Cl4 O12"
_cell_length_a       8.037985810003503
_cell_length_b       9.916890210479469
_cell_length_c       10.44575333404225
_cell_angle_alpha    106.14378962562762
_cell_angle_beta     89.99996447927067
_cell_angle_gamma    90.00010622755448

_space_group_name_H-M_alt    "P 1"
_space_group_IT_number       1

loop_
  _space_group_symop_operation_xyz
  'x, y, z'

loop_
  _atom_site_type_symbol
  _atom_site_label
  _atom_site_symmetry_multiplicity
  _atom_site_fract_x
  _atom_site_fract_y
  _atom_site_fract_z
  _atom_site_occupancy
  Hg  Hg1       1.0  0.4767008624060694  0.6980741714134167  0.5024447509401142  1.0000
  Hg  Hg2       1.0  0.976701865175997  0.8019282599231373  0.4975559677360337  1.0000
  Hg  Hg3       1.0  0.5232991523984438  0.30192566403674437  0.497555264818061  1.0000
  Hg  Hg4       1.0  0.023298149630683402  0.1980736750793568  0.5024446006165562  1.0000
  H   H1        1.0  0.3360493273029519  0.0537670406473367  0.23872771768882473  1.0000
  H   H2        1.0  0.8360492033749126  0.44623381178308813  0.7612714387754879  1.0000
  H   H3        1.0  0.6639506874997707  0.9462306943582488  0.7612707879129134  1.0000
  H   H4        1.0  0.16395081143176785  0.5537681232193988  0.23872912957710204  1.0000
  H   H5        1.0  0.6583968308257654  0.5631506322515561  0.23813309111564956  1.0000
  H   H6        1.0  0.15839740789277104  0.9368513281920199  0.7618695708819985  1.0000
  H   H7        1.0  0.34160193988343224  0.43684710453760534  0.7618673296101833  1.0000
  H   H8        1.0  0.8416013628203771  0.06315060859405013  0.23813291259468639  1.0000
  H   H9        1.0  0.5549442925878979  0.8163164049231995  0.9690164507963105  1.0000
  H   H10       1.0  0.05494363411215632  0.6836843503331733  0.030984028944644044  1.0000
  H   H11       1.0  0.445058210401058  0.18368238075264287  0.030983288664543803  1.0000
  H   H12       1.0  0.945056380693437  0.31631653489314715  0.9690162631107314  1.0000
  H   H13       1.0  0.6896709699155181  0.6024279946616532  0.011900833464672158  1.0000
  H   H14       1.0  0.18966878852489805  0.89757401132929  0.9881008682006113  1.0000
  H   H15       1.0  0.31032904488682794  0.39756974123618244  0.9880986296990887  1.0000
  H   H16       1.0  0.810328738095869  0.10242792456359948  0.011900657714107893  1.0000
  C   C1        1.0  0.4409483894145583  0.8572070891063176  0.2925911140205669  1.0000
  C   C2        1.0  0.9409476182512935  0.6427942384685608  0.7074083739636167  1.0000
  C   C3        1.0  0.5590541135747814  0.1427916956772748  0.7074076678782648  1.0000
  C   C4        1.0  0.059052396555763706  0.35720769564166943  0.2925912368269509  1.0000
  C   C5        1.0  0.3441256893432226  0.952552352306263  0.40491252441996284  1.0000
  C   C6        1.0  0.844127279283555  0.5474488314899801  0.5950869721413029  1.0000
  C   C7        1.0  0.6558730813667353  0.0474453826983989  0.5950859811818319  1.0000
  C   C8        1.0  0.15587273552350212  0.45255310262025733  0.4049126386492646  1.0000
  C   C9        1.0  0.4561264050618449  0.8872796508029451  0.16830878680713102  1.0000
  C   C10       1.0  0.9561267101885494  0.6127217002041334  0.8316916573944582  1.0000
  C   C11       1.0  0.5438760979281981  0.1127201846490635  0.8316912289509305  1.0000
  C   C12       1.0  0.04387454870834521  0.3872781361392014  0.1683093159256757  1.0000
  C   C13       1.0  0.6020233669936278  0.652906189995825  0.2141686588018743  1.0000
  C   C14       1.0  0.10202496480150101  0.8470967347263352  0.7858323693628295  1.0000
  C   C15       1.0  0.3979766478097986  0.34709259567816986  0.7858310806590938  1.0000
  C   C16       1.0  0.8979750500066433  0.15290624916006115  0.2141675177249454  1.0000
  C   C17       1.0  0.5449184845788652  0.7935653373089906  0.06500194844401355  1.0000
  C   C18       1.0  0.04491839901149321  0.7064364528357814  0.934998808482277  1.0000
  C   C19       1.0  0.45508401841117785  0.20643449814301107  0.9349980673140481  1.0000
  C   C20       1.0  0.955082859887249  0.29356443149921313  0.0650005260110333  1.0000
  C   C21       1.0  0.6181605712108792  0.6765190937302988  0.08889842467868897  1.0000
  C   C22       1.0  0.11815952693322632  0.823481757185604  0.911103964586218  1.0000
  C   C23       1.0  0.3818419317766129  0.3234786430616339  0.9111019960469878  1.0000
  C   C24       1.0  0.8818404878716067  0.17651912982522328  0.08889824259320278  1.0000
  N   N1        1.0  0.5136443224440228  0.7408733297162154  0.31070713593371113  1.0000
  N   N2        1.0  0.013644553236765902  0.7591263153270089  0.6892940287306432  1.0000
  N   N3        1.0  0.48635693645179157  0.2591254568509526  0.6892935610892225  1.0000
  N   N4        1.0  0.9863554615673639  0.24087352101540208  0.3107069445895477  1.0000
  Cl  Cl1       1.0  0.4743357104364352  0.6557253488672002  0.7111488854554935  1.0000
  Cl  Cl2       1.0  0.9743357323540921  0.8442749794040763  0.2888512808358001  1.0000
  Cl  Cl3       1.0  0.5256630602763936  0.3442755363581965  0.2888514065999388  1.0000
  Cl  Cl4       1.0  0.025663038356569204  0.15572380626899468  0.7111484586252177  1.0000
  O   O1        1.0  0.3162604172348225  0.9170420002098253  0.5098061050410294  1.0000
  O   O2        1.0  0.8162634159346923  0.5829580924317526  0.4901931176914617  1.0000
  O   O3        1.0  0.6837358652903661  0.0829557330084825  0.4901904854368412  1.0000
  O   O4        1.0  0.18373659887052443  0.41704279368682506  0.5098081319259435  1.0000
  O   O5        1.0  0.294691909962765  0.06861632503250088  0.384802920339304  1.0000
  O   O6        1.0  0.7946931131639021  0.4313855157598639  0.6151965160858668  1.0000
  O   O7        1.0  0.7053056166544281  0.9313814099712302  0.6151955852625477  1.0000
  O   O8        1.0  0.20530690164315502  0.5686164183503662  0.38480309470470087  1.0000
  O   O9        1.0  0.38572219653612194  0.0017044139519696998  0.14723835191827567  1.0000
  O   O10       1.0  0.8857221178847187  0.4982975620181946  0.8527610764428959  1.0000
  O   O11       1.0  0.6142790623615327  0.9982954206068653  0.8527607062778203  1.0000
  O   O12       1.0  0.1142778969223386  0.5017043720920425  0.1472385343476716  1.0000
