data_image0
_chemical_formula_structural       ZnH30C18S4N2O8
_chemical_formula_sum              "Zn1 H30 C18 S4 N2 O8"
_cell_length_a       8.115466375556109
_cell_length_b       8.777060147580917
_cell_length_c       10.040015426450761
_cell_angle_alpha    94.0871078732337
_cell_angle_beta     110.7728708276356
_cell_angle_gamma    107.97855457920775

_space_group_name_H-M_alt    "P 1"
_space_group_IT_number       1

loop_
  _space_group_symop_operation_xyz
  'x, y, z'

loop_
  _atom_site_type_symbol
  _atom_site_label
  _atom_site_symmetry_multiplicity
  _atom_site_fract_x
  _atom_site_fract_y
  _atom_site_fract_z
  _atom_site_occupancy
  Zn  Zn1       1.0  0.0  0.0  0.0  1.0000
  H   H1        1.0  0.04199557589684846  0.619896580009403  0.4307298462146746  1.0000
  H   H2        1.0  0.9580065158507193  0.3801009242098701  0.5692711852957969  1.0000
  H   H3        1.0  0.12383582097456985  0.5958947163827091  0.290319964031049  1.0000
  H   H4        1.0  0.8761636427932515  0.4041027775933657  0.7096783123959722  1.0000
  H   H5        1.0  0.32608358558173484  0.8978475661016176  0.36379931698098017  1.0000
  H   H6        1.0  0.6739195119492934  0.102152384779103  0.6362011592362506  1.0000
  H   H7        1.0  0.38845096784597644  0.800804515419905  0.5138780307333731  1.0000
  H   H8        1.0  0.611549815889994  0.19919298365689286  0.48612062894379443  1.0000
  H   H9        1.0  0.2453303817656334  0.9214737495126499  0.5039917295240527  1.0000
  H   H10       1.0  0.7546727157653945  0.07852620136807792  0.49600874669317796  1.0000
  H   H11       1.0  0.5478854813586622  0.8458664260514227  0.09140987536582658  1.0000
  H   H12       1.0  0.45211497025780284  0.1541335146487341  0.908590828642694  1.0000
  H   H13       1.0  0.4092154316619486  0.6291950118839368  0.04178487723947202  1.0000
  H   H14       1.0  0.5907850259327959  0.37080492879534427  0.9582148324774662  1.0000
  H   H15       1.0  0.39141577725416  0.758894721558647  0.17942799789311434  1.0000
  H   H16       1.0  0.6085838602750259  0.2411064373610827  0.8205715480728413  1.0000
  H   H17       1.0  0.20199930288310244  0.8274900288148005  0.7110272356740096  1.0000
  H   H18       1.0  0.7980016546142323  0.1725111352056459  0.2889726935420924  1.0000
  H   H19       1.0  0.28201867669928044  0.66014156200319  0.7584930718865974  1.0000
  H   H20       1.0  0.7179809608299051  0.33985959691653284  0.2415064740793581  1.0000
  H   H21       1.0  0.4433838829472592  0.8702143221535293  0.8338236112111728  1.0000
  H   H22       1.0  0.5566165746474849  0.12978561852575146  0.1661760985057582  1.0000
  H   H23       1.0  0.057429626491241885  0.07555325090670809  0.318284902878922  1.0000
  H   H24       1.0  0.942568011427568  0.9244430146483609  0.6817137650903574  1.0000
  H   H25       1.0  0.26695932082296986  0.2821940582945217  0.5398130896994429  1.0000
  H   H26       1.0  0.733038490857197  0.7178058722041952  0.4601868478087708  1.0000
  H   H27       1.0  0.553641454067467  0.5409754875341621  0.2836189318363225  1.0000
  H   H28       1.0  0.4463578632987577  0.4590281129671681  0.7163806698778217  1.0000
  H   H29       1.0  0.3250599205487887  0.324941216831597  0.0726004462346523  1.0000
  H   H30       1.0  0.6749378971096504  0.675058713646237  0.9273984969819861  1.0000
  C   C1        1.0  0.09911618159399176  0.6838450957572134  0.35754690094992  1.0000
  C   C2        1.0  0.9008846021419785  0.3161524033195775  0.6424517587272476  1.0000
  C   C3        1.0  0.2750531443999905  0.8347763967552241  0.43987024388995616  1.0000
  C   C4        1.0  0.7249481392385774  0.16522232566273226  0.5601286352863822  1.0000
  C   C5        1.0  0.41439664600104464  0.7519703370463731  0.0782920980085891  1.0000
  C   C6        1.0  0.5856043114962828  0.24803082697407325  0.9217078312075199  1.0000
  C   C7        1.0  0.2967469697955423  0.785993768979843  0.7957212524306951  1.0000
  C   C8        1.0  0.7032521618527667  0.21400616661959757  0.20427906832766488  1.0000
  C   C9        1.0  0.16879472608397345  0.1819707693229589  0.31518868332359756  1.0000
  C   C10       1.0  0.8312017656280445  0.8180291560750346  0.6848108709344699  1.0000
  C   C11       1.0  0.28888789723821157  0.30082116838282497  0.44019927124598707  1.0000
  C   C12       1.0  0.7111086004520856  0.6991787569942928  0.5597992887204981  1.0000
  C   C13       1.0  0.43295072180531236  0.43592220446686974  0.4345522027664116  1.0000
  C   C14       1.0  0.5670462698093031  0.5640789442722889  0.5654475709908267  1.0000
  C   C15       1.0  0.44492865434452256  0.4431857426287635  0.29890136412235785  1.0000
  C   C16       1.0  0.555068023085411  0.5568178476711195  0.7010974710914865  1.0000
  C   C17       1.0  0.31851617526429976  0.3197773596637746  0.17874021684234973  1.0000
  C   C18       1.0  0.6814818101772245  0.6802262357785978  0.8212609902048058  1.0000
  S   S1        1.0  0.910733906963685  0.7356459161443639  0.23410001612270992  1.0000
  S   S2        1.0  0.08926472478203351  0.26435279611391144  0.7659000851364863  1.0000
  S   S3        1.0  0.22004306052713934  0.7828992785925452  0.9429449264872644  1.0000
  S   S4        1.0  0.7799565710237673  0.21710188034806066  0.057055613770273704  1.0000
  N   N1        1.0  0.18265869236575577  0.1900919465833866  0.18579862037105943  1.0000
  N   N2        1.0  0.8173391193144112  0.8099079839153304  0.8142013171371614  1.0000
  O   O1        1.0  0.9928747992477792  0.8173328944628508  0.13570451548407894  1.0000
  O   O2        1.0  0.007127472239424994  0.18266827467920166  0.8642967912737588  1.0000
  O   O3        1.0  0.7530919549554653  0.5805287387960335  0.1576999996851854  1.0000
  O   O4        1.0  0.246907990780123  0.4194699785838409  0.8423014791157397  1.0000
  O   O5        1.0  0.8663136418357666  0.8453503087811145  0.3221422242500366  1.0000
  O   O6        1.0  0.1336894377604381  0.15464964216224794  0.6778612348419415  1.0000
  O   O7        1.0  0.2433736944314546  0.9618172935915582  0.9902318506340746  1.0000
  O   O8        1.0  0.7566249373142641  0.03818141866671709  0.00976825062512185  1.0000
