data_image0
_chemical_formula_structural       Cu2H36C56N8O24
_chemical_formula_sum              "Cu2 H36 C56 N8 O24"
_cell_length_a       10.765897628582625
_cell_length_b       11.301609662868236
_cell_length_c       11.704311758328268
_cell_angle_alpha    90.18939954345407
_cell_angle_beta     100.9675714938095
_cell_angle_gamma    105.52431853741189

_space_group_name_H-M_alt    "P 1"
_space_group_IT_number       1

loop_
  _space_group_symop_operation_xyz
  'x, y, z'

loop_
  _atom_site_type_symbol
  _atom_site_label
  _atom_site_symmetry_multiplicity
  _atom_site_fract_x
  _atom_site_fract_y
  _atom_site_fract_z
  _atom_site_occupancy
  Cu  Cu1       1.0  0.5687890552285708  0.8701269570138022  0.916139266358947  1.0000
  Cu  Cu2       1.0  0.43117237938114533  0.1299049312991229  0.08383150018033096  1.0000
  H   H1        1.0  0.00018516109000192324  0.6152111533240472  0.34071824023389763  1.0000
  H   H2        1.0  0.9998385214281457  0.3847941789071215  0.6592976016830366  1.0000
  H   H3        1.0  0.8741923942922725  0.3398323013971023  0.47595160816883475  1.0000
  H   H4        1.0  0.1258110321651174  0.6601748431317844  0.5240452805221667  1.0000
  H   H5        1.0  0.6351407293002609  0.04288654785353431  0.37353118626982257  1.0000
  H   H6        1.0  0.3648489676305148  0.9571123073737977  0.6264521346840655  1.0000
  H   H7        1.0  0.9231993474888895  0.8926551037416102  0.5869830515113962  1.0000
  H   H8        1.0  0.07679155195710759  0.10735111849351137  0.41299367642379553  1.0000
  H   H9        1.0  0.7869348231072948  0.7771961977147228  0.22205084914084955  1.0000
  H   H10       1.0  0.21307520607718533  0.22278798734021882  0.777944551961902  1.0000
  H   H11       1.0  0.7935632281340332  0.6068953115650544  0.7309744864378092  1.0000
  H   H12       1.0  0.20644092982053763  0.39309804300145146  0.26902503958628904  1.0000
  H   H13       1.0  0.6578157395868374  0.5049032058306864  0.3629784939153638  1.0000
  H   H14       1.0  0.34218329691108096  0.49508553888462364  0.637020962528233  1.0000
  H   H15       1.0  0.502267156889161  0.7594047444889965  0.5287314999141232  1.0000
  H   H16       1.0  0.4977406787545818  0.24058494765326094  0.4712652441570669  1.0000
  H   H17       1.0  0.8346352884656838  0.9419408245292046  0.05732705782253335  1.0000
  H   H18       1.0  0.16536806194548603  0.05805621667261108  0.9426646506711409  1.0000
  H   H19       1.0  0.0309636976361674  0.1246701034783015  0.08752742036015351  1.0000
  H   H20       1.0  0.9690504429631517  0.8753251034617974  0.9124807132185497  1.0000
  H   H21       1.0  0.806901370189003  0.29926931071902624  0.8270819176319792  1.0000
  H   H22       1.0  0.19310689992061467  0.7007415171941672  0.17291925975732883  1.0000
  H   H23       1.0  0.6242677072272683  0.11180872829805107  0.8089358363914204  1.0000
  H   H24       1.0  0.37574365754857547  0.8881965683576777  0.19108124503299007  1.0000
  H   H25       1.0  0.14336248862178996  0.3169529634322785  0.02946965426546911  1.0000
  H   H26       1.0  0.856639086129448  0.6830412986898651  0.970532836206701  1.0000
  H   H27       1.0  0.9790534725332874  0.44849513907433897  0.8552635387955194  1.0000
  H   H28       1.0  0.02096175798286032  0.5514973103472514  0.14474648523706432  1.0000
  H   H29       1.0  0.2996570343487975  0.7950440453633264  0.7759078157757107  1.0000
  H   H30       1.0  0.7003501733219862  0.20495020290819344  0.22411361276013517  1.0000
  H   H31       1.0  0.09327888796499198  0.6273260747319894  0.7757369362120062  1.0000
  H   H32       1.0  0.9067156450242636  0.372670008443272  0.224264316489034  1.0000
  H   H33       1.0  0.31944824368068947  0.46504019477125513  0.04597666474216314  1.0000
  H   H34       1.0  0.6805563412927212  0.5349448789280655  0.9540288843745162  1.0000
  H   H35       1.0  0.5119490381381624  0.640356001531103  0.036010860706241536  1.0000
  H   H36       1.0  0.4880534948513501  0.35963826954469613  0.963987527285234  1.0000
  C   C1        1.0  0.9515947443025895  0.742679752907236  0.41989283047722403  1.0000
  C   C2        1.0  0.0484033581997423  0.25732550716911357  0.5801244690591363  1.0000
  C   C3        1.0  0.6251362520905063  0.9266706804500161  0.16728429308582807  1.0000
  C   C4        1.0  0.3748098810819158  0.07338688634994377  0.8326975409491271  1.0000
  C   C5        1.0  0.7039654859307589  0.9117376553000723  0.2852439958118823  1.0000
  C   C6        1.0  0.2960007126028898  0.08827130067995627  0.7147044528019679  1.0000
  C   C7        1.0  0.6990761555693369  0.9819047224195714  0.3822228598995638  1.0000
  C   C8        1.0  0.3009114041932648  0.0180932215573577  0.6177515356492693  1.0000
  C   C9        1.0  0.7781623808646216  0.9728487976382565  0.48887276635991855  1.0000
  C   C10       1.0  0.2218277057287423  0.0271546571207537  0.511108933114329  1.0000
  C   C11       1.0  0.8621182644012323  0.8970260077637633  0.5026054442749698  1.0000
  C   C12       1.0  0.1378708532715223  0.1029838828783554  0.49737354646607934  1.0000
  C   C13       1.0  0.8644986479253021  0.8257670944446076  0.4058484449187249  1.0000
  C   C14       1.0  0.1354879269251157  0.1742372761407722  0.594129219752489  1.0000
  C   C15       1.0  0.7852577916842308  0.8328259272735178  0.29753132619703154  1.0000
  C   C16       1.0  0.21470985370547171  0.1671784007088206  0.7024404282129881  1.0000
  C   C17       1.0  0.6438435649439002  0.7563999217645119  0.7530762431171782  1.0000
  C   C18       1.0  0.3561540802474497  0.24358418929137568  0.246945162894754  1.0000
  C   C19       1.0  0.649152125446584  0.6911915490720374  0.6415889858445427  1.0000
  C   C20       1.0  0.35084072620505674  0.3088118689502366  0.35842139719736127  1.0000
  C   C21       1.0  0.7329282124503892  0.6149111183948861  0.647189293507623  1.0000
  C   C22       1.0  0.26707103708155694  0.3850914172867447  0.35280854699839653  1.0000
  C   C23       1.0  0.7367839492067532  0.5473247353584865  0.5480506959236069  1.0000
  C   C24       1.0  0.26320357628818414  0.45267318874416407  0.4519365093157719  1.0000
  C   C25       1.0  0.6567886432462943  0.5563453240985012  0.44124589392667724  1.0000
  C   C26       1.0  0.3431908039176577  0.4436443074515779  0.5587398498043046  1.0000
  C   C27       1.0  0.5749411255613738  0.6335470365801895  0.43711036650466195  1.0000
  C   C28       1.0  0.425042872199036  0.36645179407415895  0.5628787817872551  1.0000
  C   C29       1.0  0.5688854522054428  0.7011616246161764  0.5349245498104056  1.0000
  C   C30       1.0  0.43112125925380707  0.2988308051703116  0.4650831134974285  1.0000
  C   C31       1.0  0.82463729986506  0.4649701869116711  0.557950562298686  1.0000
  C   C32       1.0  0.17535266499186264  0.5350231380212235  0.4420430365656289  1.0000
  C   C33       1.0  0.8334206722378498  0.0242571699306282  0.009588610035287161  1.0000
  C   C34       1.0  0.16657606343018472  0.9757334114571208  0.9904078837798455  1.0000
  C   C35       1.0  0.9417344385972015  0.12618346807522576  0.025806720437799434  1.0000
  C   C36       1.0  0.058264434239006804  0.8738080245629193  0.974198698782381  1.0000
  C   C37       1.0  0.9379070254114196  0.22993979281977767  0.9603273781753787  1.0000
  C   C38       1.0  0.06210383858386589  0.7700636827010141  0.039677645979757904  1.0000
  C   C39       1.0  0.8193122664669873  0.22448627438071606  0.8825643638522823  1.0000
  C   C40       1.0  0.18069280706035332  0.77551351542688  0.11743620418839383  1.0000
  C   C41       1.0  0.7150906716734653  0.11927008551302978  0.8712721834088558  1.0000
  C   C42       1.0  0.2849188535590059  0.8807287868222389  0.12873514878912573  1.0000
  C   C43       1.0  0.05683945303791659  0.3313403072567879  0.9715321622794735  1.0000
  C   C44       1.0  0.9431743830830684  0.6686604087785142  0.02847935705870705  1.0000
  C   C45       1.0  0.06628874805075922  0.43469706977217026  0.9120679454658431  1.0000
  C   C46       1.0  0.9337141875681924  0.5652953573234996  0.087934778280527  1.0000
  C   C47       1.0  0.2979628888219423  0.7194994537338387  0.8335155399042126  1.0000
  C   C48       1.0  0.7020471889946193  0.28049481874873544  0.1664952891482941  1.0000
  C   C49       1.0  0.1843892940154461  0.6263063419088866  0.834816158815514  1.0000
  C   C50       1.0  0.8156164576612356  0.373692529060513  0.16518537984163842  1.0000
  C   C51       1.0  0.18684898262159783  0.5311807126903076  0.9119371974710409  1.0000
  C   C52       1.0  0.8131569365456103  0.46880896154463864  0.08806775156153188  1.0000
  C   C53       1.0  0.3087079147653142  0.5352106404143128  0.9840124053129177  1.0000
  C   C54       1.0  0.6913156855932954  0.4647910359764538  0.015989737234050946  1.0000
  C   C55       1.0  0.41756458523492773  0.6323154250231936  0.9787971302731864  1.0000
  C   C56       1.0  0.582451613397744  0.3676834901133788  0.021194294250484774  1.0000
  N   N1        1.0  0.7210699643919511  0.020049009456236895  0.933480025629422  1.0000
  N   N2        1.0  0.2789296991919913  0.979951688870024  0.06651788073465076  1.0000
  N   N3        1.0  0.41260509866639694  0.7241430116882411  0.9061678170272247  1.0000
  N   N4        1.0  0.5873969730365972  0.2758595203804645  0.09383735756221517  1.0000
  N   N5        1.0  0.4896276469020933  0.6402990340833411  0.324481039231806  1.0000
  N   N6        1.0  0.5103651353462625  0.35973659884807313  0.6755012655961965  1.0000
  N   N7        1.0  0.7767477605848399  0.04845759469993988  0.5909147929824672  1.0000
  N   N8        1.0  0.22328933511227694  0.9515091554382168  0.40910924688986955  1.0000
  O   O1        1.0  0.6178298077532604  0.8457741774561568  0.08722054636340464  1.0000
  O   O2        1.0  0.38211910433123114  0.15426039935503158  0.9127727940885894  1.0000
  O   O3        1.0  0.5775882797048908  0.016524851651659803  0.15690731685557327  1.0000
  O   O4        1.0  0.4223972573132783  0.9835354456138742  0.8431618076395612  1.0000
  O   O5        1.0  0.6967077132320654  0.11050274249787859  0.5804525814769976  1.0000
  O   O6        1.0  0.3032868322582871  0.8894187783830743  0.41961843500065055  1.0000
  O   O7        1.0  0.8585124068049624  0.04716550100190629  0.6812566737246117  1.0000
  O   O8        1.0  0.14159591606546942  0.9528410206157572  0.3187339819787241  1.0000
  O   O9        1.0  0.9337192483554732  0.6676904894228385  0.3285344608287631  1.0000
  O   O10       1.0  0.06633062144412347  0.3323333081110532  0.6714749780928033  1.0000
  O   O11       1.0  0.03338530509667947  0.7450102025061083  0.5120644581843552  1.0000
  O   O12       1.0  0.9665975753966337  0.25497201670771114  0.48796543675896253  1.0000
  O   O13       1.0  0.7069829847125462  0.7315350892563188  0.8473920962499055  1.0000
  O   O14       1.0  0.2930053044733185  0.2684067491719162  0.15260612668986084  1.0000
  O   O15       1.0  0.5716191109281115  0.8313596872919932  0.7433743183705988  1.0000
  O   O16       1.0  0.428390947068074  0.1686410247275418  0.2566331153854905  1.0000
  O   O17       1.0  0.9047692003600999  0.4643527138951882  0.6502082150034811  1.0000
  O   O18       1.0  0.0951984193703552  0.5356028337898024  0.3498043503688209  1.0000
  O   O19       1.0  0.8111658485977103  0.39575691496352045  0.46321516659133294  1.0000
  O   O20       1.0  0.18885609931784586  0.6042650150967289  0.5367636963225808  1.0000
  O   O21       1.0  0.501542513983388  0.5823357710931205  0.238949303419652  1.0000
  O   O22       1.0  0.4984236129902014  0.4176666923518724  0.7610366996653897  1.0000
  O   O23       1.0  0.410150713873378  0.7025062639632865  0.32196147352989624  1.0000
  O   O24       1.0  0.5898729128018303  0.2975542523284745  0.6780332195713188  1.0000
