data_image0
_chemical_formula_structural       Ag4H20C24N24O8
_chemical_formula_sum              "Ag4 H20 C24 N24 O8"
_cell_length_a       6.517180318021131
_cell_length_b       9.721456840435609
_cell_length_c       16.433116855180597
_cell_angle_alpha    90.0002061797799
_cell_angle_beta     98.31246053842013
_cell_angle_gamma    90.00111011174818

_space_group_name_H-M_alt    "P 1"
_space_group_IT_number       1

loop_
  _space_group_symop_operation_xyz
  'x, y, z'

loop_
  _atom_site_type_symbol
  _atom_site_label
  _atom_site_symmetry_multiplicity
  _atom_site_fract_x
  _atom_site_fract_y
  _atom_site_fract_z
  _atom_site_occupancy
  Ag  Ag1       1.0  0.1316570194324242  0.022083734645690408  0.38137520610690956  1.0000
  Ag  Ag2       1.0  0.8683301935643613  0.5220773786080388  0.1186189444570829  1.0000
  Ag  Ag3       1.0  0.8683298960937335  0.9779245944579525  0.6186211488822337  1.0000
  Ag  Ag4       1.0  0.13166757528971124  0.4779175780934253  0.8813781003848433  1.0000
  H   H1        1.0  0.2479200849094313  0.4682291315747166  0.6642948605172023  1.0000
  H   H2        1.0  0.7520596211737497  0.9682260289100669  0.8357141874038874  1.0000
  H   H3        1.0  0.7520823356480122  0.5317802262944015  0.3357024800215598  1.0000
  H   H4        1.0  0.247943660740205  0.031772013820507504  0.1643002487792202  1.0000
  H   H5        1.0  0.8251552615558493  0.7047175827002549  0.7756824523794066  1.0000
  H   H6        1.0  0.17485752755244724  0.20469825826635463  0.7243273558392219  1.0000
  H   H7        1.0  0.1748591446719558  0.29528971797068243  0.2243259962696555  1.0000
  H   H8        1.0  0.8251401671698274  0.7952740680849646  0.2756715100708789  1.0000
  H   H9        1.0  0.21337024870993562  0.5913860973798178  0.5279967157720051  1.0000
  H   H10       1.0  0.786602380950697  0.0913908725624282  0.9720059639403829  1.0000
  H   H11       1.0  0.7866444280365384  0.4086098881041451  0.47200505541325544  1.0000
  H   H12       1.0  0.21338751240346449  0.9086071700444905  0.0279936233340479  1.0000
  H   H13       1.0  0.5606026650585108  0.7148989223260218  0.5490200481578213  1.0000
  H   H14       1.0  0.439378114966452  0.21491509567043476  0.9509810592271535  1.0000
  H   H15       1.0  0.4393934302883408  0.28509809167371714  0.4509799333331941  1.0000
  H   H16       1.0  0.5606135749854033  0.7850850042430937  0.04901255620836051  1.0000
  H   H17       1.0  0.35097824734029354  0.10844418366330194  0.6072696845393821  1.0000
  H   H18       1.0  0.6490416868799616  0.6084501010672697  0.8927281376596312  1.0000
  H   H19       1.0  0.649019349450491  0.8915641455261463  0.3927316096116797  1.0000
  H   H20       1.0  0.35095965064768103  0.39155514216282233  0.10725757055828919  1.0000
  C   C1        1.0  0.13556596920729186  0.5440060884043946  0.6781970852529612  1.0000
  C   C2        1.0  0.8644330681229206  0.04400010662153871  0.8218120098661643  1.0000
  C   C3        1.0  0.8644379525675348  0.4559981262158886  0.3218015679085369  1.0000
  C   C4        1.0  0.13557993505969526  0.9559938215510543  0.1781926979588633  1.0000
  C   C5        1.0  0.914648726349057  0.6638909265018141  0.7304282975008718  1.0000
  C   C6        1.0  0.08535385726167281  0.16387151478518558  0.7695752708781143  1.0000
  C   C7        1.0  0.0853675258174036  0.3361276893455028  0.2695729652506031  1.0000
  C   C8        1.0  0.9146606717734115  0.8361193274424398  0.2304301425344732  1.0000
  C   C9        1.0  0.1205046352806534  0.6783693403716172  0.5456664554168569  1.0000
  C   C10       1.0  0.8794811933214248  0.17837538242875445  0.9543385227380696  1.0000
  C   C11       1.0  0.8795023135498639  0.3216256164024501  0.454334215952592  1.0000
  C   C12       1.0  0.12052701078625461  0.821623688977681  0.0456695316734113  1.0000
  C   C13       1.0  0.9382689543517843  0.6979966157175144  0.4724374438242265  1.0000
  C   C14       1.0  0.0616976293402729  0.19800991074316707  0.027572317764985095  1.0000
  C   C15       1.0  0.06174107084707711  0.3019962837753028  0.527564031689856  1.0000
  C   C16       1.0  0.9382905904925067  0.8019891605096136  0.9724302061562042  1.0000
  C   C17       1.0  0.4648518045508183  0.8009882396917619  0.5634706749240266  1.0000
  C   C18       1.0  0.53514522606185  0.30099544677481305  0.9365335309755382  1.0000
  C   C19       1.0  0.5351535446635722  0.19901391763976764  0.4365311119866888  1.0000
  C   C20       1.0  0.4648495894577139  0.6990015672031478  0.0634596745226048  1.0000
  C   C21       1.0  0.35658786686735056  0.9997087616005734  0.592670440860509  1.0000
  C   C22       1.0  0.6434073002240055  0.4997122702434425  0.9073238537955107  1.0000
  C   C23       1.0  0.6434160548933221  0.00029442436730420013  0.4073282122986583  1.0000
  C   C24       1.0  0.3565580065778136  0.5002868008264161  0.0926686932471128  1.0000
  N   N1        1.0  0.05028925541191851  0.5568061547295147  0.74681088066081  1.0000
  N   N2        1.0  0.9497178867942894  0.056799084212471505  0.7531987652789525  1.0000
  N   N3        1.0  0.9497346260027227  0.44319600274054965  0.2531939100261411  1.0000
  N   N4        1.0  0.0503060437347642  0.9431958726888254  0.2468048113120105  1.0000
  N   N5        1.0  0.9110679019740432  0.7167871552320549  0.655954736911994  1.0000
  N   N6        1.0  0.08893456278015319  0.21677012904324042  0.844049579846704  1.0000
  N   N7        1.0  0.0889344940899051  0.28323043185729097  0.344043210685264  1.0000
  N   N8        1.0  0.9110644611953302  0.7832176271140912  0.1559548480115964  1.0000
  N   N9        1.0  0.05304691314272251  0.6396659534237445  0.6230879137936967  1.0000
  N   N10       1.0  0.9469517550642622  0.13965724588923933  0.8769189898766427  1.0000
  N   N11       1.0  0.9469539814348166  0.3603372325186598  0.3769087211365161  1.0000
  N   N12       1.0  0.053045841514141  0.8603356535140778  0.1230823042394391  1.0000
  N   N13       1.0  0.25694423468983263  0.7973206238123398  0.5596309589559639  1.0000
  N   N14       1.0  0.7430466406151909  0.2973297995769144  0.9403691938571939  1.0000
  N   N15       1.0  0.7430565860674108  0.20268256213292093  0.4403674970937459  1.0000
  N   N16       1.0  0.2569544508447947  0.7026754436626986  0.0596225847590333  1.0000
  N   N17       1.0  0.1855245706962663  0.9239153692954148  0.5781934744314725  1.0000
  N   N18       1.0  0.8144731367418884  0.42392035758182833  0.9218013792020017  1.0000
  N   N19       1.0  0.8144871036720785  0.07609501729585591  0.4218056715176672  1.0000
  N   N20       1.0  0.18550765065435834  0.5760920860833708  0.0781927604580659  1.0000
  N   N21       1.0  0.5318983730589437  0.9278164583679499  0.5843863782372197  1.0000
  N   N22       1.0  0.4680961192279511  0.42781542510584103  0.9156137593234135  1.0000
  N   N23       1.0  0.46811475329909064  0.0721877563239772  0.4156152944119782  1.0000
  N   N24       1.0  0.5318816160810584  0.5721754168342488  0.08437896909854462  1.0000
  O   O1        1.0  0.7756458741607376  0.6300869122032254  0.47742333936486153  1.0000
  O   O2        1.0  0.22430648543932113  0.1301179517327924  0.0225841117704206  1.0000
  O   O3        1.0  0.22433656168286834  0.36989055728755466  0.5225684706112972  1.0000
  O   O4        1.0  0.7756768617106147  0.8699016925428257  0.9774235798917134  1.0000
  O   O5        1.0  0.9814204285390175  0.7711257741371186  0.4142055791376862  1.0000
  O   O6        1.0  0.018504655785505995  0.2711304369650378  0.08580418270623369  1.0000
  O   O7        1.0  0.01856316443787162  0.2288763830380276  0.5857960420864856  1.0000
  O   O8        1.0  0.9814678375126249  0.7288645195736053  0.9142028190168148  1.0000
