data_image0
_chemical_formula_structural       Zn2H56C40N4O14
_chemical_formula_sum              "Zn2 H56 C40 N4 O14"
_cell_length_a       5.691893472
_cell_length_b       11.497593903780604
_cell_length_c       16.9314
_cell_angle_alpha    90.0
_cell_angle_beta     90.0
_cell_angle_gamma    97.96090015522964

_space_group_name_H-M_alt    "P 1"
_space_group_IT_number       1

loop_
  _space_group_symop_operation_xyz
  'x, y, z'

loop_
  _atom_site_type_symbol
  _atom_site_label
  _atom_site_symmetry_multiplicity
  _atom_site_fract_x
  _atom_site_fract_y
  _atom_site_fract_z
  _atom_site_occupancy
  Zn  Zn1       1.0  0.7903786612867948  0.7304833416442378  0.6550214394556875  1.0000
  Zn  Zn2       1.0  0.20962548301125855  0.269517585834059  0.1550214394556875  1.0000
  H   H1        1.0  0.26225270360355074  0.7384671548592792  0.6616694425741514  1.0000
  H   H2        1.0  0.7377449045391559  0.2615355290403585  0.1616676707183089  1.0000
  H   H3        1.0  0.12580372758534963  0.7244359829599532  0.7478288859751672  1.0000
  H   H4        1.0  0.8741936348658329  0.275565822729007  0.2478271141193318  1.0000
  H   H5        1.0  0.10135301736688979  0.9540406501934984  0.5924885124679591  1.0000
  H   H6        1.0  0.8986468390434794  0.04596379012748031  0.0924896937051898  1.0000
  H   H7        1.0  0.1168145708107886  0.1699249828378271  0.5909003390150858  1.0000
  H   H8        1.0  0.8831867967926572  0.830078579272481  0.0908979765406315  1.0000
  H   H9        1.0  0.4764879799386109  0.12407096904428981  0.7327722456500965  1.0000
  H   H10       1.0  0.5235159186679184  0.8759290802233295  0.23276929255702333  1.0000
  H   H11       1.0  0.4794122877540304  0.9101336294587838  0.7223466458768897  1.0000
  H   H12       1.0  0.5205936134286304  0.0898672980195059  0.22234723649550867  1.0000
  H   H13       1.0  0.10207064506722931  0.5529723750255755  0.5911785203822504  1.0000
  H   H14       1.0  0.8979473456600148  0.4470215267673368  0.0911773391450197  1.0000
  H   H15       1.0  0.1219885557319387  0.3408256577317417  0.5919291966405638  1.0000
  H   H16       1.0  0.8780246557245519  0.6591700004825185  0.0919232904544245  1.0000
  H   H17       1.0  0.469260775861244  0.297944387061392  0.7281630579869329  1.0000
  H   H18       1.0  0.5307360581629794  0.7020618096809272  0.2281642392241636  1.0000
  H   H19       1.0  0.4819902452408726  0.5135986777773951  0.7217542554071131  1.0000
  H   H20       1.0  0.5180171300909676  0.4864075189649242  0.2217631146863255  1.0000
  H   H21       1.0  0.4578850147631499  0.681538904497522  0.9095225439124947  1.0000
  H   H22       1.0  0.5421143873080538  0.3184576319274086  0.4095219532938828  1.0000
  H   H23       1.0  0.9182908894067053  0.6851694274136975  0.9422115123380195  1.0000
  H   H24       1.0  0.08170724716295301  0.3148288654325739  0.4422144654310927  1.0000
  H   H25       1.0  0.4759800113247437  0.8764507373622266  0.8572155876064615  1.0000
  H   H26       1.0  0.5240090951303742  0.12354667727337441  0.3572126345133881  1.0000
  H   H27       1.0  0.7921859499817147  0.0410001434118925  0.9003531899311312  1.0000
  H   H28       1.0  0.2077966203180566  0.9589990276450564  0.4003525993125194  1.0000
  H   H29       1.0  0.9093828018327345  0.9361049536484743  0.8395129758909476  1.0000
  H   H30       1.0  0.09060577619543153  0.063896852040493  0.3395123852723358  1.0000
  H   H31       1.0  0.9534012561955408  0.9351116973789503  0.9432870288339998  1.0000
  H   H32       1.0  0.0465930838694888  0.0648918647313508  0.443286438215388  1.0000
  H   H33       1.0  0.43273182892119183  0.9839033258688162  0.9844501931322897  1.0000
  H   H34       1.0  0.5672607913031342  0.016094088766792  0.484448421276447  1.0000
  H   H35       1.0  0.5708463518258783  0.8771849214836465  0.0355079910698493  1.0000
  H   H36       1.0  0.4291482709745793  0.12281337136263201  0.5355056285953879  1.0000
  H   H37       1.0  0.29408622045203  0.8351353163192529  0.9880842694638332  1.0000
  H   H38       1.0  0.7059061540807647  0.1648612201056778  0.48808072575215533  1.0000
  H   H39       1.0  0.7665074985599389  0.8583718924777417  0.4602726295521933  1.0000
  H   H40       1.0  0.23349464316198984  0.1416281567898778  0.9602714483149626  1.0000
  H   H41       1.0  0.06421726413126551  0.7614850565605522  0.5129693941434255  1.0000
  H   H42       1.0  0.9357853689737184  0.23851674912840795  0.012968212906194801  1.0000
  H   H43       1.0  0.5330896905197022  0.7119065513089781  0.3742094569852483  1.0000
  H   H44       1.0  0.46690767193148036  0.2880952543799822  0.8742076851294058  1.0000
  H   H45       1.0  0.9285612370934333  0.8095223020835577  0.3298327368085339  1.0000
  H   H46       1.0  0.071449971786933  0.19047247792003222  0.8298303743340796  1.0000
  H   H47       1.0  0.8783890114701622  0.6618476648200726  0.2946436797902123  1.0000
  H   H48       1.0  0.12160989921798661  0.3381471151835171  0.7946407266971391  1.0000
  H   H49       1.0  0.06989236684170665  0.69911453466721  0.375827161368818  1.0000
  H   H50       1.0  0.9301035585041931  0.3008758542830208  0.8758224364199094  1.0000
  H   H51       1.0  0.4881661189039832  0.532854324961754  0.458807304771014  1.0000
  H   H52       1.0  0.5118287495880054  0.46714484609518797  0.9588061235337904  1.0000
  H   H53       1.0  0.8005640365011288  0.532022659455798  0.4571252229585241  1.0000
  H   H54       1.0  0.19943107768238383  0.4679773898118214  0.9571240417213005  1.0000
  H   H55       1.0  0.6334508646671396  0.5053768694703606  0.3691821113434202  1.0000
  H   H56       1.0  0.36654625209250474  0.4946240580079291  0.8691809301061966  1.0000
  C   C1        1.0  0.9656787438182449  0.9956511500221126  0.6227807505581353  1.0000
  C   C2        1.0  0.0343261375544017  0.0043524120881955  0.12278015993952349  1.0000
  C   C3        1.0  0.97595346842337  0.11707162999205421  0.6237139279681543  1.0000
  C   C4        1.0  0.024045896603944097  0.8829310539075834  0.12371156549370001  1.0000
  C   C5        1.0  0.7987096824155698  0.1687156867431057  0.6628388674297483  1.0000
  C   C6        1.0  0.20129295068941394  0.8312861189458617  0.16283473309945154  1.0000
  C   C7        1.0  0.6199424247448279  0.0919916896339856  0.7004476889093638  1.0000
  C   C8        1.0  0.3800612281701703  0.9080074814229633  0.20044473581629066  1.0000
  C   C9        1.0  0.6202798257896732  0.9713141758921752  0.6955089360596318  1.0000
  C   C10       1.0  0.3797265667760429  0.028688508007455503  0.1955083454410129  1.0000
  C   C11       1.0  0.9655774819195742  0.4930678686979419  0.6213349161912163  1.0000
  C   C12       1.0  0.0344382234961103  0.5069304241483295  0.1213331443353738  1.0000
  C   C13       1.0  0.9761844547149892  0.3730867267510547  0.6228516247918066  1.0000
  C   C14       1.0  0.023824468853817424  0.6269124443058942  0.12284867169874052  1.0000
  C   C15       1.0  0.7970722245332169  0.2974657622454018  0.6613694083182722  1.0000
  C   C16       1.0  0.20293216545636744  0.7025360434435656  0.1613664552252061  1.0000
  C   C17       1.0  0.615221571729883  0.3497869194242185  0.6971526276622129  1.0000
  C   C18       1.0  0.38477652779588584  0.65021752089676  0.1971538088994436  1.0000
  C   C19       1.0  0.6194068738740698  0.470757804797941  0.6935457197869042  1.0000
  C   C20       1.0  0.3805987816170672  0.5292422444696783  0.19355044473581984  1.0000
  C   C21       1.0  0.751263264148058  0.7084279588389748  0.8281506549960441  1.0000
  C   C22       1.0  0.2487328328015792  0.2915756032713261  0.3281512456146558  1.0000
  C   C23       1.0  0.6329922414730191  0.7358860936955978  0.9058985080973798  1.0000
  C   C24       1.0  0.36700765198123975  0.2641121991506807  0.40589791747876813  1.0000
  C   C25       1.0  0.5941030261443174  0.8660158381628946  0.9075286154718469  1.0000
  C   C26       1.0  0.4058918423476712  0.13398333289405434  0.40752802485322803  1.0000
  C   C27       1.0  0.825683396407257  0.9494195056398098  0.896755141335035  1.0000
  C   C28       1.0  0.17431347466086322  0.050580543627809504  0.3967539600978043  1.0000
  C   C29       1.0  0.4652049973561816  0.891993309827285  0.9831124419717199  1.0000
  C   C30       1.0  0.5347891340612208  0.10800322659764561  0.4831094888786538  1.0000
  C   C31       1.0  0.48140763886875965  0.7581021890537514  0.5217530741698866  1.0000
  C   C32       1.0  0.51859397442621  0.2419022512672271  0.0217489398395898  1.0000
  C   C33       1.0  0.719968092520162  0.7658708406542589  0.4789698430135729  1.0000
  C   C34       1.0  0.2800275130464129  0.2341309650347014  0.9789692523949611  1.0000
  C   C35       1.0  0.6924952481362681  0.6883063959324717  0.40377228108721414  1.0000
  C   C36       1.0  0.3075068935856535  0.3116936533351478  0.9037705092313716  1.0000
  C   C37       1.0  0.9040965788794468  0.7167305625277933  0.3479859905264746  1.0000
  C   C38       1.0  0.0959043343848265  0.2832650956864669  0.8479842186706321  1.0000
  C   C39       1.0  0.6501166554786835  0.5574433455544323  0.4237706273550899  1.0000
  C   C40       1.0  0.34987694751175985  0.4425575819238646  0.9237700367364781  1.0000
  N   N1        1.0  0.7897475008131211  0.9230670380186724  0.6571476664658533  1.0000
  N   N2        1.0  0.21025537798339403  0.0769356458809654  0.15714707584724152  1.0000
  N   N3        1.0  0.7910216043791396  0.5419420489909328  0.6561140838914667  1.0000
  N   N4        1.0  0.2089875648811983  0.4580580002766866  0.1561158557473092  1.0000
  O   O1        1.0  0.1397550322726175  0.7663977670571924  0.6961456229254495  1.0000
  O   O2        1.0  0.8602443327546895  0.23360491684244522  0.1961432604509952  1.0000
  O   O3        1.0  0.632525764238359  0.7206667027576685  0.7652326446720323  1.0000
  O   O4        1.0  0.3674695956366847  0.2793342247206212  0.2652332352906441  1.0000
  O   O5        1.0  0.9578760829153554  0.6797842395757671  0.8325271389253075  1.0000
  O   O6        1.0  0.04211878557662632  0.3202149314811821  0.3325295013997689  1.0000
  O   O7        1.0  0.7777281009492185  0.7068234679420584  0.970127101125719  1.0000
  O   O8        1.0  0.2222768174673249  0.2931739466935426  0.4701288729815616  1.0000
  O   O9        1.0  0.46436502623771503  0.7157979027946055  0.5919971177811618  1.0000
  O   O10       1.0  0.5356353585996061  0.2842021464730067  0.0919953459253193  1.0000
  O   O11       1.0  0.3144476756072194  0.7934150401566953  0.4837172354323939  1.0000
  O   O12       1.0  0.6855504239185493  0.2065894001642832  0.983713691720709  1.0000
  O   O13       1.0  0.8938020950978685  0.7345810726376812  0.5324131495328217  1.0000
  O   O14       1.0  0.1061980440479218  0.2654180984192678  0.0324125589142099  1.0000
