data_image0
_chemical_formula_structural       Cu4H16C24Br4N8
_chemical_formula_sum              "Cu4 H16 C24 Br4 N8"
_cell_length_a       3.8197552328977817
_cell_length_b       12.653163001071519
_cell_length_c       14.875910699133277
_cell_angle_alpha    90.00007119489186
_cell_angle_beta     89.99950379346049
_cell_angle_gamma    97.67657561014789

_space_group_name_H-M_alt    "P 1"
_space_group_IT_number       1

loop_
  _space_group_symop_operation_xyz
  'x, y, z'

loop_
  _atom_site_type_symbol
  _atom_site_label
  _atom_site_symmetry_multiplicity
  _atom_site_fract_x
  _atom_site_fract_y
  _atom_site_fract_z
  _atom_site_occupancy
  Cu  Cu1       1.0  0.5109830138211606  0.9640340046803074  0.25386384964046727  1.0000
  Cu  Cu2       1.0  0.4890056811382025  0.5359729797650488  0.7538606882752461  1.0000
  Cu  Cu3       1.0  0.4890159166204242  0.03596666930209841  0.7461406636980925  1.0000
  Cu  Cu4       1.0  0.510975528095635  0.464022873229375  0.24613777503219575  1.0000
  H   H1        1.0  0.692242690304738  0.7459414195204276  0.2789262400748241  1.0000
  H   H2        1.0  0.3077762589797501  0.7540584847042878  0.7789283379132071  1.0000
  H   H3        1.0  0.3077817798640296  0.25405772015756156  0.7210816343728936  1.0000
  H   H4        1.0  0.6922609379769467  0.24593351435389377  0.2210707975569406  1.0000
  H   H5        1.0  0.7128535338297155  0.6173921539447917  0.4025273473804702  1.0000
  H   H6        1.0  0.28717253849792  0.8826094581139896  0.9025094081756606  1.0000
  H   H7        1.0  0.2871604971912021  0.382613334969342  0.5974865771309508  1.0000
  H   H8        1.0  0.7128735626747016  0.1173913248939584  0.0974702326823689  1.0000
  H   H9        1.0  0.2749436629845761  0.8428455280546532  0.5770671491307695  1.0000
  H   H10       1.0  0.7250507035369366  0.6571485825436129  0.0770635748269513  1.0000
  H   H11       1.0  0.7250335936675751  0.1571471291237998  0.42293736422990946  1.0000
  H   H12       1.0  0.2749420734800623  0.34286243392745064  0.922930855105683  1.0000
  H   H13       1.0  0.2567395726547089  0.9601856219561073  0.44224050424998745  1.0000
  H   H14       1.0  0.7432481848612014  0.5398151363760136  0.9422468492937311  1.0000
  H   H15       1.0  0.7432547826709168  0.03981663479000021  0.5577593035000347  1.0000
  H   H16       1.0  0.25673959727622986  0.4601839184973925  0.05776102519576649  1.0000
  C   C1        1.0  0.5996901399898036  0.7646986245032822  0.3455205937902263  1.0000
  C   C2        1.0  0.40031673754055663  0.7352901512517176  0.8455244852865531  1.0000
  C   C3        1.0  0.4003339107765881  0.23528697080537603  0.6544832472870964  1.0000
  C   C4        1.0  0.5997034473318621  0.26470499516435103  0.1544733057484891  1.0000
  C   C5        1.0  0.6135589444190755  0.6926877979272774  0.4154840024759351  1.0000
  C   C6        1.0  0.38644836165268254  0.8073137810362571  0.9154819219306063  1.0000
  C   C7        1.0  0.3864373653612603  0.307312869999592  0.584525888687615  1.0000
  C   C8        1.0  0.6135771077328299  0.19268775095595464  0.0845084745952036  1.0000
  C   C9        1.0  0.49784596798040326  0.7199636494076955  0.5010177299991554  1.0000
  C   C10       1.0  0.5021391476300677  0.7800399395338998  0.0010160873839737  1.0000
  C   C11       1.0  0.5021251350172875  0.2800393502644809  0.49899081673837736  1.0000
  C   C12       1.0  0.4978775042929228  0.21996555543046986  0.9989776702919142  1.0000
  C   C13       1.0  0.36944197507975934  0.818591014956006  0.5120572322372468  1.0000
  C   C14       1.0  0.6305411592646949  0.6814149681754885  0.0120606112396402  1.0000
  C   C15       1.0  0.630562905796822  0.1814176394836053  0.487941903275093  1.0000
  C   C16       1.0  0.3694368067079594  0.31858565734449934  0.9879365076175259  1.0000
  C   C17       1.0  0.36118567371399724  0.8841673588970876  0.43776802950202404  1.0000
  C   C18       1.0  0.6387999851529499  0.6158405610700087  0.9377719726745608  1.0000
  C   C19       1.0  0.6388061043708788  0.11584126525347932  0.5622264004309798  1.0000
  C   C20       1.0  0.3612153347729573  0.3841617441356249  0.062227162823838  1.0000
  C   C21       1.0  0.5071000954601104  0.6509209087976444  0.5756874113879106  1.0000
  C   C22       1.0  0.4928874964763992  0.849081948421585  0.0756824732051271  1.0000
  C   C23       1.0  0.4928601490858711  0.3490748957391788  0.4243171019931679  1.0000
  C   C24       1.0  0.5070987075166044  0.15092586617314652  0.9243099400507048  1.0000
  Br  Br1       1.0  0.06235550073871109  0.08434514995076368  0.28851741812066917  1.0000
  Br  Br2       1.0  0.9376300318677477  0.4156523792315808  0.7885148232943349  1.0000
  Br  Br3       1.0  0.9376368998585319  0.9156586956206212  0.7114891119096071  1.0000
  Br  Br4       1.0  0.06234165073632173  0.5843394683900771  0.21148498447817587  1.0000
  N   N1        1.0  0.4766850322446317  0.8591137256278287  0.3555914083288485  1.0000
  N   N2        1.0  0.5233241811384274  0.6408814368775495  0.8555936141808543  1.0000
  N   N3        1.0  0.5233397278203782  0.14087983802284754  0.6444063827004669  1.0000
  N   N4        1.0  0.4766743731461104  0.35911206619938696  0.1444068657893212  1.0000
  N   N5        1.0  0.5081024283588604  0.5961800383890079  0.6392519043337329  1.0000
  N   N6        1.0  0.49187265432309607  0.9038292136957936  0.13924633149160565  1.0000
  N   N7        1.0  0.4918532842617793  0.403823722376579  0.36075126459957113  1.0000
  N   N8        1.0  0.5081105529282581  0.09617142393624081  0.8607427206265754  1.0000
