data_image0
_chemical_formula_structural       K2Cu2H24C36N4O4
_chemical_formula_sum              "K2 Cu2 H24 C36 N4 O4"
_cell_length_a       7.2885117538856194
_cell_length_b       10.408452986808559
_cell_length_c       11.22610181180712
_cell_angle_alpha    73.07926377590705
_cell_angle_beta     69.96606453127643
_cell_angle_gamma    82.23962375189858

_space_group_name_H-M_alt    "P 1"
_space_group_IT_number       1

loop_
  _space_group_symop_operation_xyz
  'x, y, z'

loop_
  _atom_site_type_symbol
  _atom_site_label
  _atom_site_symmetry_multiplicity
  _atom_site_fract_x
  _atom_site_fract_y
  _atom_site_fract_z
  _atom_site_occupancy
  K   K1        1.0  0.7652273524190605  0.43815564451629285  0.9925207467466772  1.0000
  K   K2        1.0  0.2347664636509351  0.5618492225756172  0.007474714579892255  1.0000
  Cu  Cu1       1.0  0.691757754608247  0.6753637108112613  0.16270726076966469  1.0000
  Cu  Cu2       1.0  0.30824058910735636  0.3246391820461056  0.8372877699518921  1.0000
  H   H1        1.0  0.11675755878268755  0.7371288854134335  0.7215035602103579  1.0000
  H   H2        1.0  0.883244156469317  0.26287297183030495  0.2784749958988114  1.0000
  H   H3        1.0  0.16031816016443656  0.971276654316853  0.5853637072886638  1.0000
  H   H4        1.0  0.8396839555325786  0.0287333208103107  0.4146321542770363  1.0000
  H   H5        1.0  0.9918986840695468  0.16274940395637572  0.6774759740161753  1.0000
  H   H6        1.0  0.0081125101840485  0.837254630978464  0.3225249084110542  1.0000
  H   H7        1.0  0.7405913691243172  0.23850152495107577  0.8691741063271575  1.0000
  H   H8        1.0  0.2594141249081119  0.7615014484652747  0.13082561046387292  1.0000
  H   H9        1.0  0.5405943857510422  0.17537205573309225  0.10960665953069787  1.0000
  H   H10       1.0  0.45942074671184946  0.8246219143014457  0.8903845377040508  1.0000
  H   H11       1.0  0.5334695477355995  0.9369969276943878  0.23653193865833064  1.0000
  H   H12       1.0  0.46653584840167645  0.06300904237938451  0.7634616386483725  1.0000
  H   H13       1.0  0.22097444747029021  0.3496809348440096  0.23176264485695686  1.0000
  H   H14       1.0  0.7790146828301587  0.6503078118376637  0.7682399847298808  1.0000
  H   H15       1.0  0.2006114450011296  0.15211912774445585  0.41595885365375534  1.0000
  H   H16       1.0  0.799372481151977  0.847875667343793  0.5840592786251616  1.0000
  H   H17       1.0  0.4068630413358605  0.12241508437787021  0.560606731022659  1.0000
  H   H18       1.0  0.5931156412391729  0.8775927240999479  0.4394045276158562  1.0000
  H   H19       1.0  0.6752752681006697  0.21222874565566494  0.6081307534444346  1.0000
  H   H20       1.0  0.32473183465334193  0.7877722297702691  0.3918691630286017  1.0000
  H   H21       1.0  0.9143880685333202  0.3908136386608377  0.5416443946950549  1.0000
  H   H22       1.0  0.08561389613975477  0.6091812233580569  0.4583475923365368  1.0000
  H   H23       1.0  0.9166240829937069  0.5895109379225474  0.35118611156846646  1.0000
  H   H24       1.0  0.08337405073157104  0.41049198517666247  0.648817864563156  1.0000
  C   C1        1.0  0.9254994046956784  0.7873673856266096  0.89664824715399  1.0000
  C   C2        1.0  0.07451701163498829  0.21264275061852095  0.10335698655066483  1.0000
  C   C3        1.0  0.043330519468355526  0.8190548587790117  0.7644736580882279  1.0000
  C   C4        1.0  0.9566735571001318  0.18094809671102752  0.23552458476430618  1.0000
  C   C5        1.0  0.06590923730239952  0.9526429077548357  0.687449114663664  1.0000
  C   C6        1.0  0.9340956999254433  0.04735097610994641  0.31254339403466946  1.0000
  C   C7        1.0  0.9718318100079913  0.0593448905854927  0.737864454578904  1.0000
  C   C8        1.0  0.0281830262021074  0.9406511104866909  0.2621324896173645  1.0000
  C   C9        1.0  0.8505331733789916  0.0333435334637286  0.8708680266513862  1.0000
  C   C10       1.0  0.14947468277288323  0.9666503741569347  0.12912385175992092  1.0000
  C   C11       1.0  0.7412343168899369  0.13504789602957598  0.9297860149595746  1.0000
  C   C12       1.0  0.2587715900231515  0.864952035366578  0.07020642320068739  1.0000
  C   C13       1.0  0.6293133995941887  0.10085958793473541  0.060757562314762426  1.0000
  C   C14       1.0  0.3707061228874338  0.899133421871987  0.9392356305252175  1.0000
  C   C15       1.0  0.6217910169026767  0.9653739989680831  0.1333492624585729  1.0000
  C   C16       1.0  0.378200349021043  0.0346248117386949  0.8666474790905948  1.0000
  C   C17       1.0  0.8297858518965738  0.897877880544897  0.9507288465513991  1.0000
  C   C18       1.0  0.17022493884271483  0.10213018924756771  0.04927547892981465  1.0000
  C   C19       1.0  0.44213792023190734  0.4459201632541579  0.2608818836586905  1.0000
  C   C20       1.0  0.5578707072475524  0.5540788262780935  0.7391218106603856  1.0000
  C   C21       1.0  0.31416575138786845  0.34236185494905413  0.2917779174249658  1.0000
  C   C22       1.0  0.6858252669186414  0.6576380000063012  0.7082301957445191  1.0000
  C   C23       1.0  0.303060065102244  0.22830738091833785  0.39806441633414363  1.0000
  C   C24       1.0  0.6969179673057225  0.771690357267218  0.6019470479524924  1.0000
  C   C25       1.0  0.41722496005868953  0.21125722238597427  0.47833625509559125  1.0000
  C   C26       1.0  0.5827561195338405  0.7887385327112852  0.5216759882705443  1.0000
  C   C27       1.0  0.5513417229028621  0.31055696675952754  0.45153936199171324  1.0000
  C   C28       1.0  0.44865112574823485  0.6894398641019349  0.5484629464855003  1.0000
  C   C29       1.0  0.6796835929138754  0.2995261151624931  0.525010313144456  1.0000
  C   C30       1.0  0.3203082994490458  0.7004807952825945  0.47499836661520295  1.0000
  C   C31       1.0  0.8118889093437219  0.3980629324644696  0.48866545922678  1.0000
  C   C32       1.0  0.18809657673388366  0.6019358367789209  0.5113343319784605  1.0000
  C   C33       1.0  0.8155262846783842  0.5092730441818392  0.3810365133106329  1.0000
  C   C34       1.0  0.18448319409409208  0.49071588088771295  0.6189652824310411  1.0000
  C   C35       1.0  0.5640633916645187  0.42704617035732895  0.34346925089568686  1.0000
  C   C36       1.0  0.43594162245945267  0.5729447198742079  0.6565302918279837  1.0000
  N   N1        1.0  0.7152385903323407  0.8657017401053582  0.08040653345257436  1.0000
  N   N2        1.0  0.28475615166045304  0.13429205758966842  0.919587286709351  1.0000
  N   N3        1.0  0.6950692846988674  0.5248080020706282  0.3103933507904555  1.0000
  N   N4        1.0  0.3049381375733234  0.4751889505944077  0.6896067007926232  1.0000
  O   O1        1.0  0.8993790973235817  0.6635174364528069  0.9715277209130658  1.0000
  O   O2        1.0  0.10059227404236283  0.33649329719601445  0.028475395794671933  1.0000
  O   O3        1.0  0.46024940936755604  0.5531272364242099  0.1610258366162752  1.0000
  O   O4        1.0  0.5397765310320679  0.44687291872259044  0.8389791858139116  1.0000
