data_image0
_chemical_formula_structural       Cd6H24C16N44
_chemical_formula_sum              "Cd6 H24 C16 N44"
_cell_length_a       8.243625002416481
_cell_length_b       9.75752082966548
_cell_length_c       14.327775125522773
_cell_angle_alpha    81.94721451405755
_cell_angle_beta     73.28718370912058
_cell_angle_gamma    65.01261004174943

_space_group_name_H-M_alt    "P 1"
_space_group_IT_number       1

loop_
  _space_group_symop_operation_xyz
  'x, y, z'

loop_
  _atom_site_type_symbol
  _atom_site_label
  _atom_site_symmetry_multiplicity
  _atom_site_fract_x
  _atom_site_fract_y
  _atom_site_fract_z
  _atom_site_occupancy
  Cd  Cd1       1.0  0.9725860321073302  0.9608725898386438  0.8731929894585377  1.0000
  Cd  Cd2       1.0  0.806646344634871  0.5390981685003239  0.6268040864919513  1.0000
  Cd  Cd3       1.0  0.0274121821133662  0.0391237535550673  0.1268100711075419  1.0000
  Cd  Cd4       1.0  0.19334805698982663  0.46090722400546713  0.3731931269560107  1.0000
  Cd  Cd5       1.0  0.5817076708518703  0.24996086338395423  0.7499964821571014  1.0000
  Cd  Cd6       1.0  0.41828862511162884  0.7500400049128189  0.2500023985739901  1.0000
  H   H1        1.0  0.5023235062162287  0.784783093575399  0.014823950033196835  1.0000
  H   H2        1.0  0.3020342682192949  0.7151815002524061  0.485166813666325  1.0000
  H   H3        1.0  0.497680063502394  0.2152087272744723  0.9851747749523552  1.0000
  H   H4        1.0  0.6979621569133915  0.28482275961849257  0.5148365568065145  1.0000
  H   H5        1.0  0.6651314290950273  0.8088713489387941  0.9151900289005113  1.0000
  H   H6        1.0  0.38926364882902253  0.6910945665130226  0.5848284999006523  1.0000
  H   H7        1.0  0.33487386107869105  0.19112273318234674  0.08481089795131419  1.0000
  H   H8        1.0  0.6107391552411842  0.3089074318910789  0.41517343492028397  1.0000
  H   H9        1.0  0.6833086015004357  0.8748209562853474  0.5260889304919374  1.0000
  H   H10       1.0  0.0842458915696799  0.6251885156754824  0.9738520646269178  1.0000
  H   H11       1.0  0.3166973032619468  0.12518104403383748  0.4739060942205811  1.0000
  H   H12       1.0  0.915759561816074  0.37480669688707013  0.026150661220405907  1.0000
  H   H13       1.0  0.6419861077692205  0.054366909544711496  0.5433777624210094  1.0000
  H   H14       1.0  0.23968186046028006  0.44567074602146317  0.9566024419819  1.0000
  H   H15       1.0  0.35801962365664547  0.945636220771746  0.45662066659411954  1.0000
  H   H16       1.0  0.7603255446783168  0.5543233359883218  0.04339890323470298  1.0000
  H   H17       1.0  0.7078836695096271  0.909553921203809  0.253438424663166  1.0000
  H   H18       1.0  0.8709917806305683  0.5904427517461099  0.24654992757643157  1.0000
  H   H19       1.0  0.29210491144659334  0.09044694634454227  0.746563109650168  1.0000
  H   H20       1.0  0.12899864682768966  0.40955359298131094  0.7534482489163069  1.0000
  H   H21       1.0  0.9509067105304401  0.6569319024474182  0.7909952315976199  1.0000
  H   H22       1.0  0.3990799831622596  0.8429871105715067  0.7089942061156621  1.0000
  H   H23       1.0  0.04909612758262224  0.34306783482396247  0.2090040124770738  1.0000
  H   H24       1.0  0.6009181151359542  0.15701375647572746  0.2910092108391923  1.0000
  C   C1        1.0  0.72222040230357  0.8959031068908984  0.1771765780287566  1.0000
  C   C2        1.0  0.7952698407011812  0.6041330307091853  0.3227968579226825  1.0000
  C   C3        1.0  0.27777477876345846  0.10409436780530258  0.822825141433789  1.0000
  C   C4        1.0  0.20472553707353572  0.39586896877871414  0.6772011000696593  1.0000
  C   C5        1.0  0.6918132864446492  0.8377703288637263  0.04703901993740806  1.0000
  C   C6        1.0  0.5766902309551794  0.662166916557794  0.4529506819925402  1.0000
  C   C7        1.0  0.3081852302817437  0.1622282761068448  0.9529651260678094  1.0000
  C   C8        1.0  0.42330712249076213  0.3378339516833009  0.5470484079209471  1.0000
  C   C9        1.0  0.8794658278605925  0.7567289036498862  0.7508633435548904  1.0000
  C   C10       1.0  0.387041338054104  0.7432397181963282  0.7490758662163728  1.0000
  C   C11       1.0  0.12053910129896657  0.24327083420417484  0.24913380633272197  1.0000
  C   C12       1.0  0.6129601299463446  0.25676001799255493  0.2509272865349033  1.0000
  C   C13       1.0  0.7354543996273649  0.9034031909266388  0.6491475630662579  1.0000
  C   C14       1.0  0.2881298692000343  0.5966090411192154  0.8508365020765822  1.0000
  C   C15       1.0  0.26455102929280383  0.09659767781296578  0.3508497805097406  1.0000
  C   C16       1.0  0.711874468742039  0.40338843332577307  0.14916619278272955  1.0000
  N   N1        1.0  0.8245215065601245  0.8920813554220217  0.01938046166448974  1.0000
  N   N2        1.0  0.7360736442732831  0.6078519532149328  0.4805910972155729  1.0000
  N   N3        1.0  0.1754763471936302  0.1079149882215944  0.9806216916568502  1.0000
  N   N4        1.0  0.2639245688529996  0.3921557011448087  0.519406223911588  1.0000
  N   N5        1.0  0.8414433756334887  0.9304395495983042  0.10486558233817084  1.0000
  N   N6        1.0  0.8767597102733761  0.5695732425718063  0.3950920194732248  1.0000
  N   N7        1.0  0.15855433882660477  0.0695556629098633  0.8951372845395297  1.0000
  N   N8        1.0  0.12323933970927216  0.4304298876345953  0.6049067597546767  1.0000
  N   N9        1.0  0.626298551657591  0.8369695310488297  0.14515950966350027  1.0000
  N   N10       1.0  0.6084052640815972  0.6630162776613842  0.35482912768603114  1.0000
  N   N11       1.0  0.3736969079967453  0.16303020591826106  0.8548407826863168  1.0000
  N   N12       1.0  0.3915921473255891  0.3369823287529457  0.6451697840330723  1.0000
  N   N13       1.0  0.6341624343289569  0.7796313778609586  0.9870923481509521  1.0000
  N   N14       1.0  0.40099175186662017  0.7203107521956155  0.5129166280462627  1.0000
  N   N15       1.0  0.3658419716988277  0.2203615743185878  0.0129049652158741  1.0000
  N   N16       1.0  0.5990073220344176  0.27969237731674906  0.48708466373349774  1.0000
  N   N17       1.0  0.844498381547133  0.8965080643335028  0.7720175978253322  1.0000
  N   N18       1.0  0.5129910946943285  0.6034890050010021  0.7279477976577127  1.0000
  N   N19       1.0  0.15550796556181726  0.10349167321497527  0.22798066848941553  1.0000
  N   N20       1.0  0.487009594410992  0.396512993514463  0.2720537187984391  1.0000
  N   N21       1.0  0.7513094060259252  0.992681769002466  0.7063364695666294  1.0000
  N   N22       1.0  0.4504107121398134  0.5073217595861906  0.7936869294740062  1.0000
  N   N23       1.0  0.2486969410830256  0.0073179685460119  0.2936617967481255  1.0000
  N   N24       1.0  0.5495935439226332  0.49267797737960684  0.20631343102783012  1.0000
  N   N25       1.0  0.8133383332529859  0.754332871548847  0.675155231966933  1.0000
  N   N26       1.0  0.24285005717698044  0.7456669895281891  0.8248129411051791  1.0000
  N   N27       1.0  0.18666765338902294  0.24566686624953596  0.324842127103068  1.0000
  N   N28       1.0  0.7571530260277443  0.2543316156637943  0.1751904363224881  1.0000
  N   N29       1.0  0.6439172861492679  0.9538820806454921  0.5767163758616647  1.0000
  N   N30       1.0  0.174530438193223  0.546136535838393  0.9232404734361453  1.0000
  N   N31       1.0  0.35609201223373077  0.046118788121304995  0.42328089719914164  1.0000
  N   N32       1.0  0.8254767696904823  0.4538586768627084  0.07676176353120923  1.0000
  N   N33       1.0  0.7444448154423925  0.21499875779124264  0.8750252078814641  1.0000
  N   N34       1.0  0.8344629867385011  0.28489439041618425  0.6249749503828569  1.0000
  N   N35       1.0  0.25555393258175507  0.7849964553552907  0.12497535562675921  1.0000
  N   N36       1.0  0.16552587225783116  0.7151143948860791  0.3750222870982824  1.0000
  N   N37       1.0  0.7962072795457261  0.3164128252497774  0.8650733428248786  1.0000
  N   N38       1.0  0.9776767639579944  0.183521416175175  0.6349594594504849  1.0000
  N   N39       1.0  0.2037909926362077  0.6835812563171756  0.13492953954682457  1.0000
  N   N40       1.0  0.02231251291932098  0.8164907625334334  0.3650356373615651  1.0000
  N   N41       1.0  0.8438951808467509  0.41548589939994673  0.8549166706504678  1.0000
  N   N42       1.0  0.11430177023066818  0.08449307643557799  0.6451483350837605  1.0000
  N   N43       1.0  0.1561047304578551  0.5845070504760556  0.14508894894949262  1.0000
  N   N44       1.0  0.8856954189088242  0.915517972330143  0.3548432163953025  1.0000
