data_image0
_chemical_formula_structural       Zn16H16C96S16Br16O52
_chemical_formula_sum              "Zn16 H16 C96 S16 Br16 O52"
_cell_length_a       19.662075479190595
_cell_length_b       19.717015154048905
_cell_length_c       33.35860426126817
_cell_angle_alpha    79.0671341943854
_cell_angle_beta     79.2238532518692
_cell_angle_gamma    63.97640775803892

_space_group_name_H-M_alt    "P 1"
_space_group_IT_number       1

loop_
  _space_group_symop_operation_xyz
  'x, y, z'

loop_
  _atom_site_type_symbol
  _atom_site_label
  _atom_site_symmetry_multiplicity
  _atom_site_fract_x
  _atom_site_fract_y
  _atom_site_fract_z
  _atom_site_occupancy
  Zn  Zn1       1.0  0.056157008284344584  0.40033863027380784  0.47804924148541506  1.0000
  Zn  Zn2       1.0  0.9847837879464191  0.48396166222932663  0.5597581694404992  1.0000
  Zn  Zn3       1.0  0.05879967857315899  0.5618071259766496  0.4833927490374703  1.0000
  Zn  Zn4       1.0  0.9005674682885851  0.553516569859589  0.47870999936930037  1.0000
  Zn  Zn5       1.0  0.693609660951715  0.34981554165356954  0.27179102445158065  1.0000
  Zn  Zn6       1.0  0.6909350051392734  0.18843729741582396  0.26644532743520694  1.0000
  Zn  Zn7       1.0  0.7677264571127153  0.26507588981731095  0.1895970564114648  1.0000
  Zn  Zn8       1.0  0.8471814271434253  0.1971967235543204  0.27228105668451247  1.0000
  Zn  Zn9       1.0  0.26519089882298624  0.7659758749971812  0.6902892975664014  1.0000
  Zn  Zn10      1.0  0.34936207963337296  0.6965253612658487  0.7713483480289367  1.0000
  Zn  Zn11      1.0  0.19376948354396714  0.8496623604599451  0.7720308740506636  1.0000
  Zn  Zn12      1.0  0.19109554973051246  0.6882687507275097  0.7666385110253768  1.0000
  Zn  Zn13      1.0  0.5589709639256951  0.06164284347468659  0.9835835312749733  1.0000
  Zn  Zn14      1.0  0.4028169273184189  0.05278505177282262  0.9777443448702027  1.0000
  Zn  Zn15      1.0  0.556355308451458  0.9001067999131894  0.9782738401502866  1.0000
  Zn  Zn16      1.0  0.4824045133485697  0.9848284509289369  0.06039863151256948  1.0000
  H   H1        1.0  0.7961628940014264  0.5020849211794033  0.39902349825282346  1.0000
  H   H2        1.0  0.9536368783373204  0.24848994148140272  0.35090021266887544  1.0000
  H   H3        1.0  0.7476204835072194  0.4545344752615251  0.35088998995605875  1.0000
  H   H4        1.0  0.0021962814329298994  0.29601625696325573  0.3990104177703272  1.0000
  H   H5        1.0  0.15266484820571688  0.6527032509453079  0.5493098979606896  1.0000
  H   H6        1.0  0.09736552146356559  0.5972942782344007  0.7006976075346426  1.0000
  H   H7        1.0  0.20074864296384473  0.7005356874834163  0.5975734575220952  1.0000
  H   H8        1.0  0.049277151938760304  0.5494631825554918  0.6524397924150163  1.0000
  H   H9        1.0  0.7007533707418004  0.20049454529279856  0.09742364698407609  1.0000
  H   H10       1.0  0.549279785646007  0.04950126509619689  0.15258853766516714  1.0000
  H   H11       1.0  0.6524396222711885  0.15265662397274588  0.04930456493683266  1.0000
  H   H12       1.0  0.5975810006567385  0.09733769225299954  0.20070913810171473  1.0000
  H   H13       1.0  0.2479082814977572  0.954117388094517  0.8508965734671743  1.0000
  H   H14       1.0  0.5024625778787879  0.7955937523478198  0.8990347223033335  1.0000
  H   H15       1.0  0.29643562982116817  0.0016552840966213068  0.8990282921593572  1.0000
  H   H16       1.0  0.45393043948943995  0.7480763447111232  0.8508824095646329  1.0000
  C   C1        1.0  0.061553377723640786  0.3164094636905333  0.5614303885980545  1.0000
  C   C2        1.0  0.06944953910795698  0.5700052824516038  0.5694620216185837  1.0000
  C   C3        1.0  0.18360367633321317  0.4395025297479124  0.43878865934700406  1.0000
  C   C4        1.0  0.9375550361767466  0.683798357409351  0.43890499921116777  1.0000
  C   C5        1.0  0.930550001224823  0.43009378526438274  0.4306101944126013  1.0000
  C   C6        1.0  0.8166273805952285  0.5609720555902274  0.5616402413865058  1.0000
  C   C7        1.0  0.5662861367326784  0.31051070203849923  0.311258412172016  1.0000
  C   C8        1.0  0.6811928870003142  0.17966794180794213  0.1804427242791958  1.0000
  C   C9        1.0  0.6892208327052386  0.4332356695746925  0.18841160858546854  1.0000
  C   C10       1.0  0.9341165987963932  0.18846648832921178  0.18913750071781968  1.0000
  C   C11       1.0  0.8189490455025206  0.32030388720984615  0.3195701146499557  1.0000
  C   C12       1.0  0.8118958436296423  0.0663044184984187  0.3112979992332327  1.0000
  C   C13       1.0  0.43328786886242193  0.6891704210146302  0.6884017891279652  1.0000
  C   C14       1.0  0.31948053674780397  0.8200607049205432  0.8193470108493411  1.0000
  C   C15       1.0  0.18866620512413587  0.9334704071166228  0.688580581825377  1.0000
  C   C16       1.0  0.06621701950724909  0.8105400726211301  0.8112267111371521  1.0000
  C   C17       1.0  0.18064928805686975  0.6799209615256531  0.6805341657718527  1.0000
  C   C18       1.0  0.31237026741274576  0.566189877432116  0.8110658345425604  1.0000
  C   C19       1.0  0.43793505691638757  0.1837065346735827  0.9387165473600232  1.0000
  C   C20       1.0  0.4310381996020566  0.929851101269932  0.9303887202638561  1.0000
  C   C21       1.0  0.683530783870701  0.9395322215558012  0.9387487537397657  1.0000
  C   C22       1.0  0.561008619284486  0.8166381628919338  0.0616139297824887  1.0000
  C   C23       1.0  0.5689360704854564  0.07024152910582873  0.06956222349532476  1.0000
  C   C24       1.0  0.3160525090778065  0.06153401354712435  0.06093351502050128  1.0000
  C   C25       1.0  0.9019252199206064  0.4017961522659376  0.4017592081394098  1.0000
  C   C26       1.0  0.8478740113251176  0.34883545630291474  0.34813408906926196  1.0000
  C   C27       1.0  0.830156353522504  0.4467039942761062  0.3882636111187096  1.0000
  C   C28       1.0  0.9197027740797948  0.30392923292577473  0.36159785092177515  1.0000
  C   C29       1.0  0.8032649004173108  0.42037160318862027  0.3615867802200086  1.0000
  C   C30       1.0  0.9465999222552667  0.3302778767809187  0.3882689954182083  1.0000
  C   C31       1.0  0.09822333795192859  0.5984150951139711  0.5981491561422982  1.0000
  C   C32       1.0  0.15184296009348938  0.6515426870587862  0.6518573010077373  1.0000
  C   C33       1.0  0.14089801576104574  0.6409507936486278  0.582491466003411  1.0000
  C   C34       1.0  0.10913292073158228  0.6090330290430543  0.6675219700606546  1.0000
  C   C35       1.0  0.16756251294722793  0.6673996068134967  0.6092170127570709  1.0000
  C   C36       1.0  0.08247586761989818  0.5825775983615459  0.6407852484253735  1.0000
  C   C37       1.0  0.30489397800752727  0.45435459638505893  0.4007067519935957  1.0000
  C   C38       1.0  0.44495270225269207  0.29567560801358883  0.3492810786288769  1.0000
  C   C39       1.0  0.2584722062535291  0.41581959641779803  0.4138876518738213  1.0000
  C   C40       1.0  0.4913806617340908  0.33421761691655427  0.3361242260617557  1.0000
  C   C41       1.0  0.37694395462725777  0.3394275231570205  0.372792429750369  1.0000
  C   C42       1.0  0.37283959210490986  0.41065008415219506  0.37714759396315134  1.0000
  C   C43       1.0  0.7255816464690382  0.5760861517103136  0.6297511105239265  1.0000
  C   C44       1.0  0.5243063965578472  0.6739304045162555  0.6202911107739408  1.0000
  C   C45       1.0  0.7424731821139898  0.5853902672031523  0.5872204677023871  1.0000
  C   C46       1.0  0.5074301368502815  0.6647060412248748  0.6628278893809634  1.0000
  C   C47       1.0  0.6037835738367362  0.6416792028687937  0.6081934127821639  1.0000
  C   C48       1.0  0.6460902368695755  0.6083454017437686  0.6418434741060677  1.0000
  C   C49       1.0  0.07623109818535308  0.22532139553551636  0.6295951265757437  1.0000
  C   C50       1.0  0.17379290667427233  0.024518042338385684  0.6204108364614382  1.0000
  C   C51       1.0  0.08555913184302  0.24228445659666417  0.5870577117976196  1.0000
  C   C52       1.0  0.16456506300309565  0.007566728360103537  0.6629628151873985  1.0000
  C   C53       1.0  0.14163113804974609  0.10385815360821485  0.6082169633097292  1.0000
  C   C54       1.0  0.10839743158997087  0.14598043462293483  0.6417865003283223  1.0000
  C   C55       1.0  0.8432235855441517  0.8012781271658725  0.3970719582817848  1.0000
  C   C56       1.0  0.906521393749692  0.9486140052464689  0.35284191370237045  1.0000
  C   C57       1.0  0.9115864094330915  0.7583798581293665  0.41373932487473986  1.0000
  C   C58       1.0  0.838066652370827  0.9915335084262507  0.3362409271906656  1.0000
  C   C59       1.0  0.9085239144949141  0.8792259193809999  0.3750016354928148  1.0000
  C   C60       1.0  0.8413374642345273  0.8705943213561016  0.37486762095421955  1.0000
  C   C61       1.0  0.6520433450618127  0.15151252617307165  0.15179814974394643  1.0000
  C   C62       1.0  0.5980491067516451  0.0984244842185689  0.098214936262579  1.0000
  C   C63       1.0  0.6675920809933727  0.16735101457332757  0.10914566891878508  1.0000
  C   C64       1.0  0.5824656113570298  0.08260618932416015  0.14086537585979633  1.0000
  C   C65       1.0  0.6407644645638441  0.14091179847095972  0.08249247384352998  1.0000
  C   C66       1.0  0.6092823698245127  0.1090622638167104  0.16752480096843664  1.0000
  C   C67       1.0  0.6737966124957138  0.5245609960849793  0.12028343027179027  1.0000
  C   C68       1.0  0.5762181492999474  0.7252821698197921  0.1297398918820249  1.0000
  C   C69       1.0  0.6647359172618436  0.5074038641586327  0.1628200001349426  1.0000
  C   C70       1.0  0.5853613839487223  0.7424563833971118  0.08721381681227307  1.0000
  C   C71       1.0  0.6084571527606925  0.6459035414346205  0.14183038821325056  1.0000
  C   C72       1.0  0.6415860901906711  0.6039401387134832  0.10819189627129325  1.0000
  C   C73       1.0  0.08179824982985198  0.12384868421002439  0.17770635719163144  1.0000
  C   C74       1.0  0.16840156294273353  0.1260351019250479  0.0723604645928546  1.0000
  C   C75       1.0  0.009577436332932598  0.1629278410210304  0.16486399596715265  1.0000
  C   C76       1.0  0.240612034316399  0.08700296825666956  0.08521650143968877  1.0000
  C   C77       1.0  0.11045979352775248  0.13939884006076397  0.10603352846713676  1.0000
  C   C78       1.0  0.13971237041401707  0.11026537577836847  0.14402396270723014  1.0000
  C   C79       1.0  0.34824284219818213  0.8484439506701024  0.8480787563279008  1.0000
  C   C80       1.0  0.40225242546733847  0.9013706684773766  0.9017321685139303  1.0000
  C   C81       1.0  0.3035578487273653  0.9199394918455323  0.861590548615119  1.0000
  C   C82       1.0  0.4468820383756763  0.8298326642236235  0.8882810601756358  1.0000
  C   C83       1.0  0.3304293482876942  0.9462682686487153  0.8882750278168242  1.0000
  C   C84       1.0  0.42000429116713883  0.8035127688892842  0.8615872944348407  1.0000
  C   C85       1.0  0.4067000783052349  0.44867424740717615  0.8528882756321675  1.0000
  C   C86       1.0  0.34335380107079766  0.30137453218031157  0.8971241134874857  1.0000
  C   C87       1.0  0.33832811804482077  0.49159749524626056  0.8362197717394505  1.0000
  C   C88       1.0  0.41177941677813823  0.2584680150220322  0.9137469181620257  1.0000
  C   C89       1.0  0.3414209110938414  0.3707235633512767  0.8749296454696489  1.0000
  C   C90       1.0  0.4086062035827353  0.37934678733498106  0.8750730924764833  1.0000
  C   C91       1.0  0.9449241301892638  0.7956765891578994  0.8492880759958578  1.0000
  C   C92       1.0  0.8048619905212319  0.9543549421158702  0.9007132886959535  1.0000
  C   C93       1.0  0.9913378815476364  0.8342329233680911  0.8361153090222896  1.0000
  C   C94       1.0  0.75843286453631  0.9158304222123091  0.9138731560103677  1.0000
  C   C95       1.0  0.8728184222846094  0.910640712674102  0.8771591170596974  1.0000
  C   C96       1.0  0.8769239149592989  0.8394166156461508  0.8728075955176631  1.0000
  S   S1        1.0  0.29808482271914016  0.32594179844678467  0.3974128768009279  1.0000
  S   S2        1.0  0.451719160996717  0.42412963712181556  0.35255259001678485  1.0000
  S   S3        1.0  0.660935467425837  0.6336717057990525  0.5619845168121457  1.0000
  S   S4        1.0  0.5889678843978173  0.6164086403938851  0.6880583833503378  1.0000
  S   S5        1.0  0.13368524438519808  0.1610157102876002  0.5619547599205388  1.0000
  S   S6        1.0  0.11644125011724067  0.08884182609536852  0.6880561319757417  1.0000
  S   S7        1.0  0.9737242503450927  0.8028937336674529  0.4021520014448112  1.0000
  S   S8        1.0  0.776064670565887  0.9469010577982291  0.34776833685606323  1.0000
  S   S9        1.0  0.6166124499002876  0.5885523218120524  0.18803621330669518  1.0000
  S   S10       1.0  0.6334871478946836  0.6613054677016593  0.06199222743703097  1.0000
  S   S11       1.0  0.012581228311326197  0.18313514747403303  0.11147400451354623  1.0000
  S   S12       1.0  0.2375958828183115  0.06665432603467995  0.13859926530229663  1.0000
  S   S13       1.0  0.2762125638238401  0.44705795133099013  0.8477912971798386  1.0000
  S   S14       1.0  0.47383618080284146  0.303039028120928  0.9022064965646021  1.0000
  S   S15       1.0  0.9516865953400139  0.9241307161122949  0.8525618072481929  1.0000
  S   S16       1.0  0.7980545484091407  0.8259404054925384  0.8974185185746247  1.0000
  Br  Br1       1.0  0.2855113536923  0.5519002890761796  0.411112504274925  1.0000
  Br  Br2       1.0  0.4645197007888128  0.1980289460088614  0.33896952557658  1.0000
  Br  Br3       1.0  0.794847014171516  0.5278605733333634  0.6689395338280659  1.0000
  Br  Br4       1.0  0.4550400536131604  0.7220150381859797  0.5810977834247735  1.0000
  Br  Br5       1.0  0.02812737301307779  0.2943290252402094  0.6686685005170359  1.0000
  Br  Br6       1.0  0.22171067535840186  0.9555274804054645  0.5813236252725246  1.0000
  Br  Br7       1.0  0.7604450189986379  0.775743851104437  0.40154088437357416  1.0000
  Br  Br8       1.0  0.9893663884998247  0.9741164043443785  0.3482619611004834  1.0000
  Br  Br9       1.0  0.7215125184125596  0.4556723570165104  0.08114608458888023  1.0000
  Br  Br10      1.0  0.5282886757592352  0.7941888054318581  0.16886299631046592  1.0000
  Br  Br11      1.0  0.10583706105781937  0.0907256571587425  0.23195148900938983  1.0000
  Br  Br12      1.0  0.14442036097451447  0.15960520586524043  0.018119688068395586  1.0000
  Br  Br13      1.0  0.48951461205779606  0.47414713510904977  0.8484128635960954  1.0000
  Br  Br14      1.0  0.2605460418485136  0.2758292489638734  0.9016465607298084  1.0000
  Br  Br15      1.0  0.9645036491267475  0.6980231030646419  0.8389825084821605  1.0000
  Br  Br16      1.0  0.7854881778111603  0.05188674708094258  0.9111343010645496  1.0000
  O   O1        1.0  0.0005391860581483003  0.49939721708776125  0.49944992163069885  1.0000
  O   O2        1.0  0.07869739776000269  0.3145269255918564  0.5225239604356415  1.0000
  O   O3        1.0  0.03147470659578029  0.5311944318819215  0.5858113314086919  1.0000
  O   O4        1.0  0.15467720317024458  0.505375429568467  0.4503963581193273  1.0000
  O   O5        1.0  0.026218192454365394  0.3753371962528505  0.580012464499532  1.0000
  O   O6        1.0  0.15450152774202758  0.390915159274627  0.44643870393382884  1.0000
  O   O7        1.0  0.08500843256113198  0.5867650478357191  0.5309980527695899  1.0000
  O   O8        1.0  0.0044104604357784  0.6582485947064427  0.44988629616587156  1.0000
  O   O9        1.0  0.8865768805128409  0.49536150843169213  0.44192925976635405  1.0000
  O   O10       1.0  0.8920493598069824  0.6515884038677274  0.44756042375174565  1.0000
  O   O11       1.0  0.9964247723282322  0.3867847522076248  0.4416222714259772  1.0000
  O   O12       1.0  0.8759384810779591  0.5258883447694631  0.5801715161964792  1.0000
  O   O13       1.0  0.8143744674655407  0.5775324390926286  0.5226987318140741  1.0000
  O   O14       1.0  0.7488688820694518  0.2511051792274373  0.2499894358315727  1.0000
  O   O15       1.0  0.5953940245673975  0.3590937335560512  0.3035950300646987  1.0000
  O   O16       1.0  0.6652060043243749  0.16317352258387538  0.2188922543956194  1.0000
  O   O17       1.0  0.7251595916470136  0.3742608730282272  0.169906393217225  1.0000
  O   O18       1.0  0.5952643380907714  0.24458891690834864  0.29970381251924033  1.0000
  O   O19       1.0  0.6718089470554103  0.43530796987536746  0.22730591872583256  1.0000
  O   O20       1.0  0.7198284062970471  0.21784004206043767  0.16413691259572968  1.0000
  O   O21       1.0  0.8768564112610306  0.22343511135951394  0.16854166995002368  1.0000
  O   O22       1.0  0.8626547853884643  0.254624187814585  0.3086822402891868  1.0000
  O   O23       1.0  0.9322467072346186  0.17376368166085138  0.22806830896135458  1.0000
  O   O24       1.0  0.7532144396471734  0.3635256226800365  0.30837733312749543  1.0000
  O   O25       1.0  0.7452991578053767  0.09182147743786828  0.30001667842255125  1.0000
  O   O26       1.0  0.857124568280042  0.09884876743085884  0.3031543610504598  1.0000
  O   O27       1.0  0.24938621912235698  0.7506385595147834  0.7505995367659604  1.0000
  O   O28       1.0  0.3739979625968388  0.7242099082524974  0.669845467084947  1.0000
  O   O29       1.0  0.36337324032148627  0.7547455399943676  0.8080819874197258  1.0000
  O   O30       1.0  0.17170329479245075  0.9353413073635581  0.7274962734489347  1.0000
  O   O31       1.0  0.43551108104089303  0.6726998699487368  0.7273391092257737  1.0000
  O   O32       1.0  0.2238835360417112  0.874546579913826  0.6699808471999231  1.0000
  O   O33       1.0  0.253529300791257  0.8633236418991074  0.8084003926394981  1.0000
  O   O34       1.0  0.09534589466635168  0.8591171607172614  0.8035952828089632  1.0000
  O   O35       1.0  0.16514395399301657  0.6631600692230749  0.7189918659755958  1.0000
  O   O36       1.0  0.09514179426258809  0.7446855178667207  0.7996088010535227  1.0000
  O   O37       1.0  0.21860422386799164  0.7187552703617329  0.664163164468192  1.0000
  O   O38       1.0  0.3578249536796107  0.5984580472454867  0.8024914126533529  1.0000
  O   O39       1.0  0.24556040909502735  0.591708502766096  0.8000313292868453  1.0000
  O   O40       1.0  0.5011332626942674  0.998872432193622  1.4588859023929453e-05  1.0000
  O   O41       1.0  0.504603787732158  0.15814620435499896  0.9499180545068807  1.0000
  O   O42       1.0  0.38730855175730733  0.9955134096648165  0.9412780794541855  1.0000
  O   O43       1.0  0.6544559615633503  0.8909225026988994  0.9464114713326663  1.0000
  O   O44       1.0  0.39265185274631154  0.15124752730945093  0.9469559935838059  1.0000
  O   O45       1.0  0.6545603061809402  0.005444873393741988  0.9502993265224685  1.0000
  O   O46       1.0  0.49670429210710393  0.8865581285422977  0.9416638321475329  1.0000
  O   O47       1.0  0.578528746918728  0.8145408275837058  0.02272083756215437  1.0000
  O   O48       1.0  0.5302213548019238  0.03215271125804978  0.08584653015596189  1.0000
  O   O49       1.0  0.5250761727257327  0.8756358309850967  0.08009468333612088  1.0000
  O   O50       1.0  0.5850101657131146  0.08668878785749  0.03110660799681849  1.0000
  O   O51       1.0  0.3178864996439258  0.07622797380907544  0.0220120508764765  1.0000
  O   O52       1.0  0.37333377053182193  0.026582974543714492  0.08152305016980675  1.0000
