data_image0
_chemical_formula_structural       Cu4H48C68S8N20
_chemical_formula_sum              "Cu4 H48 C68 S8 N20"
_cell_length_a       7.144304202
_cell_length_b       14.39435264575619
_cell_length_c       16.375
_cell_angle_alpha    106.47516786028952
_cell_angle_beta     90.0
_cell_angle_gamma    90.0

_space_group_name_H-M_alt    "P 1"
_space_group_IT_number       1

loop_
  _space_group_symop_operation_xyz
  'x, y, z'

loop_
  _atom_site_type_symbol
  _atom_site_label
  _atom_site_symmetry_multiplicity
  _atom_site_fract_x
  _atom_site_fract_y
  _atom_site_fract_z
  _atom_site_occupancy
  Cu  Cu1       1.0  0.8614820738284124  0.1605167155267679  0.6250544704860131  1.0000
  Cu  Cu2       1.0  0.3614795684759642  0.3394934292858451  0.8749436311023331  1.0000
  Cu  Cu3       1.0  0.1385075399957074  0.8394861870274042  0.37494961189006654  1.0000
  Cu  Cu4       1.0  0.6385156442138822  0.6605058509618615  0.1250552734351942  1.0000
  H   H1        1.0  0.5248376740383378  0.8359413979158815  0.44202499129900014  1.0000
  H   H2        1.0  0.0248393678351917  0.6640615069927874  0.05797038937397045  1.0000
  H   H3        1.0  0.4751659369501198  0.16405498448664696  0.5579750228760786  1.0000
  H   H4        1.0  0.9751698420189996  0.335937773254912  0.9420279044765394  1.0000
  H   H5        1.0  0.6005917271550132  0.13738756425465937  0.7524945540986323  1.0000
  H   H6        1.0  0.1005934209518671  0.3626240294805427  0.7474904735869643  1.0000
  H   H7        1.0  0.3993936875198045  0.8626080936865745  0.2475040580965241  1.0000
  H   H8        1.0  0.8993807959914761  0.6373795975349239  0.25251012527285605  1.0000
  H   H9        1.0  0.8399698319564948  0.28280505749197  0.34372987504553976  1.0000
  H   H10       1.0  0.33998132376838447  0.21719349593994505  0.1562604513525727  1.0000
  H   H11       1.0  0.1600337790319628  0.7171934982944419  0.6562621313288588  1.0000
  H   H12       1.0  0.6600180880707711  0.7828079576916451  0.8437365522544907  1.0000
  H   H13       1.0  0.454790264822492  0.8348880311944171  0.6967846804288839  1.0000
  H   H14       1.0  0.9547745738612932  0.665125016172375  0.8032156714744686  1.0000
  H   H15       1.0  0.5452189450316993  0.1651083512081115  0.3032171658072683  1.0000
  H   H16       1.0  0.0452318365600277  0.3348858554560293  0.19678795481816985  1.0000
  H   H17       1.0  0.4446311229455659  0.005703683767627898  0.7967428261071843  1.0000
  H   H18       1.0  0.9446252299994101  0.4943122567353412  0.7032506134579535  1.0000
  H   H19       1.0  0.5553696886100212  0.994290525251017  0.20325847831133353  1.0000
  H   H20       1.0  0.0553601846754077  0.5056978904317759  0.2967540536028537  1.0000
  H   H21       1.0  0.7375497810584406  0.5616081907959013  0.5432669687177805  1.0000
  H   H22       1.0  0.2375612728703373  0.9383976119579456  0.9567334091878549  1.0000
  H   H23       1.0  0.2624440319149812  0.4383903649905107  0.4567335872749325  1.0000
  H   H24       1.0  0.7624423381181202  0.06160601505752079  0.0432671896719583  1.0000
  H   H25       1.0  0.7587750810614224  0.9506975158074054  0.5191340869277566  1.0000
  H   H26       1.0  0.2587725757089743  0.5493075624851471  0.9808551180055929  1.0000
  H   H27       1.0  0.2412215313448627  0.04930176444029399  0.4808648176097705  1.0000
  H   H28       1.0  0.7412240366973111  0.4506924422238469  0.01914335645079028  1.0000
  H   H29       1.0  0.4356379448580512  0.3610867226146865  0.19355486150185897  1.0000
  H   H30       1.0  0.9356852411363763  0.138915453123694  0.3064498030401452  1.0000
  H   H31       1.0  0.5643488695331982  0.6389147310169037  0.8064445848533025  1.0000
  H   H32       1.0  0.0643421650314551  0.8610809292788345  0.6935557073181399  1.0000
  H   H33       1.0  0.7285789984338609  0.7319884468404252  0.6383730599870319  1.0000
  H   H34       1.0  0.2285666950663838  0.7680188048360108  0.8616215722601339  1.0000
  H   H35       1.0  0.2714274119874602  0.26801010894598676  0.3616274960056884  1.0000
  H   H36       1.0  0.77143131705634  0.23198554664075025  0.13837676445746888  1.0000
  H   H37       1.0  0.5407636476227395  0.6729050060085979  0.3381035949437247  1.0000
  H   H38       1.0  0.0407919360318445  0.8270950010548999  0.16189411674084647  1.0000
  H   H39       1.0  0.4592231667685098  0.3270899274713415  0.6618960580196  1.0000
  H   H40       1.0  0.9592256721209511  0.1729042791928066  0.838106619857747  1.0000
  H   H41       1.0  0.8529508021640667  0.448208264446741  0.4415439062237425  1.0000
  H   H42       1.0  0.3529552953937909  0.051793186830345  0.058449585345975705  1.0000
  H   H43       1.0  0.147052808824391  0.5517902913396711  0.5584523749598205  1.0000
  H   H44       1.0  0.6470455161617963  0.9482089912625324  0.9415475988669683  1.0000
  H   H45       1.0  0.41923186853683353  0.5276918108561972  0.2890969147780496  1.0000
  H   H46       1.0  0.9192777650987269  0.9723067472847118  0.21091631355736237  1.0000
  H   H47       1.0  0.5807535461379842  0.4723074693915095  0.710907485942684  1.0000
  H   H48       1.0  0.0807552399348381  0.027688186195227595  0.7890937210853508  1.0000
  C   C1        1.0  0.6080102242544427  0.882704649982017  0.6016126911034689  1.0000
  C   C2        1.0  0.10800351975269963  0.6173018772331245  0.89837992847675  1.0000
  C   C3        1.0  0.3919919870175761  0.11729245688180608  0.3983868929904659  1.0000
  C   C4        1.0  0.89200429038506  0.3827031987049309  0.10161981022077528  1.0000
  C   C5        1.0  0.5727443687034679  0.7729958539257638  0.4601637086870625  1.0000
  C   C6        1.0  0.0727544607989259  0.7270063265216178  0.039834544815143036  1.0000
  C   C7        1.0  0.4272536434192561  0.2270034263219429  0.5398351958504648  1.0000
  C   C8        1.0  0.9272589482045674  0.27299512710997215  0.9601649015400182  1.0000
  C   C9        1.0  0.581190257665348  0.6813044102511865  0.40384273033171064  1.0000
  C   C10       1.0  0.0812143469251438  0.8186963212736058  0.09615821539385645  1.0000
  C   C11       1.0  0.4187993561587717  0.3186941455352255  0.596158436348027  1.0000
  C   C12       1.0  0.9188018615112128  0.1813051323579771  0.9038436737093958  1.0000
  C   C13       1.0  0.599532141814585  0.06376128740716068  0.7103565532273919  1.0000
  C   C14       1.0  0.09953243589500722  0.4362532041732194  0.7896322503168278  1.0000
  C   C15       1.0  0.400461671158837  0.9362379928405458  0.2896411299360864  1.0000
  C   C16       1.0  0.9004501793469402  0.5637540451487197  0.21036864088535615  1.0000
  C   C17       1.0  0.748569748542181  0.3388631479600689  0.33292818337788077  1.0000
  C   C18       1.0  0.2485924380855451  0.16113468101054446  0.16706684791054022  1.0000
  C   C19       1.0  0.2514268638641042  0.661135407826343  0.6670674871186577  1.0000
  C   C20       1.0  0.7514125726193441  0.8388653236984493  0.8329328479198848  1.0000
  C   C21       1.0  0.517829293854021  0.8957775540321717  0.6796069913456221  1.0000
  C   C22       1.0  0.0178197899194075  0.6042362177959077  0.8203892663544464  1.0000
  C   C23       1.0  0.4821715177015662  0.1042173794477677  0.32039266161771  1.0000
  C   C24       1.0  0.9821838210690432  0.3957710315260313  0.1796116248477375  1.0000
  C   C25       1.0  0.7551078240047175  0.43194990408688466  0.38856067277619377  1.0000
  C   C26       1.0  0.2551235149659163  0.06805009826761219  0.1114361217039104  1.0000
  C   C27       1.0  0.24488738868513596  0.5680479272382328  0.6114360384885131  1.0000
  C   C28       1.0  0.7448814957389729  0.9319513553639707  0.8885639353382756  1.0000
  C   C29       1.0  0.5129372849176974  0.9891338097603535  0.7346349104053189  1.0000
  C   C30       1.0  0.0129291806995226  0.5108785131451369  0.7653585433349048  1.0000
  C   C31       1.0  0.4870635266378898  0.0108603992582914  0.26536272989106635  1.0000
  C   C32       1.0  0.9870590334081657  0.48912801171550757  0.23464155657438107  1.0000
  C   C33       1.0  0.6359807577521723  0.5031050434605646  0.37439652012771046  1.0000
  C   C34       1.0  0.136004847011975  0.9968971369868169  0.12560600818365938  1.0000
  C   C35       1.0  0.3640116555048111  0.4968920634032584  0.6256024532792068  1.0000
  C   C36       1.0  0.8640085619915183  0.0031043166447730997  0.8743946595455512  1.0000
  C   C37       1.0  0.8640239588722949  0.3255272644601916  0.544298552209689  1.0000
  C   C38       1.0  0.3640228532362855  0.17446839112653825  0.9556953265740731  1.0000
  C   C39       1.0  0.1359684543846953  0.6744770870165693  0.4557065020651621  1.0000
  C   C40       1.0  0.635968160304266  0.825497563901642  0.04428794184879334  1.0000
  C   C41       1.0  0.6910945923352187  0.6201555302701747  0.5178998846480879  1.0000
  C   C42       1.0  0.19110468443068385  0.8798495480223849  0.9820978699035834  1.0000
  C   C43       1.0  0.308899220638196  0.3798394032097647  0.4821003790022614  1.0000
  C   C44       1.0  0.8088989265577737  0.12015335453179428  0.017902548350356498  1.0000
  C   C45       1.0  0.7284082330289295  0.327678914503359  0.7804435012853543  1.0000
  C   C46       1.0  0.22840712739292  0.1723312303092541  0.7195588751121491  1.0000
  C   C47       1.0  0.271591178810219  0.6723290592798676  0.21956123464484983  1.0000
  C   C48       1.0  0.7715880852969335  0.8276694988610416  0.2804379478890411  1.0000
  C   C49       1.0  0.5171126390398939  0.4764905089030407  0.3033170218388861  1.0000
  C   C50       1.0  0.0171465263147255  0.023508768990161896  0.1966911950887678  1.0000
  C   C51       1.0  0.4828769747842259  0.523508771344666  0.6966849361337494  1.0000
  C   C52       1.0  0.9828738812709332  0.9764876134123666  0.8033130938954754  1.0000
  C   C53       1.0  0.687866846238748  0.9608906862139291  0.5801478833854361  1.0000
  C   C54       1.0  0.1878727391849111  0.539115116539918  0.9198445555889095  1.0000
  C   C55       1.0  0.31212696673466683  0.03910786957248289  0.4198520619202597  1.0000
  C   C56       1.0  0.8121294720871148  0.46088488816907597  0.08015514024152279  1.0000
  C   C57       1.0  0.5235527343520587  0.3818707926781286  0.2505408436853998  1.0000
  C   C58       1.0  0.0235824224775953  0.11813283198284097  0.24946112863324998  1.0000
  C   C59       1.0  0.4764410786213631  0.61812993649216  0.7494590327509059  1.0000
  C   C60       1.0  0.9764351856752  0.8818671727261602  0.7505422313193151  1.0000
  C   C61       1.0  0.6362285075609648  0.6021403512723822  0.4321574605726042  1.0000
  C   C62       1.0  0.136251197104329  0.8978618291749993  0.06784079292960135  1.0000
  C   C63       1.0  0.3637639056960182  0.3978545822075574  0.5678452458258363  1.0000
  C   C64       1.0  0.863763611615596  0.10213962445658348  0.932159874799602  1.0000
  C   C65       1.0  0.6842317826600279  0.7129206255824554  0.5717856201511181  1.0000
  C   C66       1.0  0.1842348761733206  0.7870859016326861  0.9282088314901669  1.0000
  C   C67       1.0  0.3157676291791276  0.28707430789748395  0.4282128114381578  1.0000
  C   C68       1.0  0.8157715342480003  0.21291700092148594  0.07178975470269927  1.0000
  S   S1        1.0  0.8772540786050912  0.2071031990371708  0.5017352016929165  1.0000
  S   S2        1.0  0.3772529729690817  0.2929004256237988  0.9982612744425267  1.0000
  S   S3        1.0  0.1227439335176257  0.7929054992073572  0.49827154690422765  1.0000
  S   S4        1.0  0.6227632354672821  0.707080743091552  0.0017288401388952119  1.0000
  S   S5        1.0  0.6441005127849664  0.4139477653923862  0.8596715759423859  1.0000
  S   S6        1.0  0.1440854099846192  0.0860594815750559  0.6403325207797009  1.0000
  S   S7        1.0  0.3558960996213187  0.5860587594682585  0.14033218808903308  1.0000
  S   S8        1.0  0.8559084029888027  0.913940523133945  0.3596659536766822  1.0000
  N   N1        1.0  0.6220885721461613  0.78755028132214  0.5429859739036971  1.0000
  N   N2        1.0  0.12209306537588563  0.712459868199474  0.9570099914540009  1.0000
  N   N3        1.0  0.37791223940942603  0.2124475500029774  0.4570131801090938  1.0000
  N   N4        1.0  0.8779175441947376  0.2875466566611706  0.042990108455278196  1.0000
  N   N5        1.0  0.7900615427909514  0.2661098469718368  0.7224264385436995  1.0000
  N   N6        1.0  0.2900660360206757  0.23389884891819424  0.7775700804588438  1.0000
  N   N7        1.0  0.2099420681975062  0.7338974023501021  0.27757750609359977  1.0000
  N   N8        1.0  0.7099277769527461  0.7661026047133956  0.22242570177417778  1.0000
  N   N9        1.0  0.6850016266986501  0.0508245820802742  0.6344108633788393  1.0000
  N   N10       1.0  0.1850033204955039  0.44918846057751677  0.8655800217017171  1.0000
  N   N11       1.0  0.3149879871254698  0.9491754226287199  0.3655906645126592  1.0000
  N   N12       1.0  0.8149876930450475  0.5508151664379566  0.13442179853214498  1.0000
  N   N13       1.0  0.635541246791945  0.31275066507928523  0.2645314022143452  1.0000
  N   N14       1.0  0.1355695352010429  0.1872493372752118  0.23546539226575186  1.0000
  N   N15       1.0  0.3644525661814768  0.6872493396297159  0.7354646294939398  1.0000
  N   N16       1.0  0.8644396746531484  0.8127492185111931  0.7645357744139858  1.0000
  N   N17       1.0  0.852892014073845  0.4107108723308101  0.5731412701013382  1.0000
  N   N18       1.0  0.3528839098556631  0.08929565017533747  0.9268540963965534  1.0000
  N   N19       1.0  0.14710179889957695  0.5892999992976016  0.4268623561913074  1.0000
  N   N20       1.0  0.64710850340132  0.9106934876142532  0.07314044759761631  1.0000
