data_image0
_chemical_formula_structural       Tl4H16C24N4O12
_chemical_formula_sum              "Tl4 H16 C24 N4 O12"
_cell_length_a       3.9019993419446424
_cell_length_b       13.761083887709358
_cell_length_c       15.33570446548326
_cell_angle_alpha    116.58546746115137
_cell_angle_beta     90.15623074388412
_cell_angle_gamma    97.88278646967002

_space_group_name_H-M_alt    "P 1"
_space_group_IT_number       1

loop_
  _space_group_symop_operation_xyz
  'x, y, z'

loop_
  _atom_site_type_symbol
  _atom_site_label
  _atom_site_symmetry_multiplicity
  _atom_site_fract_x
  _atom_site_fract_y
  _atom_site_fract_z
  _atom_site_occupancy
  Tl  Tl1       1.0  0.6367078572883927  0.9568050978229369  0.36062414740784027  1.0000
  Tl  Tl2       1.0  0.6807853210832489  0.042865242020717204  0.13930660701219463  1.0000
  Tl  Tl3       1.0  0.36328047676764896  0.043193131318133716  0.6393735943966304  1.0000
  Tl  Tl4       1.0  0.3192094303861098  0.9571355613169533  0.860696038925873  1.0000
  H   H1        1.0  0.28578788964124874  0.42544409579866754  0.45926599392912937  1.0000
  H   H2        1.0  0.8589825252609059  0.5751437341896661  0.041475498244309926  1.0000
  H   H3        1.0  0.7142174912093466  0.5745574864740277  0.5407356503718787  1.0000
  H   H4        1.0  0.14101230084617095  0.4248520600028484  0.9585226153345016  1.0000
  H   H5        1.0  0.13028261095695368  0.5323878108756972  0.6303185032089471  1.0000
  H   H6        1.0  0.5967608827738928  0.46825071281861613  0.870384079107758  1.0000
  H   H7        1.0  0.869712534346  0.467613796340288  0.3696837993074523  1.0000
  H   H8        1.0  0.403246185355755  0.5317491310958575  0.12961363709668916  1.0000
  H   H9        1.0  0.9826469896182387  0.43330362250107174  0.7323126353520023  1.0000
  H   H10       1.0  0.5510949121717346  0.5669295007699945  0.7676733428616416  1.0000
  H   H11       1.0  0.01734393130493571  0.5666946418594279  0.26768642536064385  1.0000
  H   H12       1.0  0.4489096312690534  0.433070400047832  0.23232635101688703  1.0000
  H   H13       1.0  0.004989326458350312  0.23695026674951694  0.6667671934509156  1.0000
  H   H14       1.0  0.7739139504541653  0.762562140804299  0.8323589291041315  1.0000
  H   H15       1.0  0.9950079372642192  0.7630504612602355  0.3332328154966079  1.0000
  H   H16       1.0  0.22608119484878128  0.23743946641168628  0.16764337341226815  1.0000
  C   C1        1.0  0.16175135839375088  0.21238530713798556  0.5239432992769081  1.0000
  C   C2        1.0  0.9524069669968609  0.7874399661076054  0.9757006759425262  1.0000
  C   C3        1.0  0.8382451176616285  0.7876138131151367  0.4760573965139513  1.0000
  C   C4        1.0  0.047601887897080544  0.2125582868451162  0.024298386696969525  1.0000
  C   C5        1.0  0.23190483634884632  0.27189156049166746  0.46656749957710986  1.0000
  C   C6        1.0  0.9612246901807281  0.7282326869006115  0.0335127254449077  1.0000
  C   C7        1.0  0.7680954329457561  0.7281100434649518  0.5334348034898182  1.0000
  C   C8        1.0  0.03878292103416211  0.2717630622943688  0.9664840708773281  1.0000
  C   C9        1.0  0.22785908796597454  0.3861877266027066  0.5064786942588809  1.0000
  C   C10       1.0  0.841483829886016  0.6142023979550048  0.9939788648907281  1.0000
  C   C11       1.0  0.7721492735853488  0.6138146947677401  0.49352392552862767  1.0000
  C   C12       1.0  0.15851179632390713  0.38579502241869795  0.006019221161210473  1.0000
  C   C13       1.0  0.13932369497402425  0.44468005607423333  0.6008162422199702  1.0000
  C   C14       1.0  0.6945375308260394  0.5557380223236381  0.8996240212512062  1.0000
  C   C15       1.0  0.8606791114450942  0.5553215094035835  0.39918474248931796  1.0000
  C   C16       1.0  0.30546833093151793  0.4442593731067746  0.10037340658533364  1.0000
  C   C17       1.0  0.057047821853437666  0.3886975562391798  0.6578091566557659  1.0000
  C   C18       1.0  0.6701773974075279  0.6114531147044175  0.8421837193758535  1.0000
  C   C19       1.0  0.9429490729068417  0.6113024047413803  0.34219251434632975  1.0000
  C   C20       1.0  0.3298292893241808  0.38854594375629875  0.15781499956671038  1.0000
  C   C21       1.0  0.06934241837833353  0.2779506900507443  0.6209902128870083  1.0000
  C   C22       1.0  0.7954652861129076  0.7218480080293476  0.8785519493616503  1.0000
  C   C23       1.0  0.9306629624722615  0.7220508922219437  0.3790114314139996  1.0000
  C   C24       1.0  0.2045303774039766  0.27814946761802883  0.12144811463964088  1.0000
  N   N1        1.0  0.3123209082598066  0.21817929764331015  0.3677149959386269  1.0000
  N   N2        1.0  0.09567890068377254  0.7818584989721986  0.13233963121930967  1.0000
  N   N3        1.0  0.6876779681040971  0.7818247011533755  0.6322856172715843  1.0000
  N   N4        1.0  0.9043218619534484  0.21813893656669597  0.8676591146996058  1.0000
  O   O1        1.0  0.1862080994463682  0.10968818145373403  0.4946319973221519  1.0000
  O   O2        1.0  0.08026652748163343  0.8898512338600925  0.004793404184780956  1.0000
  O   O3        1.0  0.8137901011950319  0.8903092557148469  0.5053667483214992  1.0000
  O   O4        1.0  0.9197354788346385  0.11014870543653642  0.9952076080513944  1.0000
  O   O5        1.0  0.21368757065039998  0.1152173960880134  0.3184639834136433  1.0000
  O   O6        1.0  0.10095854968434997  0.8850075309864566  0.18137659901618247  1.0000
  O   O7        1.0  0.7863185729960733  0.8847857570921962  0.6815356554111246  1.0000
  O   O8        1.0  0.8990371138325342  0.11498994466091972  0.8186234649851086  1.0000
  O   O9        1.0  0.47482216032256724  0.27224306012363547  0.3289153677735256  1.0000
  O   O10       1.0  0.2036303555964524  0.7275701798556685  0.171356213288  1.0000
  O   O11       1.0  0.5251702737329185  0.7277634473198379  0.6710875109281459  1.0000
  O   O12       1.0  0.7963865791185541  0.27242887208630867  0.8286425067556207  1.0000
