data_image0
_chemical_formula_structural       Cu4H4C8N16O8
_chemical_formula_sum              "Cu4 H4 C8 N16 O8"
_cell_length_a       4.857559393918061
_cell_length_b       9.4013629060325
_cell_length_c       10.429635272932789
_cell_angle_alpha    90.00007499825631
_cell_angle_beta     90.00220710323083
_cell_angle_gamma    89.99971083346112

_space_group_name_H-M_alt    "P 1"
_space_group_IT_number       1

loop_
  _space_group_symop_operation_xyz
  'x, y, z'

loop_
  _atom_site_type_symbol
  _atom_site_label
  _atom_site_symmetry_multiplicity
  _atom_site_fract_x
  _atom_site_fract_y
  _atom_site_fract_z
  _atom_site_occupancy
  Cu  Cu1       1.0  0.1455912468670988  0.8535818267631328  0.5912832428801806  1.0000
  Cu  Cu2       1.0  0.35441147695749464  0.1464049827969731  0.0912892940016761  1.0000
  Cu  Cu3       1.0  0.8544072249735564  0.3535845050146166  0.9087069510755869  1.0000
  Cu  Cu4       1.0  0.6455683234007168  0.6464100166609298  0.40870788742631  1.0000
  H   H1        1.0  0.8109821056176614  0.13195481835535358  0.6823341886855588  1.0000
  H   H2        1.0  0.6890015040030731  0.8680457364359171  0.1823629970390712  1.0000
  H   H3        1.0  0.18901444243201837  0.6319555683404232  0.8176586362788072  1.0000
  H   H4        1.0  0.31100492434588034  0.36804116321525265  0.3176440180929063  1.0000
  C   C1        1.0  0.2875159411593984  0.992713794878675  0.8453270351696318  1.0000
  C   C2        1.0  0.21248924303888123  0.0072893614127310016  0.34533038317105275  1.0000
  C   C3        1.0  0.7124749785913451  0.49271538308298807  0.6546824888947285  1.0000
  C   C4        1.0  0.7875248726916695  0.5072787469780308  0.1546704797487095  1.0000
  C   C5        1.0  0.9642184594886345  0.0990168970391565  0.7515977960526996  1.0000
  C   C6        1.0  0.5357626373722297  0.9009816371623671  0.2516133417149007  1.0000
  C   C7        1.0  0.0357681213937155  0.5990232529632068  0.7483978687743118  1.0000
  C   C8        1.0  0.46424346481938283  0.40097762654511365  0.24838891585056186  1.0000
  N   N1        1.0  0.008711991501762398  0.16884851275253962  0.8625317719341509  1.0000
  N   N2        1.0  0.49128020398831035  0.8311525427327026  0.3625448748305046  1.0000
  N   N3        1.0  0.9912780155220345  0.6688490478904967  0.6374620526274342  1.0000
  N   N4        1.0  0.5087204133461825  0.3311471829841394  0.1374573053681161  1.0000
  N   N5        1.0  0.216325308179151  0.10011996017392019  0.9241512851911865  1.0000
  N   N6        1.0  0.2836658020613427  0.8998790629439309  0.4241607352456853  1.0000
  N   N7        1.0  0.7836633206950196  0.6001134888443572  0.5758491748999646  1.0000
  N   N8        1.0  0.7163300176823597  0.3998762650040534  0.07583864458840138  1.0000
  N   N9        1.0  0.1343646178661757  0.9874827518605828  0.7368108363373125  1.0000
  N   N10       1.0  0.3656501292943232  0.012525555529713002  0.23682557021706427  1.0000
  N   N11       1.0  0.8656510570736201  0.4874819858549487  0.7631900528994038  1.0000
  N   N12       1.0  0.6343577586055532  0.5125208208582919  0.2631743396413881  1.0000
  N   N13       1.0  0.5009107521325618  0.8956435735867172  0.8734104167169363  1.0000
  N   N14       1.0  0.9991133460673963  0.10436897609915971  0.3734075143939677  1.0000
  N   N15       1.0  0.4990934798970984  0.39563715819035383  0.6265913295331345  1.0000
  N   N16       1.0  0.0008915741898932  0.6043582152184256  0.1265905795136462  1.0000
  O   O1        1.0  0.6437333281818453  0.9174328593269226  0.9714352734293287  1.0000
  O   O2        1.0  0.856288574764356  0.08259898761651391  0.47142115248790617  1.0000
  O   O3        1.0  0.3562562780111023  0.41741495993746014  0.528573208452876  1.0000
  O   O4        1.0  0.143712443760208  0.5825579252153261  0.0285759584572247  1.0000
  O   O5        1.0  0.5366030009709563  0.7940645800937814  0.7975451325613035  1.0000
  O   O6        1.0  0.9634086531270253  0.20594891633189147  0.2975330722755132  1.0000
  O   O7        1.0  0.4634063539145643  0.2940605008366219  0.7024632129089028  1.0000
  O   O8        1.0  0.0365973202735361  0.7059381805281434  0.20246034008238206  1.0000
