data_image0
_chemical_formula_structural       CuSiH12C24N8O8F6
_chemical_formula_sum              "Cu1 Si1 H12 C24 N8 O8 F6"
_cell_length_a       7.8839917307655005
_cell_length_b       13.785037424528962
_cell_length_c       13.784766439215534
_cell_angle_alpha    89.90365818617344
_cell_angle_beta     90.34896470176245
_cell_angle_gamma    90.35209864278733

_space_group_name_H-M_alt    "P 1"
_space_group_IT_number       1

loop_
  _space_group_symop_operation_xyz
  'x, y, z'

loop_
  _atom_site_type_symbol
  _atom_site_label
  _atom_site_symmetry_multiplicity
  _atom_site_fract_x
  _atom_site_fract_y
  _atom_site_fract_z
  _atom_site_occupancy
  Cu  Cu1       1.0  0.5000260502556839  0.5014730869528775  0.49851210644446553  1.0000
  Si  Si1       1.0  1.1954374315301473e-05  0.5000206662145033  0.499963700072243  1.0000
  H   H1        1.0  0.23908748621673223  0.6589187675329314  0.4981639945223506  1.0000
  H   H2        1.0  0.23165049536574855  0.83878771762231  0.5002024734919246  1.0000
  H   H3        1.0  0.7690669236305963  0.6576146863540446  0.493200284247493  1.0000
  H   H4        1.0  0.23118369086405008  0.34398546773349636  0.49251067644074453  1.0000
  H   H5        1.0  0.7611363869578511  0.34297169693565616  0.49860459165255117  1.0000
  H   H6        1.0  0.768865868597082  0.1631544212879774  0.5004455147075504  1.0000
  H   H7        1.0  0.23892651340545965  0.5015121899833518  0.6570010076792983  1.0000
  H   H8        1.0  0.23115784646369514  0.49966965447424627  0.8368131522041863  1.0000
  H   H9        1.0  0.7689052813005898  0.5074271562433097  0.6559987042209201  1.0000
  H   H10       1.0  0.2309654392780657  0.5068501998787056  0.3423846313467108  1.0000
  H   H11       1.0  0.7609334081653427  0.5017019213682659  0.3410527764981026  1.0000
  H   H12       1.0  0.7683475580355505  0.49973103926651413  0.1611800930287615  1.0000
  C   C1        1.0  0.3565489298308009  0.7008896041044609  0.499082996929168  1.0000
  C   C2        1.0  0.3532088769557617  0.8015547107436729  0.5012049351939467  1.0000
  C   C3        1.0  0.5063711747068922  0.8546445423114906  0.504233047964604  1.0000
  C   C4        1.0  0.6564783655268797  0.7996232940893292  0.5015441678330248  1.0000
  C   C5        1.0  0.6519064586823474  0.6991214627221252  0.49671701177882005  1.0000
  C   C6        1.0  0.5055288300934391  0.9568313370218106  0.5058081510455779  1.0000
  C   C7        1.0  0.49543906262177007  0.044938590140319  0.5056687117539482  1.0000
  C   C8        1.0  0.49438006647177696  0.1471350031639034  0.5039637080066797  1.0000
  C   C9        1.0  0.3442252588145678  0.20209859285019857  0.5008976214899192  1.0000
  C   C10       1.0  0.3485526374687636  0.30265725312775527  0.4962435036438393  1.0000
  C   C11       1.0  0.643692546405468  0.3010568850243729  0.4992583314179555  1.0000
  C   C12       1.0  0.6473045014395709  0.20037138661017198  0.5012704499868121  1.0000
  C   C13       1.0  0.3563744486578955  0.5008204071315703  0.6989155660797124  1.0000
  C   C14       1.0  0.35273227958911946  0.4988190902097998  0.7996044813023246  1.0000
  C   C15       1.0  0.5056461898640875  0.4960781981037314  0.8528453381749799  1.0000
  C   C16       1.0  0.6558048297374768  0.49909942866226226  0.7978863465815706  1.0000
  C   C17       1.0  0.6515140688097317  0.5037316985121052  0.6973244167456016  1.0000
  C   C18       1.0  0.5045631508892185  0.494367359405139  0.9550408295781024  1.0000
  C   C19       1.0  0.4944625119745041  0.49423289679009486  0.0431368970103279  1.0000
  C   C20       1.0  0.493626762383954  0.4957898089011508  0.1453424170326301  1.0000
  C   C21       1.0  0.3435336367980852  0.49850097784606356  0.2003569414555599  1.0000
  C   C22       1.0  0.3481136627751197  0.5033128679998811  0.30087810626887546  1.0000
  C   C23       1.0  0.643469304095099  0.5008543556746048  0.299093048703881  1.0000
  C   C24       1.0  0.6467976751053184  0.4987593482808422  0.1984164457185358  1.0000
  N   N1        1.0  0.5033056628734015  0.6506616505789468  0.49760450563426417  1.0000
  N   N2        1.0  0.4969652465500544  0.3513985102437545  0.4975912615205118  1.0000
  N   N3        1.0  0.5031064321207666  0.5024222868873238  0.6485750742368523  1.0000
  N   N4        1.0  0.49672951241915086  0.502376246323301  0.3493242755974748  1.0000
  N   N5        1.0  0.8240304577329665  0.8470616049741864  0.504778187978701  1.0000
  N   N6        1.0  0.1768452658376702  0.15451120860046075  0.5036605284556046  1.0000
  N   N7        1.0  0.8231734566369511  0.4963108706187001  0.8454858274474828  1.0000
  N   N8        1.0  0.17595985499939099  0.4952940838902223  0.15294565459065979  1.0000
  O   O1        1.0  0.8450468803252702  0.9117540007802489  0.5658042521453908  1.0000
  O   O2        1.0  0.9312644641384505  0.8177239607533481  0.4465967104630053  1.0000
  O   O3        1.0  0.15630790893609964  0.0902648038953089  0.5652875984434615  1.0000
  O   O4        1.0  0.06925877322272808  0.18322233533636734  0.4445335739755265  1.0000
  O   O5        1.0  0.8436818133630763  0.43467295296522934  0.9097178885832946  1.0000
  O   O6        1.0  0.9307820524068828  0.5554441799559058  0.81679352962891  1.0000
  O   O7        1.0  0.15488405030779256  0.43427749031118873  0.08825438283534481  1.0000
  O   O8        1.0  0.06877438986474259  0.5534931181085626  0.18230811359265428  1.0000
  F   F1        1.0  0.21995563642565935  0.5002665136527752  0.5003825368189823  1.0000
  F   F2        1.0  0.7800722332751416  0.4996230084396772  0.4997012026291259  1.0000
  F   F3        1.0  7.345697928680076e-05  0.587389602365981  0.4126389395582919  1.0000
  F   F4        1.0  0.9999847552382304  0.4121994075378553  0.5877294769372057  1.0000
  F   F5        1.0  0.0007266766963524999  0.587461554460596  0.5873801584684628  1.0000
  F   F6        1.0  0.9992631826270467  0.41266676196401153  0.412470448650808  1.0000
