data_image0
_chemical_formula_structural       Ca2H24C16O14
_chemical_formula_sum              "Ca2 H24 C16 O14"
_cell_length_a       6.050378397811391
_cell_length_b       8.456119027373264
_cell_length_c       10.372191767514552
_cell_angle_alpha    72.53562473870373
_cell_angle_beta     85.01971216905393
_cell_angle_gamma    74.93643510584934

_space_group_name_H-M_alt    "P 1"
_space_group_IT_number       1

loop_
  _space_group_symop_operation_xyz
  'x, y, z'

loop_
  _atom_site_type_symbol
  _atom_site_label
  _atom_site_symmetry_multiplicity
  _atom_site_fract_x
  _atom_site_fract_y
  _atom_site_fract_z
  _atom_site_occupancy
  Ca  Ca1       1.0  0.20522486401942794  0.09926553331942499  0.07933142446565  1.0000
  Ca  Ca2       1.0  0.7947686173110567  0.9007361248689421  0.9206681212497331  1.0000
  H   H1        1.0  0.21885029565137157  0.5357231469892555  0.36351980136535633  1.0000
  H   H2        1.0  0.7811523092689042  0.4642811907938836  0.6364823900246677  1.0000
  H   H3        1.0  0.5609807822732406  0.5841228031230231  0.4152348684229139  1.0000
  H   H4        1.0  0.4390369545596401  0.41586107806964634  0.584770817373318  1.0000
  H   H5        1.0  0.4943424007763396  0.9367542262416962  0.3795063621906607  1.0000
  H   H6        1.0  0.5056573089008864  0.0632487995007693  0.6204953692954972  1.0000
  H   H7        1.0  0.25684663754358883  0.8926526644896601  0.5908296499886986  1.0000
  H   H8        1.0  0.7431627470153898  0.1073415426966946  0.4091786470626957  1.0000
  H   H9        1.0  0.414069697977517  0.680563875079642  0.6063837984102064  1.0000
  H   H10       1.0  0.5859175170738877  0.31944158099716446  0.3936141505406283  1.0000
  H   H11       1.0  0.07055211101582154  0.6124890727030846  0.5635887975953294  1.0000
  H   H12       1.0  0.92945423705946  0.38750874241616623  0.4364090907234511  1.0000
  H   H13       1.0  0.9204264136199357  0.8233424215832059  0.5618644066252969  1.0000
  H   H14       1.0  0.07957801860752768  0.17664655920583533  0.4381416706044874  1.0000
  H   H15       1.0  0.890429970456445  0.8448151759620828  0.3168399465330082  1.0000
  H   H16       1.0  0.109564777131915  0.15518785577169328  0.6831630280927782  1.0000
  H   H17       1.0  0.8093739579347456  0.3650902188427592  0.04088210412221122  1.0000
  H   H18       1.0  0.19062369465401469  0.6349088925430807  0.9591178674462029  1.0000
  H   H19       1.0  0.8596889506934743  0.3985543780059971  0.17569822825757336  1.0000
  H   H20       1.0  0.14031573082996124  0.6014434093565484  0.8242987971277386  1.0000
  H   H21       1.0  0.5925719414511478  0.2226782742499722  0.16449381215156925  1.0000
  H   H22       1.0  0.40742696800381856  0.7773221883659077  0.8355086303422468  1.0000
  H   H23       1.0  0.36307906674224444  0.3575160490256337  0.16122104489716088  1.0000
  H   H24       1.0  0.6369323658792182  0.6424767954980126  0.838783633140757  1.0000
  C   C1        1.0  0.22997742123898485  0.6664781983201422  0.30931140044761907  1.0000
  C   C2        1.0  0.770023851316097  0.3335298644140537  0.690685077083245  1.0000
  C   C3        1.0  0.1971661329158252  0.6936755422211931  0.15944807368460087  1.0000
  C   C4        1.0  0.802843825734101  0.3063312019310587  0.8405453626116283  1.0000
  C   C5        1.0  0.46527066359640656  0.696299162879285  0.33932734332628206  1.0000
  C   C6        1.0  0.5347441494527417  0.3036885940306107  0.6606794295573195  1.0000
  C   C7        1.0  0.616446422090803  0.727395407058502  0.21304220740114493  1.0000
  C   C8        1.0  0.3835537164210621  0.27260108513736725  0.7869554111168497  1.0000
  C   C9        1.0  0.3807093876853854  0.8504350985919942  0.39731172386890967  1.0000
  C   C10       1.0  0.6192832273155205  0.14956909496624593  0.6026862479053605  1.0000
  C   C11       1.0  0.2926511704245554  0.7900117411373985  0.5422615137832452  1.0000
  C   C12       1.0  0.7073377111786882  0.2099937426961134  0.457737298101044  1.0000
  C   C13       1.0  0.06687377080660888  0.748289947223732  0.5184491263906422  1.0000
  C   C14       1.0  0.9331280718237595  0.2517066619902906  0.4815531870008057  1.0000
  C   C15       1.0  0.059021043993588734  0.80131398911508  0.363633638882888  1.0000
  C   C16       1.0  0.9409741606044051  0.19868257601817868  0.6363680967297185  1.0000
  O   O1        1.0  0.27752534937579293  0.5687839737387747  0.11185960918732721  1.0000
  O   O2        1.0  0.7224751424717227  0.43121106109160223  0.8881306534287319  1.0000
  O   O3        1.0  0.09520658817930898  0.8426522192275739  0.08733537847093935  1.0000
  O   O4        1.0  0.9047939784358333  0.15734824882965628  0.9126669689713368  1.0000
  O   O5        1.0  0.7825638528434598  0.6085220037978231  0.199033763138317  1.0000
  O   O6        1.0  0.21741988786362032  0.39148831673914236  0.8009525111168398  1.0000
  O   O7        1.0  0.5632612185986261  0.8759445716577118  0.1256520689466072  1.0000
  O   O8        1.0  0.4367313772532668  0.1240648319737829  0.8743484078038932  1.0000
  O   O9        1.0  0.16908184486660355  0.9438671266202547  0.32380100435567266  1.0000
  O   O10       1.0  0.8309116270722184  0.0561345092527574  0.6761975833747158  1.0000
  O   O11       1.0  0.8777813715096414  0.3048306681699628  0.13410479859098956  1.0000
  O   O12       1.0  0.12221876700222364  0.6951658240259064  0.8658928199270051  1.0000
  O   O13       1.0  0.42659765692390295  0.23255493655628362  0.17309740870860676  1.0000
  O   O14       1.0  0.5734012810717389  0.7674403383017037  0.8269034867939806  1.0000
