data_image0
_chemical_formula_structural       Zn2H50C56N2O8
_chemical_formula_sum              "Zn2 H50 C56 N2 O8"
_cell_length_a       11.859785027490211
_cell_length_b       13.104351504629506
_cell_length_c       13.104930389199993
_cell_angle_alpha    96.90339537337783
_cell_angle_beta     90.70263757721813
_cell_angle_gamma    90.7073584296102

_space_group_name_H-M_alt    "P 1"
_space_group_IT_number       1

loop_
  _space_group_symop_operation_xyz
  'x, y, z'

loop_
  _atom_site_type_symbol
  _atom_site_label
  _atom_site_symmetry_multiplicity
  _atom_site_fract_x
  _atom_site_fract_y
  _atom_site_fract_z
  _atom_site_occupancy
  Zn  Zn1       1.0  0.38075012195427155  0.5062191936923455  0.5161867440056369  1.0000
  Zn  Zn2       1.0  0.6192396282508811  0.48382621270162934  0.49377979821185397  1.0000
  H   H1        1.0  0.1940328488792531  0.4106205944383773  0.41379850279514585  1.0000
  H   H2        1.0  0.3671248316105391  0.49864669770317965  0.8309515546255782  1.0000
  H   H3        1.0  0.030620563184669415  0.8159726955643907  0.6290267537521501  1.0000
  H   H4        1.0  0.3627838477042431  0.8251055511978366  0.5427468674088729  1.0000
  H   H5        1.0  0.6328747041129789  0.1690756012152193  0.5014107262480962  1.0000
  H   H6        1.0  0.2807639061526572  0.4934533159543122  0.190765493795368  1.0000
  H   H7        1.0  0.7200754805925628  0.4458905591182259  0.8126704880832492  1.0000
  H   H8        1.0  0.7192294443216695  0.8092409935347717  0.5064995498779794  1.0000
  H   H9        1.0  0.27993443289022224  0.18736562281964808  0.5541844769325409  1.0000
  H   H10       1.0  0.805918708503647  0.5862022281218771  0.5893511692354281  1.0000
  H   H11       1.0  0.15741855357752854  0.689329398908434  0.8152751916629627  1.0000
  H   H12       1.0  0.24543147275262103  0.5817633569862152  0.7831309717217465  1.0000
  H   H13       1.0  0.30692693662083315  0.7054207223611259  0.8147268784026879  1.0000
  H   H14       1.0  0.3170251017517742  0.6719378079751765  0.6306533282283341  1.0000
  H   H15       1.0  0.20548755245452097  0.7580172717491891  0.6539310866054393  1.0000
  H   H16       1.0  0.8424855796171258  0.1847401849267598  0.3106292622769331  1.0000
  H   H17       1.0  0.7544193225168598  0.21689554269091357  0.4181559310987879  1.0000
  H   H18       1.0  0.6929935529573187  0.18531334354435813  0.2944806107340128  1.0000
  H   H19       1.0  0.6829557554533068  0.3694089431116366  0.3280163642853893  1.0000
  H   H20       1.0  0.7944843753191648  0.34612919338393766  0.24193545142351516  1.0000
  H   H21       1.0  0.8288831954210921  0.3172106467956155  0.887228287083154  1.0000
  H   H22       1.0  0.8858568771040825  0.4440465926173119  0.897767913406959  1.0000
  H   H23       1.0  0.9300044835445364  0.35913699437080043  0.9850835534658274  1.0000
  H   H24       1.0  0.7927015915241997  0.4850395389089073  0.06969796343670961  1.0000
  H   H25       1.0  0.7435882553174411  0.35779332366232797  0.06384924799407798  1.0000
  H   H26       1.0  0.1220400726526307  0.43525673547064514  0.09023592940977208  1.0000
  H   H27       1.0  0.1368101144117091  0.5708214107635854  0.1164185204074784  1.0000
  H   H28       1.0  0.0547843796523253  0.5161378642190613  0.009074927876852693  1.0000
  H   H29       1.0  0.23934879892726  0.574734167309451  0.9499445761090328  1.0000
  H   H30       1.0  0.6372262036350023  0.45725210880131323  0.17487644947365769  1.0000
  H   H31       1.0  0.22222502785968598  0.44156087316979864  0.9210585891643746  1.0000
  H   H32       1.0  0.17107791679709547  0.112737317700109  0.6828356563835954  1.0000
  H   H33       1.0  0.11410605501045268  0.1022252900545126  0.5559974590216115  1.0000
  H   H34       1.0  0.069971975846066  0.014849874649222303  0.6408760206918914  1.0000
  H   H35       1.0  0.20728925434642057  0.9302790209092254  0.5149724631711479  1.0000
  H   H36       1.0  0.2564089942729026  0.9361394703328613  0.6422194023191707  1.0000
  H   H37       1.0  0.8778897904560382  0.9097617911366528  0.564783500184639  1.0000
  H   H38       1.0  0.8631570975807321  0.88361116302881  0.42922109533612474  1.0000
  H   H39       1.0  0.9452352224834258  0.9909351750702838  0.4839379031463906  1.0000
  H   H40       1.0  0.7606654424824059  0.05012369516967401  0.4253181068346521  1.0000
  H   H41       1.0  0.7777798897669969  0.07898328306556121  0.5584990655113984  1.0000
  H   H42       1.0  0.0798604351182846  0.23787959070028114  0.4521777665775986  1.0000
  H   H43       1.0  0.16642919719294014  0.093868940578183  0.340934061614341  1.0000
  H   H44       1.0  0.15103267202582063  0.0863251452523954  0.1501142878969475  1.0000
  H   H45       1.0  0.054284220503333806  0.2263664642381897  0.07220891999328671  1.0000
  H   H46       1.0  0.9694222943762726  0.3710127776623224  0.1840720338525372  1.0000
  H   H47       1.0  0.9200625745132881  0.5478486757481775  0.7621136653164271  1.0000
  H   H48       1.0  0.8335060349752652  0.6590934909753446  0.9061175700119436  1.0000
  H   H49       1.0  0.8489867428596581  0.849926694872849  0.9136908659073626  1.0000
  H   H50       1.0  0.9457463350228608  0.9278240251700395  0.773667615069165  1.0000
  C   C1        1.0  0.5318130836038577  0.6932412171508061  0.5168001684915922  1.0000
  C   C2        1.0  0.0273449113936053  0.4628020495768794  0.4650503236917558  1.0000
  C   C3        1.0  0.9884312141140655  0.7818089960526395  0.6904425588599423  1.0000
  C   C4        1.0  0.0172879872245275  0.31301812888238345  0.32541868180823036  1.0000
  C   C5        1.0  0.0745105201292589  0.23501712700831937  0.36867310148250715  1.0000
  C   C6        1.0  0.1224857724773756  0.1539031394159593  0.3060829685984956  1.0000
  C   C7        1.0  0.11423706506045052  0.1499690929797595  0.19925035738153704  1.0000
  C   C8        1.0  0.05954441948181001  0.2283658802875692  0.1555883007353529  1.0000
  C   C9        1.0  0.011585726086089203  0.3095853577647674  0.2182232802140547  1.0000
  C   C10       1.0  0.982695523407287  0.6745941427427058  0.6869867336912066  1.0000
  C   C11       1.0  0.9254380721474006  0.6313522532613688  0.7649829385938601  1.0000
  C   C12       1.0  0.8774809062263884  0.6939410714616657  0.8461026519573807  1.0000
  C   C13       1.0  0.9726155597014242  0.5349525936640305  0.5371878667901343  1.0000
  C   C14       1.0  0.8857679751694861  0.8007840598595166  0.850050826024983  1.0000
  C   C15       1.0  0.9404842530374893  0.8444390703884608  0.7716592902211447  1.0000
  C   C16       1.0  0.8442733723524044  0.4031377273500638  0.39540120352066305  1.0000
  C   C17       1.0  0.15569740356760062  0.604562800888445  0.5968902996738451  1.0000
  C   C18       1.0  0.9614535730949927  0.3946241654718604  0.3945960308194287  1.0000
  C   C19       1.0  0.038516495316528704  0.6053965126962808  0.6053754890303935  1.0000
  C   C20       1.0  0.46218860954794394  0.298241993560417  0.5084528244524549  1.0000
  C   C21       1.0  0.8533205527561024  0.5339616471398757  0.5353358813891944  1.0000
  C   C22       1.0  0.14664351205700402  0.46463783031365585  0.4660509133519994  1.0000
  C   C23       1.0  0.4605528749510128  0.4765658779206561  0.1918985899819106  1.0000
  C   C24       1.0  0.5430107668244801  0.47808066897798085  0.8138523712439465  1.0000
  C   C25       1.0  0.5394409918069131  0.808117626978678  0.5234033540164518  1.0000
  C   C26       1.0  0.4570040496329923  0.18615072751828882  0.5219580152939614  1.0000
  C   C27       1.0  0.4682138666683003  0.48317933824516507  0.3067671443732465  1.0000
  C   C28       1.0  0.6532590553033657  0.4467259254605267  0.9651234472877093  1.0000
  C   C29       1.0  0.3466494983307626  0.4879566709191466  0.03772320346320159  1.0000
  C   C30       1.0  0.34673609037067615  0.03487965616933051  0.5532823016145585  1.0000
  C   C31       1.0  0.6533460589432353  0.9623062021426707  0.5120638456994087  1.0000
  C   C32       1.0  0.5378411698757618  0.4915954537337512  0.7017753702998774  1.0000
  C   C33       1.0  0.6464068213754147  0.45608298281734255  0.8613822053888214  1.0000
  C   C34       1.0  0.35502392685407363  0.48585210488616326  0.1426023582066733  1.0000
  C   C35       1.0  0.35360530615792385  0.138644816082433  0.5439851109599303  1.0000
  C   C36       1.0  0.6449765216755593  0.8574204660446086  0.5141285299509946  1.0000
  C   C37       1.0  0.44548817740110275  0.4855804069799561  0.8707965872348352  1.0000
  C   C38       1.0  0.557497394085182  0.4636590295036599  0.1343998472593881  1.0000
  C   C39       1.0  0.5545319204645268  0.1292301115154331  0.5144811461998559  1.0000
  C   C40       1.0  0.4424990084281077  0.8655870492426774  0.5363273343467512  1.0000
  C   C41       1.0  0.44729122737946625  0.4780358946632504  0.9775241228165258  1.0000
  C   C42       1.0  0.5537341248514595  0.46204935783120515  0.02631364815663061  1.0000
  C   C43       1.0  0.5527074834783292  0.022502803438570102  0.521971241009588  1.0000
  C   C44       1.0  0.446247399227957  0.973685274614951  0.5379667953718084  1.0000
  C   C45       1.0  0.2320257117910955  0.6793052890821655  0.6619346775485796  1.0000
  C   C46       1.0  0.23482767905603205  0.663432329493695  0.7757742187626206  1.0000
  C   C47       1.0  0.7679369866673227  0.33810312946502563  0.3206382071805223  1.0000
  C   C48       1.0  0.7650845725225537  0.2242649587623262  0.3364954376078018  1.0000
  C   C49       1.0  0.762471373356952  0.4189665767432161  0.015526011126460989  1.0000
  C   C50       1.0  0.856781817145098  0.3829590317938242  0.9421516249879502  1.0000
  C   C51       1.0  0.23455450378610723  0.5029967643436777  0.9857050061944861  1.0000
  C   C52       1.0  0.1315053297746687  0.5064576445183491  0.05444974692827739  1.0000
  C   C53       1.0  0.23754411245331403  0.9844761398598083  0.581037411280633  1.0000
  C   C54       1.0  0.1432071088774975  0.057811839500573094  0.6170685094304318  1.0000
  C   C55       1.0  0.7654232659740006  0.014314891806385798  0.49704815917004913  1.0000
  C   C56       1.0  0.8684751498413307  0.9455683411339707  0.4936001784940843  1.0000
  N   N1        1.0  0.20681129730809292  0.5321519338918606  0.5286765590668736  1.0000
  N   N2        1.0  0.7931595669364314  0.4713476745993077  0.46781097200976524  1.0000
  O   O1        1.0  0.4330582814069928  0.6534330525675927  0.5042513035354474  1.0000
  O   O2        1.0  0.37204236287492876  0.34969538799851557  0.5240547368234942  1.0000
  O   O3        1.0  0.37727283473010687  0.4769945401406659  0.3564232810528978  1.0000
  O   O4        1.0  0.6279807127813584  0.4759616048397887  0.6503281194039162  1.0000
  O   O5        1.0  0.6227335886823441  0.6435909904881143  0.5228952480119844  1.0000
  O   O6        1.0  0.5566062327592078  0.33392142006771053  0.4820333064429292  1.0000
  O   O7        1.0  0.5669481956637413  0.49578470471411856  0.3465512818703473  1.0000
  O   O8        1.0  0.44341021013486437  0.5179796003259654  0.6660909578261993  1.0000
