data_image0
_chemical_formula_structural       Cd2H36C38N8Cl2O4
_chemical_formula_sum              "Cd2 H36 C38 N8 Cl2 O4"
_cell_length_a       9.405574279308722
_cell_length_b       9.804618541921391
_cell_length_c       10.776301106234138
_cell_angle_alpha    86.10530479552143
_cell_angle_beta     80.81037813473263
_cell_angle_gamma    72.07305377516165

_space_group_name_H-M_alt    "P 1"
_space_group_IT_number       1

loop_
  _space_group_symop_operation_xyz
  'x, y, z'

loop_
  _atom_site_type_symbol
  _atom_site_label
  _atom_site_symmetry_multiplicity
  _atom_site_fract_x
  _atom_site_fract_y
  _atom_site_fract_z
  _atom_site_occupancy
  Cd  Cd1       1.0  0.45696564880740453  0.7015788425992255  0.5027308385393141  1.0000
  Cd  Cd2       1.0  0.5430310464611523  0.2984178679924341  0.4972687627330287  1.0000
  H   H1        1.0  0.08667050425008689  0.9057200597777351  0.5485165566642394  1.0000
  H   H2        1.0  0.9133287362349309  0.0942820558573132  0.45148419452701205  1.0000
  H   H3        1.0  0.241577747316498  0.8188086895351319  0.12080223183483697  1.0000
  H   H4        1.0  0.7584236530532567  0.18119342354592763  0.8791945087722793  1.0000
  H   H5        1.0  0.17256709198589007  0.9858458949253472  0.1948850771192454  1.0000
  H   H6        1.0  0.8274328763765055  0.014157296517851104  0.8051145749546508  1.0000
  H   H7        1.0  0.47837211545132163  0.7581004991256391  0.9718513349448656  1.0000
  H   H8        1.0  0.5216299957221227  0.24190271943431446  0.02814987480120828  1.0000
  H   H9        1.0  0.32665217379847183  0.1572670635111209  0.16650477700733293  1.0000
  H   H10       1.0  0.6733495910012124  0.8427372222437343  0.8334954828280204  1.0000
  H   H11       1.0  0.7359095566515422  0.4587522605097405  0.6241142240280978  1.0000
  H   H12       1.0  0.26409001499667534  0.5412455431165739  0.37588397971363463  1.0000
  H   H13       1.0  0.7067163594818171  0.8972464700412885  0.5629220508567343  1.0000
  H   H14       1.0  0.29328142142033903  0.10275022938312621  0.4370736890381082  1.0000
  H   H15       1.0  0.9760618569460818  0.7525686817937823  0.6554928472857569  1.0000
  H   H16       1.0  0.02393448910309811  0.2474291009379002  0.3445067321185888  1.0000
  H   H17       1.0  0.10460633704924761  0.4987631135928297  0.7010822032478926  1.0000
  H   H18       1.0  0.895391834875859  0.5012389835387198  0.2989168410645534  1.0000
  H   H19       1.0  0.04365422845938133  0.3709174624489151  0.6347216633310852  1.0000
  H   H20       1.0  0.9563467875611311  0.6290825125742003  0.36527805434682387  1.0000
  H   H21       1.0  0.747366637016427  0.5727715814480873  0.8692538571149484  1.0000
  H   H22       1.0  0.2526340088829287  0.4272262307914758  0.1307441974201566  1.0000
  H   H23       1.0  0.6729865279412977  0.4778908244734126  0.08072883764858572  1.0000
  H   H24       1.0  0.3270134166736939  0.5221091369913325  0.9192701011932272  1.0000
  H   H25       1.0  0.8372954467076568  0.251333321389744  0.16227928968526584  1.0000
  H   H26       1.0  0.16270414299673067  0.7486677221052817  0.8377214833739828  1.0000
  H   H27       1.0  0.0841867135860142  0.12610586428078113  0.033983811677401804  1.0000
  H   H28       1.0  0.915815018929422  0.8738952063309925  0.9660185190540245  1.0000
  H   H29       1.0  0.25607648273052774  0.27792761800213117  0.7490685294079356  1.0000
  H   H30       1.0  0.7439245304443746  0.7220723619661127  0.25093211631268286  1.0000
  H   H31       1.0  0.287392293628173  0.1542788574834901  0.8752920023119799  1.0000
  H   H32       1.0  0.7126087195467291  0.8457211224847612  0.12470864340863848  1.0000
  H   H33       1.0  0.9744847176372032  0.1529472957999758  0.6908124603605685  1.0000
  H   H34       1.0  0.025517026260693965  0.8470537550312969  0.3091861581999851  1.0000
  H   H35       1.0  0.43887572604157304  0.9621192797729922  0.7176102015315137  1.0000
  H   H36       1.0  0.5611245564103344  0.03787962933222389  0.2823924713491692  1.0000
  C   C1        1.0  0.14206897348501726  0.9522979089928895  0.6073626966663568  1.0000
  C   C2        1.0  0.8579302641543836  0.047704211587280596  0.39263898256761115  1.0000
  C   C3        1.0  0.3314055880761232  0.8288598529535778  0.2891131060788723  1.0000
  C   C4        1.0  0.6685954279443962  0.17114012206954496  0.7108866115990295  1.0000
  C   C5        1.0  0.27630496440567487  0.8976575905588009  0.16663041299719342  1.0000
  C   C6        1.0  0.7236971524589962  0.1023456181109026  0.8333689406634406  1.0000
  C   C7        1.0  0.4877449086863167  0.8644393980663024  0.98457799445832  1.0000
  C   C8        1.0  0.5122596973631702  0.1355627705252545  0.015423866785212714  1.0000
  C   C9        1.0  0.3889556991288928  0.9517317905400378  0.07926085224986683  1.0000
  C   C10       1.0  0.6110467612639284  0.048270355879886005  0.9207403793642045  1.0000
  C   C11       1.0  0.40256834819339093  0.08814622006655531  0.09299964861460812  1.0000
  C   C12       1.0  0.5974351836049507  0.911855939911746  0.9070023618355522  1.0000
  C   C13       1.0  0.7613243286532595  0.5602442983112895  0.6183500413485349  1.0000
  C   C14       1.0  0.23867131326594657  0.4397556385906968  0.3816513504052423  1.0000
  C   C15       1.0  0.7525576019156547  0.7850351693615565  0.5883502850856104  1.0000
  C   C16       1.0  0.24744017614088426  0.2149615350079799  0.41164638285195576  1.0000
  C   C17       1.0  0.8851489800395812  0.715983403711377  0.6346059427671876  1.0000
  C   C18       1.0  0.11484701963584601  0.28401544621521424  0.3653926867264374  1.0000
  C   C19       1.0  0.0069681046059600245  0.45894619239112444  0.7019820501992626  1.0000
  C   C20       1.0  0.9930307629122835  0.5410537654054934  0.29801796589190127  1.0000
  C   C21       1.0  0.9588187614525765  0.4042782373090787  0.8319618617247998  1.0000
  C   C22       1.0  0.041181878755551835  0.5957195848207348  0.16803804889573118  1.0000
  C   C23       1.0  0.8218739942535153  0.4745701196573578  0.9051220388991937  1.0000
  C   C24       1.0  0.17812702176699696  0.5254298553657577  0.09487767877870823  1.0000
  C   C25       1.0  0.7787577117681295  0.4208577036923984  0.02365216758594362  1.0000
  C   C26       1.0  0.2212418864731021  0.5791433249672482  0.9763458213451557  1.0000
  C   C27       1.0  0.8719292675581086  0.2940898353213868  0.07023314505458707  1.0000
  C   C28       1.0  0.1280724678029443  0.705911230345265  0.929768257634116  1.0000
  C   C29       1.0  0.009363921584409228  0.22440001339747076  0.9984066433095293  1.0000
  C   C30       1.0  0.990637085899259  0.7755999764610237  0.0015958584965290227  1.0000
  C   C31       1.0  0.054999054848941936  0.2786311439719356  0.8803133275912316  1.0000
  C   C32       1.0  0.9450012361398094  0.7213677502979011  0.11968656116130214  1.0000
  C   C33       1.0  0.20787206469452715  0.2032654466629253  0.8091166550000252  1.0000
  C   C34       1.0  0.7921289456347651  0.7967345382504407  0.19088491876330957  1.0000
  C   C35       1.0  0.08599261728622311  0.07469744606958528  0.677435884472402  1.0000
  C   C36       1.0  0.9140098402609811  0.925304705295467  0.32256627518438563  1.0000
  C   C37       1.0  0.3288068472387808  0.9749989782964262  0.691594101100044  1.0000
  C   C38       1.0  0.6711937872781137  0.0249988537236305  0.3084076656059268  1.0000
  N   N1        1.0  0.676684491233722  0.6866690065083035  0.5790694776450565  1.0000
  N   N2        1.0  0.32331470175648763  0.31332664916983083  0.4209298470820285  1.0000
  N   N3        1.0  0.8888254466435443  0.5740507381450894  0.652791260462365  1.0000
  N   N4        1.0  0.11117089371440875  0.4259470544768433  0.3472101750274135  1.0000
  N   N5        1.0  0.2057966641896911  0.08690657753278687  0.7304072208166161  1.0000
  N   N6        1.0  0.7942054232363492  0.913093411048706  0.2695932756973746  1.0000
  N   N7        1.0  0.2934356159611015  0.8915475729720937  0.6168741613306494  1.0000
  N   N8        1.0  0.7065621716147703  0.10845238610152559  0.383127860052582  1.0000
  Cl  Cl1       1.0  0.3789804409552531  0.5114436312032778  0.6532413856376138  1.0000
  Cl  Cl2       1.0  0.6210137565916513  0.4885541343018999  0.346758492179994  1.0000
  O   O1        1.0  0.44679413867702783  0.8513536020802659  0.32125129992152074  1.0000
  O   O2        1.0  0.5532054510273597  0.1486474414147523  0.6787494731377279  1.0000
  O   O3        1.0  0.2566361474406805  0.7541550508480839  0.3547449186544114  1.0000
  O   O4        1.0  0.7433641520849151  0.24584382858638779  0.6452521859699659  1.0000
