data_image0
_chemical_formula_structural       CdH18C20N12O2
_chemical_formula_sum              "Cd1 H18 C20 N12 O2"
_cell_length_a       7.502843552472283
_cell_length_b       8.22528566071451
_cell_length_c       9.675266088601601
_cell_angle_alpha    67.74854872955697
_cell_angle_beta     78.96182092341104
_cell_angle_gamma    64.2866176366998

_space_group_name_H-M_alt    "P 1"
_space_group_IT_number       1

loop_
  _space_group_symop_operation_xyz
  'x, y, z'

loop_
  _atom_site_type_symbol
  _atom_site_label
  _atom_site_symmetry_multiplicity
  _atom_site_fract_x
  _atom_site_fract_y
  _atom_site_fract_z
  _atom_site_occupancy
  Cd  Cd1       1.0  1.0694416089451814e-06  0.9999980296696336  0.9999983116715325  1.0000
  H   H1        1.0  0.8831364634859323  0.38607134176245245  0.028284402044349125  1.0000
  H   H2        1.0  0.11686560281085431  0.6139278874240188  0.9717157138429683  1.0000
  H   H3        1.0  0.11394957029849444  0.306750212734663  0.040379535033842645  1.0000
  H   H4        1.0  0.8860523666724447  0.6932461337618108  0.9596204899951317  1.0000
  H   H5        1.0  0.3242771911028298  0.0055737387183115  0.17065425789508737  1.0000
  H   H6        1.0  0.6757209761229884  0.9944283174964286  0.8293444726055978  1.0000
  H   H7        1.0  0.37288173316643736  0.9973735573232007  0.420198966623893  1.0000
  H   H8        1.0  0.6271130912271302  0.0026299044508490974  0.5798028895511181  1.0000
  H   H9        1.0  0.6163925921024356  0.7089625888003043  0.5903348278104087  1.0000
  H   H10       1.0  0.38360481684193803  0.2910380214560746  0.4096655078179694  1.0000
  H   H11       1.0  0.7695463158868135  0.4323508875588758  0.2578948491980028  1.0000
  H   H12       1.0  0.23045575040997326  0.5676483416275956  0.7421052666893146  1.0000
  H   H13       1.0  0.7587645566137127  0.44425102969498914  0.741959633995094  1.0000
  H   H14       1.0  0.24123333984092446  0.5557452636835407  0.25803994929674445  1.0000
  H   H15       1.0  0.18170145173954202  0.9474666023726002  0.6569386661020217  1.0000
  H   H16       1.0  0.8183047399098909  0.0525326621253654  0.3430546499676339  1.0000
  H   H17       1.0  0.010230830027410294  0.21738630526527908  0.3880196220933243  1.0000
  H   H18       1.0  0.9897721117571906  0.7826172551133226  0.6119800140324753  1.0000
  C   C1        1.0  0.4330456145216031  0.8791111092519018  0.24446476070951914  1.0000
  C   C2        1.0  0.5669469956250309  0.1208880019281793  0.7555367383094093  1.0000
  C   C3        1.0  0.45964163343091957  0.8733436022556091  0.38489113975220574  1.0000
  C   C4        1.0  0.5403557633939826  0.12665701054454812  0.6151102303840048  1.0000
  C   C5        1.0  0.5983347759471369  0.7118180658834704  0.4803078275534317  1.0000
  C   C6        1.0  0.40166413744064033  0.28818543883340914  0.5196903323273928  1.0000
  C   C7        1.0  0.7117483013994244  0.5531757624871573  0.43409874161400797  1.0000
  C   C8        1.0  0.2882538821037314  0.44682635193308334  0.5659024996394706  1.0000
  C   C9        1.0  0.6873187628785756  0.5569451921825959  0.2933867416161391  1.0000
  C   C10       1.0  0.3126812063776542  0.4430525716436832  0.7066141424812711  1.0000
  C   C11       1.0  0.5477904624758522  0.7209114121781539  0.19792124859855414  1.0000
  C   C12       1.0  0.4522148860557919  0.27908642416790025  0.8020809141535848  1.0000
  C   C13       1.0  0.5233783500098425  0.7223034363163948  0.0513147785860895  1.0000
  C   C14       1.0  0.4766229580054997  0.2776943469117157  0.9486869424289139  1.0000
  C   C15       1.0  0.8525384621510453  0.34419288656005875  0.683967221744865  1.0000
  C   C16       1.0  0.1474643624271792  0.6558077885847737  0.31603128901476635  1.0000
  C   C17       1.0  0.06616018226199567  0.09024591582011961  0.6330244613726848  1.0000
  C   C18       1.0  0.9338333397308954  0.9097575189207631  0.36697345436123635  1.0000
  C   C19       1.0  0.9830271582352879  0.22269386792229542  0.5005497021075697  1.0000
  C   C20       1.0  0.01697233563016427  0.7773082102380616  0.49945089981854796  1.0000
  N   N1        1.0  0.6730650435612869  0.6262287730771094  0.9726734930838956  1.0000
  N   N2        1.0  0.3269356718569084  0.37377043925130954  0.027326820393646752  1.0000
  N   N3        1.0  0.5928993070148252  0.6609416784786433  0.8453704371258436  1.0000
  N   N4        1.0  0.40710127907751575  0.3390546511597776  0.15462978549336265  1.0000
  N   N5        1.0  0.40431581836847375  0.7714926428050858  0.8466333145693453  1.0000
  N   N6        1.0  0.5956862600477918  0.22850658383760702  0.15336576681013978  1.0000
  N   N7        1.0  0.3552801227124788  0.8147107339829915  0.9742289215999875  1.0000
  N   N8        1.0  0.6447213388676758  0.18528992684755247  0.025770821257701488  1.0000
  N   N9        1.0  0.9837407185778345  0.1675360778044492  0.7462314402705558  1.0000
  N   N10       1.0  0.01625867020072032  0.8324631125783598  0.25376700178156136  1.0000
  N   N11       1.0  0.8465966752306853  0.38410326272088474  0.5338312119013224  1.0000
  N   N12       1.0  0.15340147987565425  0.6158987960376338  0.4661685531071951  1.0000
  O   O1        1.0  0.0032023286413931044  0.2652362725387718  0.058936032111816375  1.0000
  O   O2        1.0  0.9968003544915045  0.7347615224598344  0.9410634222973043  1.0000
