data_image0
_chemical_formula_structural       Zn12H24C24O48
_chemical_formula_sum              "Zn12 H24 C24 O48"
_cell_length_a       9.999040167013238
_cell_length_b       11.443964808756235
_cell_length_c       14.669811428502253
_cell_angle_alpha    91.39194058669298
_cell_angle_beta     90.00018546880592
_cell_angle_gamma    90.00001294605427

_space_group_name_H-M_alt    "P 1"
_space_group_IT_number       1

loop_
  _space_group_symop_operation_xyz
  'x, y, z'

loop_
  _atom_site_type_symbol
  _atom_site_label
  _atom_site_symmetry_multiplicity
  _atom_site_fract_x
  _atom_site_fract_y
  _atom_site_fract_z
  _atom_site_occupancy
  Zn  Zn1       1.0  0.8832805487623929  0.24212362075412838  0.3107829109904898  1.0000
  Zn  Zn2       1.0  0.3832772704914476  0.25787474141976224  0.18921916433167502  1.0000
  Zn  Zn3       1.0  0.11672093638436111  0.7578755213326646  0.6892189089130484  1.0000
  Zn  Zn4       1.0  0.6167182140793486  0.742124400666235  0.8107826555652196  1.0000
  Zn  Zn5       1.0  0.5716447727387717  0.24301232175605486  0.3679883455625088  1.0000
  Zn  Zn6       1.0  0.07164222292005461  0.2569877041494735  0.1320117084136214  1.0000
  Zn  Zn7       1.0  0.42835871260012226  0.7569876944115844  0.632013490275064  1.0000
  Zn  Zn8       1.0  0.9283552618330262  0.7430114330750043  0.867986021362988  1.0000
  Zn  Zn9       1.0  0.5000072431951281  0.5000008809496848  0.4999999113260785  1.0000
  Zn  Zn10      1.0  0.9999953548512435  9.455322854006333e-07  0.9999987272323595  1.0000
  Zn  Zn11      1.0  0.5000001776682551  1.7851027891000544e-06  0.5000004100473063  1.0000
  Zn  Zn12      1.0  0.9999984199957692  0.5000000421889439  0.9999989101937815  1.0000
  H   H1        1.0  0.7912512270547936  0.9913680107949361  0.4854850175306424  1.0000
  H   H2        1.0  0.291250055551032  0.5086328930711659  0.014519344714372601  1.0000
  H   H3        1.0  0.20875025810079956  0.0086355057462484  0.5145202904674377  1.0000
  H   H4        1.0  0.7087484293079029  0.49136712309581293  0.9854824911176652  1.0000
  H   H5        1.0  0.745743892856673  0.1400208870012065  0.1246779810802323  1.0000
  H   H6        1.0  0.2457525250917598  0.35997481476517385  0.375322378634614  1.0000
  H   H7        1.0  0.2542495915230063  0.859973885491918  0.8753244408424052  1.0000
  H   H8        1.0  0.7542489600470647  0.6400251973507096  0.6246760487653377  1.0000
  H   H9        1.0  0.8935048946343471  0.4419884095588884  0.4535244923844814  1.0000
  H   H10       1.0  0.39349788698758903  0.05800732984842938  0.0464748310223371  1.0000
  H   H11       1.0  0.10650259108144407  0.5580081070457723  0.5464745529818913  1.0000
  H   H12       1.0  0.6064955973856242  0.941987439403505  0.9535248641519659  1.0000
  H   H13       1.0  0.3402130795556673  0.31241820100930795  0.5835838748632939  1.0000
  H   H14       1.0  0.8402078439890559  0.18758183647187104  0.9164157414929832  1.0000
  H   H15       1.0  0.6597934060672515  0.6875870572113243  0.4164160115073088  1.0000
  H   H16       1.0  0.1597826400954645  0.8124181764528515  0.08358336758186621  1.0000
  H   H17       1.0  0.2765731901140355  0.022790634321602  0.2701309485810341  1.0000
  H   H18       1.0  0.7765701449063087  0.47720769625645687  0.2298681637858664  1.0000
  H   H19       1.0  0.7234282950347931  0.9772111308172314  0.7298716008050619  1.0000
  H   H20       1.0  0.2234283399468566  0.5227870729961454  0.7701315313939716  1.0000
  H   H21       1.0  0.4425190826902607  0.5259147486940918  0.2276716904843497  1.0000
  H   H22       1.0  0.9425112376351237  0.9740835650218643  0.2723261419331919  1.0000
  H   H23       1.0  0.5574874029311517  0.4740817687207297  0.7723280365679982  1.0000
  H   H24       1.0  0.0574842469243535  0.025915571392047795  0.7276709061541171  1.0000
  C   C1        1.0  0.7743663827460807  0.0669460087465552  0.4417463562611275  1.0000
  C   C2        1.0  0.2743645287620565  0.43305407264760737  0.05825550983409041  1.0000
  C   C3        1.0  0.2256321021146164  0.9330548823112962  0.5582561771898256  1.0000
  C   C4        1.0  0.7256329559960264  0.5669459410883418  0.9417442809355947  1.0000
  C   C5        1.0  0.6630350620094632  0.1723134458230149  0.1683672617417358  1.0000
  C   C6        1.0  0.163045478778379  0.3276822347761978  0.33163359657805813  1.0000
  C   C7        1.0  0.3369574222758374  0.8276813274802706  0.8316358418668701  1.0000
  C   C8        1.0  0.8369570064564301  0.6723177773398206  0.6683648308229947  1.0000
  C   C9        1.0  0.7845254196934519  0.426463057649059  0.4481629334313268  1.0000
  C   C10       1.0  0.28451544122732025  0.07353615074234197  0.05183757583692741  1.0000
  C   C11       1.0  0.21548306612555015  0.5735378325998255  0.5518389183436129  1.0000
  C   C12       1.0  0.7154790432414728  0.9264656103440744  0.9481615651060054  1.0000
  C   C13       1.0  0.4001837171128457  0.2568603350908488  0.5366122614163089  1.0000
  C   C14       1.0  0.9001837192960949  0.24314059321752526  0.9633881853155516  1.0000
  C   C15       1.0  0.5998167679352874  0.7431423016975387  0.4633882588392595  1.0000
  C   C16       1.0  0.0998137654603752  0.756859419708128  0.03661092376705  1.0000
  C   C17       1.0  0.3552668647999795  0.04877533827438899  0.31989365577961587  1.0000
  C   C18       1.0  0.8552645768624175  0.4512256411283743  0.1801104503893356  1.0000
  C   C19       1.0  0.6447346203588536  0.9512281798873944  0.6801130155926318  1.0000
  C   C20       1.0  0.1447319077956877  0.5487700005839429  0.8198878973459499  1.0000
  C   C21       1.0  0.4728601381360775  0.48130563927652764  0.2904866112702464  1.0000
  C   C22       1.0  0.9728518769185966  0.018697111430959996  0.20951097018915021  1.0000
  C   C23       1.0  0.527153348149497  0.5186926222488992  0.7095097392180847  1.0000
  C   C24       1.0  0.027147608030311698  0.981305523736701  0.7904881866911495  1.0000
  O   O1        1.0  0.8743328933082141  0.11063972895027521  0.4037107250357579  1.0000
  O   O2        1.0  0.37433220854028804  0.38935862922576797  0.0962899671086035  1.0000
  O   O3        1.0  0.1256675917444738  0.8893611621078463  0.5962918084174049  1.0000
  O   O4        1.0  0.6256662763149521  0.6106387630788745  0.9037104575537996  1.0000
  O   O5        1.0  0.6520006255827724  0.1007787776514562  0.4347976900809201  1.0000
  O   O6        1.0  0.1519967956003825  0.3992238950892926  0.0652053163131612  1.0000
  O   O7        1.0  0.34799985946990825  0.8992221134066654  0.565204843372243  1.0000
  O   O8        1.0  0.8479996890620144  0.6007778668076896  0.934794506319065  1.0000
  O   O9        1.0  0.6912479716698884  0.1957722949787595  0.2521150014665565  1.0000
  O   O10       1.0  0.1912499842406064  0.30422863354817753  0.2478826064515189  1.0000
  O   O11       1.0  0.3087505131869719  0.8042250981361787  0.7478861048829232  1.0000
  O   O12       1.0  0.808748500605688  0.6957731242975811  0.7521138077475129  1.0000
  O   O13       1.0  0.5500671325608407  0.18165257161810902  0.1314257566926003  1.0000
  O   O14       1.0  0.0500767220801634  0.31833871018042  0.36857613527574534  1.0000
  O   O15       1.0  0.4499243516296332  0.8183395802536069  0.8685779808065136  1.0000
  O   O16       1.0  0.9499277633500185  0.6816621776370368  0.6314236714335166  1.0000
  O   O17       1.0  0.7486978294288917  0.3480903313401669  0.3886143347199892  1.0000
  O   O18       1.0  0.24869415439410866  0.15190711856037353  0.11138538169662132  1.0000
  O   O19       1.0  0.2513056559049999  0.6519088083160014  0.6113854401245078  1.0000
  O   O20       1.0  0.7513023302663696  0.8480928943651449  0.888613727384872  1.0000
  O   O21       1.0  0.7085102516021137  0.4858503133699443  0.4989187597046297  1.0000
  O   O22       1.0  0.20850101701673654  0.014151497064268902  0.0010816290929014003  1.0000
  O   O23       1.0  0.2915022345982266  0.5141540715812027  0.5010817924278683  1.0000
  O   O24       1.0  0.7914904671617434  0.98585550688464  0.9989162440634943  1.0000
  O   O25       1.0  0.47263454246888165  0.3129060840563653  0.479284097969277  1.0000
  O   O26       1.0  0.9726284294850059  0.187095792510874  0.0207134670612916  1.0000
  O   O27       1.0  0.5273709430606814  0.6870956794624092  0.5207170880470784  1.0000
  O   O28       1.0  0.0273620545933468  0.8129059653338189  0.9792829471288869  1.0000
  O   O29       1.0  0.3913698719248941  0.1485418163735162  0.5428698099739364  1.0000
  O   O30       1.0  0.8913668722253548  0.3514582322706374  0.9571278745641364  1.0000
  O   O31       1.0  0.6086326133133042  0.8514590714436778  0.4571299967331086  1.0000
  O   O32       1.0  0.1086266121421389  0.6485409041430046  0.0428691735209625  1.0000
  O   O33       1.0  0.4107731730742258  0.1480822878128265  0.30628298911918966  1.0000
  O   O34       1.0  0.9107739242339007  0.35191695655792904  0.19371984468395456  1.0000
  O   O35       1.0  0.5892243116972509  0.8519203546472481  0.693722302942632  1.0000
  O   O36       1.0  0.08922856100384279  0.6480813090175276  0.8062799142276091  1.0000
  O   O37       1.0  0.3803895460367812  0.9802501294081195  0.3827379525422075  1.0000
  O   O38       1.0  0.8803768470258645  0.5197446714755785  0.11725967861283952  1.0000
  O   O39       1.0  0.6196149393963352  0.019749011868775302  0.6172631856775652  1.0000
  O   O40       1.0  0.1196116368628353  0.4802518435059612  0.8827380033583268  1.0000
  O   O41       1.0  0.4824110240803847  0.3694438173831714  0.2836262533547895  1.0000
  O   O42       1.0  0.9824098251099186  0.13055981318492368  0.2163740919343979  1.0000
  O   O43       1.0  0.5175914611601441  0.6305518275711394  0.7163748211354602  1.0000
  O   O44       1.0  0.0175906599351308  0.8694436960634562  0.783625080878828  1.0000
  O   O45       1.0  0.49491943006173494  0.5423593410709203  0.360757841501986  1.0000
  O   O46       1.0  0.9948949477800612  0.9576468508611808  0.1392382052156265  1.0000
  O   O47       1.0  0.5051130580434487  0.45764241434845593  0.6392365276734324  1.0000
  O   O48       1.0  0.0050905358189368  0.0423584033051725  0.860758272696316  1.0000
