data_image0
_chemical_formula_structural       La4H18C36N6O24
_chemical_formula_sum              "La4 H18 C36 N6 O24"
_cell_length_a       6.657031858562522
_cell_length_b       7.727027101006806
_cell_length_c       18.509938807847455
_cell_angle_alpha    89.99987262660822
_cell_angle_beta     89.91661995655652
_cell_angle_gamma    89.9999171841275

_space_group_name_H-M_alt    "P 1"
_space_group_IT_number       1

loop_
  _space_group_symop_operation_xyz
  'x, y, z'

loop_
  _atom_site_type_symbol
  _atom_site_label
  _atom_site_symmetry_multiplicity
  _atom_site_fract_x
  _atom_site_fract_y
  _atom_site_fract_z
  _atom_site_occupancy
  La  La1       1.0  0.06132714293929813  0.5994778098306597  0.8942265521275702  1.0000
  La  La2       1.0  0.4386704762978225  0.5994809345102325  0.605773853840333  1.0000
  La  La3       1.0  0.9386686853132034  0.4005218702531153  0.1057744791877013  1.0000
  La  La4       1.0  0.561329902513009  0.40052133389259126  0.3942255703373477  1.0000
  H   H1        1.0  0.4226246919234598  0.5248313811690084  0.0815181474244113  1.0000
  H   H2        1.0  0.0773735237191033  0.5248306956554101  0.41848157581640794  1.0000
  H   H3        1.0  0.5773711658358353  0.4751682989176302  0.9184818034269284  1.0000
  H   H4        1.0  0.9226283424384435  0.4751715727450403  0.5815183931130719  1.0000
  H   H5        1.0  0.7500032828959392  0.7258433157297334  0.750000533762048  1.0000
  H   H6        1.0  0.2499985537559084  0.27415765850906854  0.2500005156319531  1.0000
  H   H7        1.0  0.1363417527381259  0.9932239909672235  0.031765275143776306  1.0000
  H   H8        1.0  0.36365718847738293  0.9932226868947255  0.46823347873689874  1.0000
  H   H9        1.0  0.8636541197745659  0.006775689120843301  0.9682341354755978  1.0000
  H   H10       1.0  0.6363461650257849  0.006780875662137499  0.5317670349437763  1.0000
  H   H11       1.0  0.7165659332432102  0.9887132100184032  0.13663372594565  1.0000
  H   H12       1.0  0.7834301440649157  0.9887138583479568  0.36336631473034947  1.0000
  H   H13       1.0  0.28342990976378263  0.011285175908014401  0.8633667651382525  1.0000
  H   H14       1.0  0.21657172209371822  0.011287115893708203  0.6366336541997272  1.0000
  H   H15       1.0  0.0283799409537338  0.19208204492404957  0.8104236655880472  1.0000
  H   H16       1.0  0.4716243896756113  0.19208209371211643  0.6895765954047094  1.0000
  H   H17       1.0  0.9716234273071936  0.8079163409991068  0.18957630786305663  1.0000
  H   H18       1.0  0.5283789933376255  0.8079175863712537  0.31042283781383173  1.0000
  C   C1        1.0  0.2602772711118959  0.7415280906776829  0.0537002033834781  1.0000
  C   C2        1.0  0.23971906159884077  0.7415283506583634  0.44629985494640323  1.0000
  C   C3        1.0  0.7397170845472872  0.2584715894098863  0.9462997429480284  1.0000
  C   C4        1.0  0.760282789804222  0.25847521189943734  0.5537006542144383  1.0000
  C   C5        1.0  0.26199121787082197  0.9221473586102605  0.05435793135522001  1.0000
  C   C6        1.0  0.23800482446445417  0.9221463300566202  0.44564141952195513  1.0000
  C   C7        1.0  0.7380046398895673  0.07785102731759251  0.9456420194967237  1.0000
  C   C8        1.0  0.7619955248417727  0.07785335002576939  0.5543590851208509  1.0000
  C   C9        1.0  0.42770734925647963  0.008860617531304599  0.0839314252052432  1.0000
  C   C10       1.0  0.0722902654501922  0.008859951160872  0.41606769074901717  1.0000
  C   C11       1.0  0.5722885232573064  0.9911377683979766  0.9160679854147274  1.0000
  C   C12       1.0  0.927711585955052  0.9911410230793579  0.5839328184130183  1.0000
  C   C13       1.0  0.432157430751289  0.20366774717426495  0.08434723174752183  1.0000
  C   C14       1.0  0.06783982535031899  0.20366708850987444  0.41565278431389174  1.0000
  C   C15       1.0  0.567838441762497  0.7963306387550162  0.9156521788724562  1.0000
  C   C16       1.0  0.9321605239548135  0.7963338857312935  0.5843477203283101  1.0000
  C   C17       1.0  0.5900551115368415  0.9200271678512308  0.11296663395146571  1.0000
  C   C18       1.0  0.9099410965610775  0.9200262397118167  0.3870329300843665  1.0000
  C   C19       1.0  0.4099407462235477  0.079971218076615  0.8870333169004708  1.0000
  C   C20       1.0  0.090060754844167  0.07997473452842029  0.6129675790776761  1.0000
  C   C21       1.0  0.5907769628301694  0.7378031427643208  0.11184349424506482  1.0000
  C   C22       1.0  0.9092225868157019  0.7378022095262295  0.38815516707356323  1.0000
  C   C23       1.0  0.40922039703141894  0.26219394900380877  0.8881564611273095  1.0000
  C   C24       1.0  0.0907807961975351  0.2621974705571404  0.6118442661449848  1.0000
  C   C25       1.0  0.7499960883756884  0.4041581491780022  0.7499990393786291  1.0000
  C   C26       1.0  0.2500012862349195  0.5958441192266903  0.2500003757593845  1.0000
  C   C27       1.0  0.7500007441110199  0.2097780880751898  0.7499996831507902  1.0000
  C   C28       1.0  0.24999814735528503  0.7902215920124293  0.24999919627629202  1.0000
  C   C29       1.0  0.9068714785320822  0.12232900277988532  0.7841790506971763  1.0000
  C   C30       1.0  0.593136165826941  0.12232420197332775  0.7158204146482632  1.0000
  C   C31       1.0  0.09313642553159701  0.8776745597784553  0.21581985584710853  1.0000
  C   C32       1.0  0.40687023614209045  0.8776728897920307  0.28417848737917956  1.0000
  C   C33       1.0  0.905654442626158  0.9407058369788501  0.7855921567564011  1.0000
  C   C34       1.0  0.5943488002475236  0.9407049246863723  0.7144070821080604  1.0000
  C   C35       1.0  0.09434745303927632  0.0592951372656785  0.2144067317097438  1.0000
  C   C36       1.0  0.4056545827646191  0.059296049555783305  0.2855923511098838  1.0000
  N   N1        1.0  0.42491533375879004  0.6581698522840469  0.08196314272964861  1.0000
  N   N2        1.0  0.07508116928112683  0.6581691719727446  0.4180359123116447  1.0000
  N   N3        1.0  0.575082026101704  0.34182853364286103  0.9180368126421214  1.0000
  N   N4        1.0  0.9249191947774024  0.34183180226985854  0.5819640520985985  1.0000
  N   N5        1.0  0.7500046725134696  0.8590096663254772  0.7500004766377019  1.0000
  N   N6        1.0  0.2500001830919913  0.1409913079128842  0.2500000415640073  1.0000
  O   O1        1.0  0.115771763480943  0.6441880960219422  0.0277622244972093  1.0000
  O   O2        1.0  0.38422473367180743  0.6441880393775676  0.4722379239523491  1.0000
  O   O3        1.0  0.8842225921793414  0.35581028990684876  0.972237721834894  1.0000
  O   O4        1.0  0.6157771177323428  0.35581422902144777  0.5277625852090894  1.0000
  O   O5        1.0  0.2697019710475743  0.28530341662376923  0.0719312232171703  1.0000
  O   O6        1.0  0.2302966344893989  0.28530249129727286  0.4280692620160451  1.0000
  O   O7        1.0  0.7302954035663234  0.7146949693045742  0.928068191922634  1.0000
  O   O8        1.0  0.7697082211171493  0.7146971887822957  0.5719312561862608  1.0000
  O   O9        1.0  0.5975249228908625  0.28043193561340024  0.09634673219539992  1.0000
  O   O10       1.0  0.9024753699081247  0.28043351637062847  0.40365343303043494  1.0000
  O   O11       1.0  0.4024724517230285  0.7195664503149432  0.9036526829444045  1.0000
  O   O12       1.0  0.09753098779635393  0.7195687520255734  0.5963470896905108  1.0000
  O   O13       1.0  0.7336177802117733  0.6422384233117883  0.13592556606602102  1.0000
  O   O14       1.0  0.766383462483418  0.6422377947485243  0.3640721077843098  1.0000
  O   O15       1.0  0.2663795944010304  0.35776125677534054  0.8640738490731864  1.0000
  O   O16       1.0  0.2336214226288362  0.35776317949269304  0.635927329953468  1.0000
  O   O17       1.0  0.8570541806542948  0.48374354844892054  0.796234907064985  1.0000
  O   O18       1.0  0.6429422794320703  0.48374004462964854  0.703766352963257  1.0000
  O   O19       1.0  0.14294014549592052  0.5162587199533634  0.2037661197292522  1.0000
  O   O20       1.0  0.35705811413434674  0.5162596354570397  0.29623253098365865  1.0000
  O   O21       1.0  0.036786510263453906  0.8460100988734426  0.8184296223534703  1.0000
  O   O22       1.0  0.4632196755896914  0.8460102007256156  0.6815716629536865  1.0000
  O   O23       1.0  0.9632153263883937  0.1539908753653592  0.181571427040538  1.0000
  O   O24       1.0  0.5367836779167519  0.1539894793548982  0.3184288507287932  1.0000
