data_image0
_chemical_formula_structural       Ba2H16C12Cl12O14
_chemical_formula_sum              "Ba2 H16 C12 Cl12 O14"
_cell_length_a       8.707475301272561
_cell_length_b       10.80947859224079
_cell_length_c       12.123751685838725
_cell_angle_alpha    100.08652585647891
_cell_angle_beta     98.77580779771291
_cell_angle_gamma    105.75333614236918

_space_group_name_H-M_alt    "P 1"
_space_group_IT_number       1

loop_
  _space_group_symop_operation_xyz
  'x, y, z'

loop_
  _atom_site_type_symbol
  _atom_site_label
  _atom_site_symmetry_multiplicity
  _atom_site_fract_x
  _atom_site_fract_y
  _atom_site_fract_z
  _atom_site_occupancy
  Ba  Ba1       1.0  0.27873972514122164  0.6047827711795365  0.0064983137170103325  1.0000
  Ba  Ba2       1.0  0.7212539130293507  0.39521712278772714  0.9934953516630995  1.0000
  H   H1        1.0  0.483121147725754  0.03532305124448241  0.16088538681661646  1.0000
  H   H2        1.0  0.5168866468370439  0.9646711642265159  0.8391156410446781  1.0000
  H   H3        1.0  0.27280018170919357  0.9517332720875729  0.09373399691841659  1.0000
  H   H4        1.0  0.7272087931877709  0.04826093782282471  0.9062646898087862  1.0000
  H   H5        1.0  0.6172184968545834  0.8247029634405506  0.9551508565147199  1.0000
  H   H6        1.0  0.3827982898521469  0.17529035555359943  0.044848586010637286  1.0000
  H   H7        1.0  0.6869830297522697  0.9586317010105816  0.07939364674940926  1.0000
  H   H8        1.0  0.3130335574690548  0.04136753197228419  0.9206091295663156  1.0000
  H   H9        1.0  0.5225367277674521  0.6011215610701015  0.8110439686554257  1.0000
  H   H10       1.0  0.47745691040312005  0.398878332897162  0.18894969672468412  1.0000
  H   H11       1.0  0.3465309294354881  0.5571613562980389  0.7361751476524886  1.0000
  H   H12       1.0  0.6534667618335703  0.4428464154590444  0.2638160292563114  1.0000
  H   H13       1.0  0.05341715022242961  0.7144255234647331  0.17318181375924976  1.0000
  H   H14       1.0  0.946579626892202  0.28557343109643096  0.8268128934726773  1.0000
  H   H15       1.0  0.2225167895859882  0.7908801156556463  0.25539192626918344  1.0000
  H   H16       1.0  0.7774791828142112  0.20911980577164255  0.7446020087423971  1.0000
  C   C1        1.0  0.2679116809921851  0.31985586826132106  0.837688255125961  1.0000
  C   C2        1.0  0.7320764399402008  0.6801450019540737  0.16231235193696844  1.0000
  C   C3        1.0  0.24609561946271438  0.22608813334384342  0.7167701252408063  1.0000
  C   C4        1.0  0.7539123380150555  0.7739129767120263  0.2832335990062517  1.0000
  C   C5        1.0  0.14629547402859083  0.3899320802323486  0.15285025513472306  1.0000
  C   C6        1.0  0.8537053920337171  0.6100718883622633  0.84715226382157  1.0000
  C   C7        1.0  0.0879989304232396  0.2702514543806488  0.21035016015851937  1.0000
  C   C8        1.0  0.9120097115996516  0.7297544870540803  0.7896428144002525  1.0000
  C   C9        1.0  0.3960220611540137  0.98826547806582  0.07806267414110116  1.0000
  C   C10       1.0  0.6039876165114535  0.011730725187902599  0.9219388643599371  1.0000
  C   C11       1.0  0.5955562859472322  0.9143470638075042  0.9983056912354226  1.0000
  C   C12       1.0  0.40445841376497066  0.08565018782284278  0.0016973997571695803  1.0000
  Cl  Cl1       1.0  0.07654329331180779  0.08280590050410548  0.697488618483966  1.0000
  Cl  Cl2       1.0  0.9234653065630167  0.9171845357860489  0.3025300843262427  1.0000
  Cl  Cl3       1.0  0.42199026856412303  0.17701563267800677  0.7016994213451822  1.0000
  Cl  Cl4       1.0  0.5780166287488057  0.8229796846934576  0.29831816594460037  1.0000
  Cl  Cl5       1.0  0.2081882828615917  0.3153362062722849  0.6093766553100222  1.0000
  Cl  Cl6       1.0  0.7918110563232048  0.684641253732309  0.39062751094866843  1.0000
  Cl  Cl7       1.0  0.23914841248464563  0.26758507994819775  0.32429555379176367  1.0000
  Cl  Cl8       1.0  0.7608450739502146  0.7324306020927266  0.6757086972677867  1.0000
  Cl  Cl9       1.0  0.9056009867370279  0.26995724804692145  0.2593094081302709  1.0000
  Cl  Cl10      1.0  0.09438258971427152  0.7300405748879227  0.7406844535331627  1.0000
  Cl  Cl11      1.0  0.0468238563686398  0.1260855565278689  0.09763849993690599  1.0000
  Cl  Cl12      1.0  0.9531786191225392  0.8739164783344792  0.9023655634600869  1.0000
  O   O1        1.0  0.4354110933127372  0.8744593104900529  0.023848622932369824  1.0000
  O   O2        1.0  0.5646095073490329  0.12554785815449068  0.9761590927615482  1.0000
  O   O3        1.0  0.1463366548993149  0.35847376669495645  0.8516761467077172  1.0000
  O   O4        1.0  0.8536558608185276  0.641523236925508  0.14832603341910297  1.0000
  O   O5        1.0  0.40164888848337205  0.35158358268791556  0.9067452988893405  1.0000
  O   O6        1.0  0.5983492796300922  0.6484321349824499  0.09325701548333137  1.0000
  O   O7        1.0  0.2976875161120489  0.44087890173928895  0.16397855167008396  1.0000
  O   O8        1.0  0.7022795490039896  0.5591118472508826  0.8360123768205054  1.0000
  O   O9        1.0  0.03515413848898419  0.42104242394793095  0.0959033046104381  1.0000
  O   O10       1.0  0.9648206572043067  0.5789631193163489  0.9040857602919843  1.0000
  O   O11       1.0  0.414137793521526  0.6157741092450592  0.8076847145405706  1.0000
  O   O12       1.0  0.585860061981343  0.3842277999649609  0.19230973111074687  1.0000
  O   O13       1.0  0.17288850052711519  0.7490913708284238  0.17555291932124817  1.0000
  O   O14       1.0  0.8271027058743529  0.25091144945805866  0.8244417306642685  1.0000
