data_image0
_chemical_formula_structural       Cu4H32C20N8O12
_chemical_formula_sum              "Cu4 H32 C20 N8 O12"
_cell_length_a       8.435353077173026
_cell_length_b       8.708165792147861
_cell_length_c       9.656467089049135
_cell_angle_alpha    89.99991003314354
_cell_angle_beta     90.00037296862533
_cell_angle_gamma    89.99935968933863

_space_group_name_H-M_alt    "P 1"
_space_group_IT_number       1

loop_
  _space_group_symop_operation_xyz
  'x, y, z'

loop_
  _atom_site_type_symbol
  _atom_site_label
  _atom_site_symmetry_multiplicity
  _atom_site_fract_x
  _atom_site_fract_y
  _atom_site_fract_z
  _atom_site_occupancy
  Cu  Cu1       1.0  0.10414878846705021  0.06273097827727267  0.8168383168195773  1.0000
  Cu  Cu2       1.0  0.8958312434724361  0.5627265237362593  0.6831701175326614  1.0000
  Cu  Cu3       1.0  0.3958438946142095  0.937255976683353  0.3168355366741551  1.0000
  Cu  Cu4       1.0  0.6041470673971149  0.4372575690862348  0.1831656171040663  1.0000
  H   H1        1.0  0.24160700253959533  0.32070189070255134  0.863046866302625  1.0000
  H   H2        1.0  0.7583984364730083  0.8207012313377859  0.6369568984141339  1.0000
  H   H3        1.0  0.25838957131080054  0.679291909564597  0.3630520937871893  1.0000
  H   H4        1.0  0.7416151045220474  0.17930242796470705  0.13694958741228896  1.0000
  H   H5        1.0  0.36221344688281215  0.16900684496253854  0.8758429441908859  1.0000
  H   H6        1.0  0.6377949678956725  0.6690074736005298  0.624155952786495  1.0000
  H   H7        1.0  0.13780337276604374  0.8309903878516919  0.3758378356536412  1.0000
  H   H8        1.0  0.8622066256493496  0.33099964319821135  0.1241635354253248  1.0000
  H   H9        1.0  0.16739036003611568  0.3185541010631496  0.08668714730600159  1.0000
  H   H10       1.0  0.8326340110266272  0.8185604274006053  0.4133183915448626  1.0000
  H   H11       1.0  0.3326314805080983  0.681444560119715  0.5866910350768109  1.0000
  H   H12       1.0  0.6673815294303722  0.18144411258023746  0.913306800911613  1.0000
  H   H13       1.0  0.3469484412362931  0.21779254000334447  0.112810165748094  1.0000
  H   H14       1.0  0.653053409149507  0.717811126033986  0.3871800453932437  1.0000
  H   H15       1.0  0.1530558060830742  0.7821923158031721  0.612812796737984  1.0000
  H   H16       1.0  0.8469524583339236  0.28219918104175423  0.8871869044078977  1.0000
  H   H17       1.0  0.0575333277176853  0.7768417773039503  0.08526451234731522  1.0000
  H   H18       1.0  0.9424630838568502  0.27685564404370666  0.4147276492115779  1.0000
  H   H19       1.0  0.44246597828014694  0.22314769860407319  0.5852523750824545  1.0000
  H   H20       1.0  0.5575323134967718  0.7231638231869651  0.9147339842570331  1.0000
  H   H21       1.0  0.7377526906621269  0.9363275891257171  0.0339773955579119  1.0000
  H   H22       1.0  0.26224895165066897  0.4363290787622985  0.46601340439545413  1.0000
  H   H23       1.0  0.7622494359591129  0.06367272492575887  0.5339831700929096  1.0000
  H   H24       1.0  0.23775785101376098  0.5636772535442489  0.9660262979799795  1.0000
  H   H25       1.0  0.8420559491977571  0.9385237480953847  0.1952799621125365  1.0000
  H   H26       1.0  0.15794092524869544  0.4385264971687162  0.3047129044865358  1.0000
  H   H27       1.0  0.6579402316054798  0.0614660746346019  0.6952892730675657  1.0000
  H   H28       1.0  0.34204811357609083  0.5614788431086879  0.8047212350282535  1.0000
  H   H29       1.0  0.7773813227320829  0.7607117082185226  0.1244849119318161  1.0000
  H   H30       1.0  0.22261527928927188  0.2607171497191487  0.37551556721648177  1.0000
  H   H31       1.0  0.7226131602791666  0.23929081491207435  0.6244869887810154  1.0000
  H   H32       1.0  0.27737664272392937  0.7392927153616567  0.8755190134777139  1.0000
  C   C1        1.0  0.23348412682270236  0.21480057360454194  0.05701303297468029  1.0000
  C   C2        1.0  0.7665213154722182  0.7148041253173288  0.4429906467899229  1.0000
  C   C3        1.0  0.2665256441503701  0.7851981163833058  0.5570142506727009  1.0000
  C   C4        1.0  0.7334849558154204  0.28520038596837344  0.9429916577920991  1.0000
  C   C5        1.0  0.1396917861900846  0.0739734563196421  0.1055430735968343  1.0000
  C   C6        1.0  0.86030939081175  0.5739576894826113  0.39445675178494344  1.0000
  C   C7        1.0  0.36030292452907275  0.9260412636028974  0.6055590502355344  1.0000
  C   C8        1.0  0.6397060132760258  0.42603538528855006  0.8944527837408955  1.0000
  C   C9        1.0  0.9838673036891591  0.8571316583961773  0.024675622589924697  1.0000
  C   C10       1.0  0.0161423863164032  0.35712425859028224  0.47532880178735587  1.0000
  C   C11       1.0  0.5161300136264516  0.14286636800455446  0.5246611546240061  1.0000
  C   C12       1.0  0.4838739676371802  0.6428763229112773  0.975331582320777  1.0000
  C   C13       1.0  0.9577972186103806  0.7870339562883044  0.8812497587740112  1.0000
  C   C14       1.0  0.042194391911742506  0.2870335162738655  0.6187551103093227  1.0000
  C   C15       1.0  0.5421837107611296  0.21296142815548075  0.3812370697053282  1.0000
  C   C16       1.0  0.45779330145633423  0.712969707426886  0.11874693779821402  1.0000
  C   C17       1.0  0.8239026167310186  0.8746631407144035  0.0986825343018225  1.0000
  C   C18       1.0  0.17609738235424996  0.37467019760070724  0.40131253401157346  1.0000
  C   C19       1.0  0.6760999780662756  0.1253325172761208  0.5986897497902817  1.0000
  C   C20       1.0  0.3238959117864581  0.6253407908347626  0.901317521035267  1.0000
  N   N1        1.0  0.2557044077186105  0.21443601898550205  0.9056671583271623  1.0000
  N   N2        1.0  0.7442892451104938  0.7144298083302231  0.5943337168879664  1.0000
  N   N3        1.0  0.24428654704358613  0.7855623334208627  0.4056762283432533  1.0000
  N   N4        1.0  0.7557097617251429  0.2855670022427076  0.0943324846029228  1.0000
  N   N5        1.0  0.0664548422120959  0.0008425340103102  0.0032663984672395997  1.0000
  N   N6        1.0  0.9335519397364037  0.5008442670366051  0.4967366831505942  1.0000
  N   N7        1.0  0.43355451339710527  0.9991637632450289  0.5032608937734152  1.0000
  N   N8        1.0  0.5664535348165458  0.49917282402506663  0.9967300658236837  1.0000
  O   O1        1.0  0.135940390654028  0.0381679411568214  0.23242594247131615  1.0000
  O   O2        1.0  0.864071878227868  0.5381717793733569  0.2675843118790979  1.0000
  O   O3        1.0  0.36406709294660544  0.9618294306103295  0.7324170141054935  1.0000
  O   O4        1.0  0.635934309375955  0.46183979188936064  0.7675688572801818  1.0000
  O   O5        1.0  0.9792311154095332  0.8723446269895233  0.774214729608353  1.0000
  O   O6        1.0  0.020722738356418805  0.3723156015236099  0.7257910005571944  1.0000
  O   O7        1.0  0.5207525960243871  0.12765660283693583  0.2742124452805186  1.0000
  O   O8        1.0  0.4792230520958255  0.6276553650024324  0.22578623468469766  1.0000
  O   O9        1.0  0.9135153324569883  0.6481966908644452  0.8728761082522921  1.0000
  O   O10       1.0  0.08649214252516658  0.14817969743867104  0.6271186889836216  1.0000
  O   O11       1.0  0.586482133138084  0.3518032949892244  0.3728685723909777  1.0000
  O   O12       1.0  0.41353947450058115  0.8518074410599538  0.12712136484692138  1.0000
