data_image0
_chemical_formula_structural       Cd4H36C40N20Cl8
_chemical_formula_sum              "Cd4 H36 C40 N20 Cl8"
_cell_length_a       11.48118103008056
_cell_length_b       11.484132146935025
_cell_length_c       12.525501140249764
_cell_angle_alpha    85.61470794431744
_cell_angle_beta     62.73019095769691
_cell_angle_gamma    60.00492688193787

_space_group_name_H-M_alt    "P 1"
_space_group_IT_number       1

loop_
  _space_group_symop_operation_xyz
  'x, y, z'

loop_
  _atom_site_type_symbol
  _atom_site_label
  _atom_site_symmetry_multiplicity
  _atom_site_fract_x
  _atom_site_fract_y
  _atom_site_fract_z
  _atom_site_occupancy
  Cd  Cd1       1.0  0.004765968168172183  0.0842929073744116  0.1277776697784248  1.0000
  Cd  Cd2       1.0  0.7168398035841221  0.41585190387820575  0.3722534069140265  1.0000
  Cd  Cd3       1.0  0.9952356009579539  0.9157075936632568  0.8722217093414885  1.0000
  Cd  Cd4       1.0  0.2831597970667017  0.5841485995693958  0.6277475851821139  1.0000
  H   H1        1.0  0.4341600129578111  0.9890536147524923  0.24959754016611416  1.0000
  H   H2        1.0  0.17322237156167108  0.5105268146865213  0.25033841035386933  1.0000
  H   H3        1.0  0.565840206856933  0.010945860562500798  0.7504016681873154  1.0000
  H   H4        1.0  0.8267774631552308  0.4894716366437138  0.7496618248195546  1.0000
  H   H5        1.0  0.15754094259207813  0.28483069024075997  0.9898722529195683  1.0000
  H   H6        1.0  0.9324196894455523  0.21500350337695556  0.5101545272521122  1.0000
  H   H7        1.0  0.8424564795463209  0.715171864202702  0.01012870418600917  1.0000
  H   H8        1.0  0.0675814945827256  0.7849959736759471  0.4898458786877953  1.0000
  H   H9        1.0  0.31525531472131235  0.3952822564029219  0.9223235820314742  1.0000
  H   H10       1.0  0.1329480474609568  0.10453084783610218  0.5778252393281849  1.0000
  H   H11       1.0  0.6847446550080672  0.6047192733837434  0.077677986504341  1.0000
  H   H12       1.0  0.8670547279544251  0.8954676016449523  0.42217377882565893  1.0000
  H   H13       1.0  0.505988374651416  0.3367783335639345  0.9899356485338231  1.0000
  H   H14       1.0  0.33298011712454917  0.16279050784341106  0.510133057523106  1.0000
  H   H15       1.0  0.49401060683548786  0.6632231980162756  0.010067127305028015  1.0000
  H   H16       1.0  0.6670204717687513  0.8372099938106454  0.48986672727000513  1.0000
  H   H17       1.0  0.5556005220362435  0.16178345928117469  0.1194103180537526  1.0000
  H   H18       1.0  0.33737887680765494  0.33751028079769435  0.3803643783055294  1.0000
  H   H19       1.0  0.44439628093822836  0.8382201232948958  0.8805924227945287  1.0000
  H   H20       1.0  0.6626213430070959  0.662489194517299  0.6196348300479075  1.0000
  H   H21       1.0  0.27729201928220676  0.8824647824886612  0.3399851100660244  1.0000
  H   H22       1.0  0.999922907733811  0.6175531455927158  0.16027215149789245  1.0000
  H   H23       1.0  0.7227097839099981  0.11753366643164041  0.6600135121311795  1.0000
  H   H24       1.0  7.888744874410839e-05  0.38244530450472775  0.8397272723291423  1.0000
  H   H25       1.0  0.08707989135207579  0.0013995520382223997  0.3656777508786959  1.0000
  H   H26       1.0  0.9543777004097005  0.4986493796822132  0.13443266205427318  1.0000
  H   H27       1.0  0.9129228840633058  0.9985988974428324  0.6343212672751477  1.0000
  H   H28       1.0  0.045621531162573996  0.5013500974263252  0.8655677536021927  1.0000
  H   H29       1.0  0.3324402921882951  0.6419214569133443  0.29197815424760165  1.0000
  H   H30       1.0  0.7665764337126928  0.8579846095758014  0.20774687170403172  1.0000
  H   H31       1.0  0.6675609158689324  0.3580780166081113  0.7080198468028057  1.0000
  H   H32       1.0  0.23342340901385217  0.14201384057728464  0.7922525618395612  1.0000
  H   H33       1.0  0.12244457148945986  0.7256734899834001  0.07132110828163007  1.0000
  H   H34       1.0  0.4195849590178822  0.7744610043919948  0.42857081625732035  1.0000
  H   H35       1.0  0.8775540649478301  0.2743270117262994  0.9286786862280396  1.0000
  H   H36       1.0  0.5804142805640354  0.22553847153939438  0.5714287977693076  1.0000
  C   C1        1.0  0.2691482874699815  0.1620960561692044  0.09140554157350067  1.0000
  C   C2        1.0  0.02304058099687722  0.3375182220104093  0.4084764580927569  1.0000
  C   C3        1.0  0.7308485395334329  0.8379075228754115  0.9085947943852801  1.0000
  C   C4        1.0  0.9769608290878293  0.6624792041022758  0.5915239925542722  1.0000
  C   C5        1.0  0.24562855517093843  0.2573881734870581  0.015313151266830999  1.0000
  C   C6        1.0  0.018620389197209854  0.24230987865931303  0.4846481225917359  1.0000
  C   C7        1.0  0.7543704423352651  0.7426133557388466  0.9846880213123513  1.0000
  C   C8        1.0  0.9813808028407182  0.7576895972164407  0.5153514817183404  1.0000
  C   C9        1.0  0.3334389534257339  0.317912150539776  0.9790300957999349  1.0000
  C   C10       1.0  0.13059641292083057  0.181783552245264  0.5210104851551449  1.0000
  C   C11       1.0  0.6665600520901123  0.6820893775089799  0.02097027514940909  1.0000
  C   C12       1.0  0.8694047791170973  0.8182159236304825  0.47898911915493164  1.0000
  C   C13       1.0  0.4430486856044026  0.2839603193070701  0.017038799978820452  1.0000
  C   C14       1.0  0.2444001410272136  0.21557085901618217  0.4829365131962291  1.0000
  C   C15       1.0  0.556948125379719  0.7160432620918512  0.9829631392396296  1.0000
  C   C16       1.0  0.7556016541553345  0.7844275910812614  0.5170629106308057  1.0000
  C   C17       1.0  0.47018230822177287  0.18773385328819356  0.09100779584112922  1.0000
  C   C18       1.0  0.24948015754930003  0.31160667421585225  0.4087968140336287  1.0000
  C   C19       1.0  0.5298150898876768  0.8122687046867154  0.9089955661539477  1.0000
  C   C20       1.0  0.7505210424982707  0.6883928004827523  0.5912019886466169  1.0000
  C   C21       1.0  0.3810928714727666  0.1278542089549859  0.1276822941417208  1.0000
  C   C22       1.0  0.1371648817482054  0.37157775223201367  0.3721212882635712  1.0000
  C   C23       1.0  0.6189065031216356  0.8721483454328406  0.8723186532473051  1.0000
  C   C24       1.0  0.8628369134343501  0.6284206978654366  0.6278781355634635  1.0000
  C   C25       1.0  0.25994393558574547  0.016561699574943096  0.21180090196702386  1.0000
  C   C26       1.0  0.9885205519449797  0.4833208300521293  0.28831859956562766  1.0000
  C   C27       1.0  0.7400556810843777  0.9834388015183606  0.7881984868694403  1.0000
  C   C28       1.0  0.011478687636937887  0.5166786458792599  0.7116810144610001  1.0000
  C   C29       1.0  0.20749686563304687  0.932401433435096  0.294908426814871  1.0000
  C   C30       1.0  0.934984907103711  0.5676171720799204  0.20526268997043934  1.0000
  C   C31       1.0  0.7925043344145305  0.06759804126350837  0.7050903758653746  1.0000
  C   C32       1.0  0.06501493562283384  0.43238127807315874  0.7947367435731465  1.0000
  C   C33       1.0  0.2701929756734245  0.6923001888394394  0.24148419759200834  1.0000
  C   C34       1.0  0.7041878068182751  0.8076507116789386  0.25834132043760866  1.0000
  C   C35       1.0  0.7298082323837959  0.307699284682009  0.7585138034583992  1.0000
  C   C36       1.0  0.295812404986826  0.1923487648132038  0.7416586895456588  1.0000
  C   C37       1.0  0.16097762122698356  0.7369732988541955  0.1325194930242333  1.0000
  C   C38       1.0  0.5306278349850116  0.7631160391815685  0.3674123483104168  1.0000
  C   C39       1.0  0.8390225985877676  0.263026176460805  0.8674797153292033  1.0000
  C   C40       1.0  0.46937336506255883  0.23688343551703628  0.6325864543698216  1.0000
  N   N1        1.0  0.19526320127582134  0.0910205300289988  0.14612398789944347  1.0000
  N   N2        1.0  0.9326188771212143  0.40884702213012497  0.3539280663693702  1.0000
  N   N3        1.0  0.8047367764632083  0.9089809985805173  0.8538767790065408  1.0000
  N   N4        1.0  0.06738135070317934  0.5911524520077194  0.6460703403542284  1.0000
  N   N5        1.0  0.3719556774062338  0.03484584871673489  0.20328117017023575  1.0000
  N   N6        1.0  0.11051279409119985  0.46475218100718496  0.2966617614137165  1.0000
  N   N7        1.0  0.6280443083424456  0.9651556787156321  0.7967187951059101  1.0000
  N   N8        1.0  0.8894880368778291  0.535246267352356  0.7033364648268474  1.0000
  N   N9        1.0  0.21257462816758024  0.8256067884512741  0.23348688458712988  1.0000
  N   N10       1.0  0.7718394264345814  0.6744345291849354  0.2666013095130424  1.0000
  N   N11       1.0  0.7874259767450197  0.1743937108484843  0.7665112969463053  1.0000
  N   N12       1.0  0.22816138851514706  0.32556392152890357  0.7333985199871906  1.0000
  N   N13       1.0  0.14116587333673183  0.8557700740292159  0.1648681326225016  1.0000
  N   N14       1.0  0.661937543191442  0.6443572206794668  0.3352848775459092  1.0000
  N   N15       1.0  0.8588357118086876  0.1442304246541539  0.8351296432377495  1.0000
  N   N16       1.0  0.3380616963904826  0.3556422552519223  0.6647147364807254  1.0000
  N   N17       1.0  0.2388936586491821  0.633322453758467  0.17875129542398577  1.0000
  N   N18       1.0  0.5511943079785977  0.8666701662891684  0.3209863308185064  1.0000
  N   N19       1.0  0.7611065691752116  0.3666770203793844  0.8212471112996128  1.0000
  N   N20       1.0  0.4488055347479474  0.13332828386391773  0.6790131027250795  1.0000
  Cl  Cl1       1.0  0.8252289949943898  0.017470919331401505  0.1107275600370983  1.0000
  Cl  Cl2       1.0  0.45336606007306557  0.4826681677113526  0.38925247458221435  1.0000
  Cl  Cl3       1.0  0.1747737804209846  0.9825275301496459  0.8892714581167452  1.0000
  Cl  Cl4       1.0  0.5466345288202419  0.5173323339427045  0.6107473102108968  1.0000
  Cl  Cl5       1.0  0.8564920661778076  0.3443159405723222  0.12204182177182314  1.0000
  Cl  Cl6       1.0  0.8226688581518714  0.15585473593826288  0.3779945385672576  1.0000
  Cl  Cl7       1.0  0.1435075424826664  0.6556845616981306  0.8779583686944862  1.0000
  Cl  Cl8       1.0  0.17733369120708165  0.8441457644830095  0.6220044348794644  1.0000
