data_image0
_chemical_formula_structural       Zn4H16C52S4N4O28F12
_chemical_formula_sum              "Zn4 H16 C52 S4 N4 O28 F12"
_cell_length_a       8.067592291558922
_cell_length_b       10.893383358683232
_cell_length_c       34.29788397334116
_cell_angle_alpha    89.60819404251123
_cell_angle_beta     90.4093188125276
_cell_angle_gamma    89.40265387622541

_space_group_name_H-M_alt    "P 1"
_space_group_IT_number       1

loop_
  _space_group_symop_operation_xyz
  'x, y, z'

loop_
  _atom_site_type_symbol
  _atom_site_label
  _atom_site_symmetry_multiplicity
  _atom_site_fract_x
  _atom_site_fract_y
  _atom_site_fract_z
  _atom_site_occupancy
  Zn  Zn1       1.0  0.7164507579510299  0.0006062485445284005  0.4990591977550949  1.0000
  Zn  Zn2       1.0  0.37768941330430295  0.0024783714534492986  0.4999427021128966  1.0000
  Zn  Zn3       1.0  0.1859621073371969  0.0007874821817423996  0.0012920279550883  1.0000
  Zn  Zn4       1.0  0.5249605742987029  0.9974813971845508  0.999935024572693  1.0000
  H   H1        1.0  0.6732808931109702  0.017568624375087393  0.8770354759369354  1.0000
  H   H2        1.0  0.6733762089809616  0.0132704963527104  0.8047983589618539  1.0000
  H   H3        1.0  0.14468218806478458  0.963073499299746  0.8052731973225348  1.0000
  H   H4        1.0  0.7564970341469746  0.9625309914422714  0.6947865563833843  1.0000
  H   H5        1.0  0.22665398517328583  0.014302779114828504  0.6950128099449556  1.0000
  H   H6        1.0  0.22673148652763334  0.018805992215220592  0.6227355052927237  1.0000
  H   H7        1.0  0.6736551691721928  0.9914428942254362  0.1236054406270739  1.0000
  H   H8        1.0  0.6747173855933397  0.0020763642764833994  0.1956814344838378  1.0000
  H   H9        1.0  0.14175761940821016  0.02979357594639249  0.1939646686901071  1.0000
  H   H10       1.0  0.761444873092877  0.034151985558921204  0.3057005904745296  1.0000
  H   H11       1.0  0.22969246836312607  0.0021517330320222  0.3042301576376119  1.0000
  H   H12       1.0  0.2313386788798297  0.9939345238812222  0.3764064179249118  1.0000
  H   H13       1.0  0.11810958209540699  0.07206176469082949  0.924476050550659  1.0000
  H   H14       1.0  0.7821700306111836  0.0728989028949414  0.5752800569148276  1.0000
  H   H15       1.0  0.11857522720280399  0.8917396921011613  0.077123870504721  1.0000
  H   H16       1.0  0.7894045068552701  0.899576677289012  0.4231099167826926  1.0000
  C   C1        1.0  0.6081180423607719  0.7703150003972963  0.5046538772562386  1.0000
  C   C2        1.0  0.47845678811128783  0.00043330552224319936  0.5739385038763984  1.0000
  C   C3        1.0  0.6084480443343449  0.23257858929630967  0.5023574403701758  1.0000
  C   C4        1.0  0.48599243521059066  0.9979055032502232  0.4257178287639292  1.0000
  C   C5        1.0  0.2948167757834382  0.7689890078785524  0.9954603781582635  1.0000
  C   C6        1.0  0.422313091979305  0.9993652897648245  0.9259631868249443  1.0000
  C   C7        1.0  0.29366444900792016  0.2311635468933488  0.9976703886044122  1.0000
  C   C8        1.0  0.4188742076378773  0.9923558128885687  0.0742246028070426  1.0000
  C   C9        1.0  0.4109090112638897  0.9915667381869114  0.8826644993906642  1.0000
  C   C10       1.0  0.5574365625488228  0.005173982437568697  0.8611712809687333  1.0000
  C   C11       1.0  0.5578985816554222  0.0033681208418699002  0.820665842715556  1.0000
  C   C12       1.0  0.40717126514101665  0.9889372336036075  0.8005548160490221  1.0000
  C   C13       1.0  0.25998032567547114  0.9747283571193038  0.8213895882727086  1.0000
  C   C14       1.0  0.2599598368457379  0.9747070124413851  0.8618469750196525  1.0000
  C   C15       1.0  0.64093121416861  0.9744860920497161  0.6786076076422844  1.0000
  C   C16       1.0  0.49338531588796997  0.9891955093456415  0.6993704738808475  1.0000
  C   C17       1.0  0.34235341168099603  0.0041106143163602985  0.6791836187092457  1.0000
  C   C18       1.0  0.3428182746482021  0.005968589655871902  0.6386694916528838  1.0000
  C   C19       1.0  0.4896873450502069  0.991956498882253  0.6172499782712251  1.0000
  C   C20       1.0  0.6410330359990368  0.974575057975173  0.6381513618643383  1.0000
  C   C21       1.0  0.40873985707898436  0.003933065190914  0.1173708892477379  1.0000
  C   C22       1.0  0.5570345892605956  2.778581809099859e-06  0.13911009930407664  1.0000
  C   C23       1.0  0.5581502430960866  0.0059444418882606  0.1795451506553789  1.0000
  C   C24       1.0  0.4067228482848364  0.0160970365184667  0.19927925724878998  1.0000
  C   C25       1.0  0.2576505730203777  0.021628526660165903  0.1781421025274597  1.0000
  C   C26       1.0  0.2567670246699265  0.015836469102993096  0.1377181199563537  1.0000
  C   C27       1.0  0.6458741255000717  0.025664473734366304  0.32158639788846693  1.0000
  C   C28       1.0  0.4970274759689701  0.018092785546642204  0.3005134932618532  1.0000
  C   C29       1.0  0.3460481030155265  0.0074904785642075965  0.3203371737694241  1.0000
  C   C30       1.0  0.3475353732362123  0.0030458615867204  0.3608193393532204  1.0000
  C   C31       1.0  0.4956833501581173  0.0089034703610054  0.38250110718102087  1.0000
  C   C32       1.0  0.6470819033855406  0.021416636023090505  0.3620418012679494  1.0000
  C   C33       1.0  0.613954378416416  0.6324998339354195  0.5084238938879294  1.0000
  C   C34       1.0  0.5452100985708198  0.5662439034885764  0.5404761743826542  1.0000
  C   C35       1.0  0.6812488849802278  0.5673720868132361  0.47803187898291105  1.0000
  C   C36       1.0  0.47943985628577923  0.625444528582534  0.5737043498979659  1.0000
  C   C37       1.0  0.4105328193275496  0.5616856871115345  0.6043630562850097  1.0000
  C   C38       1.0  0.6135358854488615  0.3700417945587019  0.5072391148984821  1.0000
  C   C39       1.0  0.6810522888542822  0.4378924520589463  0.47735713216805914  1.0000
  C   C40       1.0  0.5450857863468884  0.4336046891361817  0.5398590330639976  1.0000
  C   C41       1.0  0.47973959295950414  0.3718415822321147  0.5726572174132514  1.0000
  C   C42       1.0  0.4107285990019776  0.4326948212647395  0.6038083737456503  1.0000
  C   C43       1.0  0.28893057265569416  0.6314019888138205  0.9916878859886467  1.0000
  C   C44       1.0  0.3568874870160458  0.5654036290940495  0.9595526583306722  1.0000
  C   C45       1.0  0.2219613866428034  0.5660332609997808  0.0221309836458232  1.0000
  C   C46       1.0  0.42257723703372807  0.6248271799114917  0.9262810860314588  1.0000
  C   C47       1.0  0.4902564747311117  0.5612092824163851  0.8954924849604564  1.0000
  C   C48       1.0  0.28834914804048856  0.368880509342766  0.9927877649472094  1.0000
  C   C49       1.0  0.22177817881064493  0.4365225632543428  0.0227689215490798  1.0000
  C   C50       1.0  0.3560438711881417  0.4327483685421853  0.9600796030995156  1.0000
  C   C51       1.0  0.4202216722717366  0.3712672159449966  0.9271760417776846  1.0000
  C   C52       1.0  0.48897363752337947  0.43221624087397703  0.8959567117129765  1.0000
  S   S1        1.0  0.05745568609326309  0.9467543805355304  0.8817899256263004  1.0000
  S   S2        1.0  0.8443803299768077  0.9463355709965028  0.6183669190077765  1.0000
  S   S3        1.0  0.051221670212918  0.026858603095462293  0.11683997015455819  1.0000
  S   S4        1.0  0.8518728595636559  0.0350497299622958  0.3829000993286584  1.0000
  N   N1        1.0  0.3839033451163942  0.9881464476856363  0.7596299539929418  1.0000
  N   N2        1.0  0.5166508566508625  0.988279710000988  0.7402968777909962  1.0000
  N   N3        1.0  0.3850170821334089  0.019034028088540798  0.24015565734251962  1.0000
  N   N4        1.0  0.518646902399027  0.019475474558476  0.2596215662224495  1.0000
  O   O1        1.0  0.7490120995861106  0.8241477800706813  0.5038784413263855  1.0000
  O   O2        1.0  0.4667601188743688  0.8204337676879941  0.5012005421242804  1.0000
  O   O3        1.0  0.3371127178990605  0.9971925630515271  0.5566727274172436  1.0000
  O   O4        1.0  0.6136827285825819  0.0130939947139765  0.5550525379184279  1.0000
  O   O5        1.0  0.4686759566360052  0.18393008237501357  0.4973088903594771  1.0000
  O   O6        1.0  0.7495952862794938  0.1763615091546029  0.5026233830848597  1.0000
  O   O7        1.0  0.6215001523096859  0.9746562607259504  0.4442002105927401  1.0000
  O   O8        1.0  0.346090319057751  0.0099051794868359  0.4427398032198155  1.0000
  O   O9        1.0  0.1539158930547941  0.8249558887916988  0.9964781846411483  1.0000
  O   O10       1.0  0.43627678859012065  0.8167342528203819  0.99869317654953  1.0000
  O   O11       1.0  0.5639087493656801  0.993892589847242  0.9431191491903305  1.0000
  O   O12       1.0  0.28728467162279964  0.013450926018208496  0.9449285515568279  1.0000
  O   O13       1.0  0.4336312254809727  0.1802302222353802  0.0025085870091387996  1.0000
  O   O14       1.0  0.1526326295602942  0.1770208831672021  0.9976081842134619  1.0000
  O   O15       1.0  0.2837523363435679  0.9701081784279068  0.0558283192260589  1.0000
  O   O16       1.0  0.5585622807360693  0.0032344595125123996  0.057119425268332705  1.0000
  O   O17       1.0  0.0218539164734253  0.0692996313238439  0.9056552178140437  1.0000
  O   O18       1.0  0.9392716788469998  0.9492508457191279  0.8501932213213975  1.0000
  O   O19       1.0  0.0658821213822947  0.8417873247430091  0.9074317595153474  1.0000
  O   O20       1.0  0.8776038141416508  0.06942757322909898  0.5942856999028479  1.0000
  O   O21       1.0  0.9622307946986833  0.947940082305351  0.650017188888519  1.0000
  O   O22       1.0  0.8388104625172587  0.8419995284757533  0.5929305995565528  1.0000
  O   O23       1.0  0.0293698832888794  0.8954215876104782  0.0971173367304843  1.0000
  O   O24       1.0  0.9354671826718147  0.027658814018359096  0.1485332929515621  1.0000
  O   O25       1.0  0.0435015549240063  0.1229973505629474  0.087900531272382  1.0000
  O   O26       1.0  0.8795814452769691  0.9040376292736237  0.4033550417103768  1.0000
  O   O27       1.0  0.9679052490855397  0.0368040214842082  0.35127385205049677  1.0000
  O   O28       1.0  0.8543919227095387  0.1315238509916838  0.411314220686279  1.0000
  F   F1        1.0  0.742975392665329  0.3824524727109306  0.4456014444301815  1.0000
  F   F2        1.0  0.7437596083248438  0.626223754474907  0.446690857891852  1.0000
  F   F3        1.0  0.48745871309326116  0.24789537434013914  0.5750569295320389  1.0000
  F   F4        1.0  0.34860219428779254  0.3700044358598831  0.634175507506491  1.0000
  F   F5        1.0  0.3482622711376564  0.6211609340795334  0.6352356939745221  1.0000
  F   F6        1.0  0.4853793143766794  0.7485156515575825  0.5770041312655749  1.0000
  F   F7        1.0  0.1603200428477365  0.38061945058193186  0.0545766808046935  1.0000
  F   F8        1.0  0.16022176699233634  0.6245411770252006  0.0535600108260539  1.0000
  F   F9        1.0  0.41126119295599745  0.24762513357005383  0.9247541033630923  1.0000
  F   F10       1.0  0.5498571623484382  0.3697817541576073  0.8654690161151848  1.0000
  F   F11       1.0  0.552548971042569  0.6209654115780056  0.8645952137012145  1.0000
  F   F12       1.0  0.4183181556742284  0.7481568163080253  0.9231021029884444  1.0000
