data_image0
_chemical_formula_structural       LiBH20C16N8
_chemical_formula_sum              "Li1 B1 H20 C16 N8"
_cell_length_a       7.563653869500327
_cell_length_b       7.5620850705469325
_cell_length_c       9.765671105227536
_cell_angle_alpha    112.79606196045223
_cell_angle_beta     112.77359120391293
_cell_angle_gamma    90.0074726201435

_space_group_name_H-M_alt    "P 1"
_space_group_IT_number       1

loop_
  _space_group_symop_operation_xyz
  'x, y, z'

loop_
  _atom_site_type_symbol
  _atom_site_label
  _atom_site_symmetry_multiplicity
  _atom_site_fract_x
  _atom_site_fract_y
  _atom_site_fract_z
  _atom_site_occupancy
  Li  Li1       1.0  0.9999563885655646  0.9998859175916405  0.9999569817435372  1.0000
  B   B1        1.0  0.24997843290310573  0.7500900109048627  0.5000479037192704  1.0000
  H   H1        1.0  0.5785607027849835  0.5571562567951814  0.4805557474077419  1.0000
  H   H2        1.0  0.9019584297029581  0.923541440183257  0.4807872069507582  1.0000
  H   H3        1.0  0.07660060507917876  0.4210983698121352  0.5192903145461045  1.0000
  H   H4        1.0  0.4427826890711087  0.09834015084016558  0.5194430027637367  1.0000
  H   H5        1.0  0.47277550892008685  0.20132278712966914  0.2126057107999556  1.0000
  H   H6        1.0  0.7398544418909552  0.011481632712040802  0.21296147366521714  1.0000
  H   H7        1.0  0.9889136433227957  0.5267650133988369  0.7872389325521922  1.0000
  H   H8        1.0  0.7988506823888173  0.26025396299202436  0.7870473210142919  1.0000
  H   H9        1.0  0.8674925066586923  0.5222202368126858  0.1335905230351385  1.0000
  H   H10       1.0  0.2658920561315127  0.6111847094198166  0.13352271828151868  1.0000
  H   H11       1.0  0.3885810627022154  0.1325924323747074  0.8665566405225819  1.0000
  H   H12       1.0  0.4778963857027278  0.7341126501477361  0.8664263906286466  1.0000
  H   H13       1.0  0.8631603557715691  0.4848334246147202  0.2997642405438087  1.0000
  H   H14       1.0  0.43641283963226124  0.8148536206193312  0.29975374026064117  1.0000
  H   H15       1.0  0.18500792740934457  0.1367250323860532  0.7003293136303625  1.0000
  H   H16       1.0  0.5152497074481347  0.5635042126669205  0.70023796665037  1.0000
  H   H17       1.0  0.8167669490411953  0.28136656515645336  0.1112974142572441  1.0000
  H   H18       1.0  0.29442945835211276  0.8297811478827342  0.1113287979894011  1.0000
  H   H19       1.0  0.170024279348155  0.18311576743842292  0.888760633919304  1.0000
  H   H20       1.0  0.7186492851616891  0.7056964270898829  0.8886453626419096  1.0000
  C   C1        1.0  0.43597180941267766  0.4753458593042338  0.388264645119115  1.0000
  C   C2        1.0  0.9522467980056317  0.9131068633514798  0.3884935671690001  1.0000
  C   C3        1.0  0.08705184758030526  0.5637093482363865  0.6115970431417992  1.0000
  C   C4        1.0  0.5247209217645546  0.04795069770067069  0.6116238801458637  1.0000
  C   C5        1.0  0.3814838966062054  0.3001021957397682  0.25356746330393776  1.0000
  C   C6        1.0  0.87210065984312  0.9536468975923282  0.25384060674412723  1.0000
  C   C7        1.0  0.04660225064072415  0.6181729686723398  0.7463010776650592  1.0000
  C   C8        1.0  0.7001001348587367  0.1279486450291429  0.7460821977850431  1.0000
  C   C9        1.0  0.11522258493420878  0.40959210601299384  0.2507179943112163  1.0000
  C   C10       1.0  0.13539570400951817  0.8411415405604216  0.2508233908056924  1.0000
  C   C11       1.0  0.15892987054711938  0.8845851828978013  0.7493158178010617  1.0000
  C   C12       1.0  0.5904195688691585  0.8647293047135348  0.7491957544403361  1.0000
  C   C13       1.0  0.9049863105760492  0.42594114306662323  0.19719063352410154  1.0000
  C   C14       1.0  0.29206145281541046  0.7711075212202303  0.19717276964185976  1.0000
  C   C15       1.0  0.228729573213549  0.09493930387314718  0.8029002372739812  1.0000
  C   C16       1.0  0.5741264764644212  0.7079850521432148  0.8027703333960333  1.0000
  N   N1        1.0  0.2662097695496257  0.5455568281090564  0.3869557036214601  1.0000
  N   N2        1.0  0.12066057242148524  0.841523876655422  0.3870747074745039  1.0000
  N   N3        1.0  0.1585702176333327  0.7336346701386557  0.613026560744565  1.0000
  N   N4        1.0  0.4544331808351386  0.8795236403518201  0.6130465068222506  1.0000
  N   N5        1.0  0.1812747191862698  0.2600565127768277  0.16811530160784116  1.0000
  N   N6        1.0  0.9867919159732848  0.9081102989834587  0.16830167270896362  1.0000
  N   N7        1.0  0.09204540095031885  0.8184395928744049  0.831868259413106  1.0000
  N   N8        1.0  0.740077917051316  0.013233854111909697  0.831600066778968  1.0000
