data_image0
_chemical_formula_structural       Mn4H32C28N40
_chemical_formula_sum              "Mn4 H32 C28 N40"
_cell_length_a       7.471022078052324
_cell_length_b       8.766983045035781
_cell_length_c       16.767454681179096
_cell_angle_alpha    89.99971337500986
_cell_angle_beta     94.21186902759518
_cell_angle_gamma    89.99985772718891

_space_group_name_H-M_alt    "P 1"
_space_group_IT_number       1

loop_
  _space_group_symop_operation_xyz
  'x, y, z'

loop_
  _atom_site_type_symbol
  _atom_site_label
  _atom_site_symmetry_multiplicity
  _atom_site_fract_x
  _atom_site_fract_y
  _atom_site_fract_z
  _atom_site_occupancy
  Mn  Mn1       1.0  0.17946432171504506  0.3847852629096735  0.5299899841284413  1.0000
  Mn  Mn2       1.0  0.32053432460234177  0.8847816724214184  0.9700093616262535  1.0000
  Mn  Mn3       1.0  0.8205285536112111  0.6152221854896143  0.4700118055098699  1.0000
  Mn  Mn4       1.0  0.6794692802396936  0.11521551018429219  0.029990981055945595  1.0000
  H   H1        1.0  0.3992351952014203  0.17544214427707067  0.6605446740289478  1.0000
  H   H2        1.0  0.1007681678524506  0.6754425623892643  0.8394523826397275  1.0000
  H   H3        1.0  0.6007643882624124  0.8245607415439835  0.3394567331744156  1.0000
  H   H4        1.0  0.8992340873384704  0.32455690151322597  0.1605461278094324  1.0000
  H   H5        1.0  0.32495637103601627  0.9908172107878459  0.6913596994864335  1.0000
  H   H6        1.0  0.17504997704183006  0.4908146949368586  0.8086408099491535  1.0000
  H   H7        1.0  0.6750378439243006  0.009182253109983702  0.308641536494882  1.0000
  H   H8        1.0  0.8249576491726671  0.5091802063832488  0.1913584682072624  1.0000
  H   H9        1.0  0.3647901764346456  0.8066859426359727  0.5813050433867628  1.0000
  H   H10       1.0  0.13521947664314377  0.30668586910783097  0.9186966449755756  1.0000
  H   H11       1.0  0.6352067077346103  0.19331694320564452  0.41869269935668285  1.0000
  H   H12       1.0  0.8647868149601832  0.6933113134917407  0.08130437979438199  1.0000
  H   H13       1.0  0.30866716646385584  0.8146838468123931  0.416835890769704  1.0000
  H   H14       1.0  0.19133627113179585  0.31468917941516145  0.0831653064859879  1.0000
  H   H15       1.0  0.691325691317708  0.185322460963846  0.5831617235491322  1.0000
  H   H16       1.0  0.808671360082613  0.6853137064018922  0.9168351646085142  1.0000
  H   H17       1.0  0.19710616472728756  0.1105296796063371  0.3856893964999628  1.0000
  H   H18       1.0  0.3028912351720194  0.6105341276506877  0.11430915522160488  1.0000
  H   H19       1.0  0.8028840263443299  0.8894777687962049  0.6143123075250114  1.0000
  H   H20       1.0  0.6971163885262541  0.3894664768885363  0.8856895264526796  1.0000
  H   H21       1.0  0.04350184068299261  0.9972389950306136  0.7606923779605166  1.0000
  H   H22       1.0  0.4565044783109327  0.4972376942985335  0.7393063247222073  1.0000
  H   H23       1.0  0.9564923717706647  0.0027604688701004  0.2393082615463697  1.0000
  H   H24       1.0  0.543504492539455  0.5027560663738129  0.2606935927168408  1.0000
  H   H25       1.0  0.7755552170259319  0.21280524216401636  0.7752898833302736  1.0000
  H   H26       1.0  0.724451141993029  0.7128019451500763  0.7247084232586117  1.0000
  H   H27       1.0  0.22443765330232418  0.7871930810950758  0.22471071337148626  1.0000
  H   H28       1.0  0.27555917097701876  0.2871963780936326  0.2752915369809443  1.0000
  H   H29       1.0  0.8595547610397956  0.43791275786723827  0.6678492569427731  1.0000
  H   H30       1.0  0.6404454686364572  0.9379063187457035  0.8321470780661356  1.0000
  H   H31       1.0  0.14043677216871936  0.5620889873174448  0.3321524898965648  1.0000
  H   H32       1.0  0.35955812617703486  0.062092004514802616  0.16785087871680557  1.0000
  C   C1        1.0  0.2930625503311716  0.08916403923220881  0.6527397609324621  1.0000
  C   C2        1.0  0.20693842818808855  0.5891618758498253  0.8472598288287114  1.0000
  C   C3        1.0  0.7069316671319683  0.9108377059492201  0.3472620715202126  1.0000
  C   C4        1.0  0.7930651741492056  0.41083416611552087  0.1527399173805932  1.0000
  C   C5        1.0  0.3184290543434398  0.8981840225537069  0.5415395170643007  1.0000
  C   C6        1.0  0.18157626263080567  0.39818346647687264  0.9584611995145521  1.0000
  C   C7        1.0  0.6815638059524429  0.10181772264666482  0.4584586937351246  1.0000
  C   C8        1.0  0.818428684338549  0.6018137161272109  0.041539185974308196  1.0000
  C   C9        1.0  0.2910525283400744  0.9059784659528771  0.45896685892596867  1.0000
  C   C10       1.0  0.2089506027281018  0.40598074662829475  0.0410340919931329  1.0000
  C   C11       1.0  0.7089416740812098  0.09402441988911651  0.5410313946785834  1.0000
  C   C12       1.0  0.791058365609885  0.594016435976677  0.9589652289668676  1.0000
  C   C13       1.0  0.2341765921050296  0.0561754332238706  0.44261978897598897  1.0000
  C   C14       1.0  0.2658236770573125  0.5561793694451609  0.057379591498360596  1.0000
  C   C15       1.0  0.7658122543364525  0.9438297338966921  0.5573812757709715  1.0000
  C   C16       1.0  0.7341839491495321  0.4438200944479291  0.9426196866519019  1.0000
  C   C17       1.0  0.0178930877499752  0.10544891798601698  0.7305520347871876  1.0000
  C   C18       1.0  0.48211320460558216  0.6054435024125909  0.7694476822634682  1.0000
  C   C19       1.0  0.9821105120729995  0.8945516865552037  0.2694471149415278  1.0000
  C   C20       1.0  0.5178957662428941  0.3945513989030047  0.2305522351740379  1.0000
  C   C21       1.0  0.8868561520056202  0.21632761458680966  0.7372478271460776  1.0000
  C   C22       1.0  0.6131488480442328  0.7163253260666378  0.7627492341814843  1.0000
  C   C23       1.0  0.11314074220367588  0.7836672867405454  0.2627523015058628  1.0000
  C   C24       1.0  0.38686012280232507  0.2836707158922066  0.2372506832544872  1.0000
  C   C25       1.0  0.9285334264049752  0.3316206295685973  0.6831069050553109  1.0000
  C   C26       1.0  0.5714698469186884  0.8316156245952653  0.8168903988479882  1.0000
  C   C27       1.0  0.07145944893277091  0.6683799749712094  0.3168948845922301  1.0000
  C   C28       1.0  0.42853777678340776  0.1683826986574672  0.18310828282938016  1.0000
  N   N1        1.0  0.06878542564184187  0.6087642503940246  0.554562334883357  1.0000
  N   N2        1.0  0.4312128028145493  0.10876101049117179  0.945437116378592  1.0000
  N   N3        1.0  0.9312061025533608  0.3912374947964352  0.4454382190071228  1.0000
  N   N4        1.0  0.5687921441586354  0.8912338908264203  0.05456326911335199  1.0000
  N   N5        1.0  0.07149114736362351  0.6704841428150419  0.6188557864222375  1.0000
  N   N6        1.0  0.4285082184975905  0.17047924888603916  0.881144137583959  1.0000
  N   N7        1.0  0.9285044097201761  0.3295176023676447  0.38114549236266976  1.0000
  N   N8        1.0  0.5714940366952419  0.8295190743732022  0.1188543728667426  1.0000
  N   N9        1.0  0.07347360040152749  0.7327584009189111  0.6806046129815185  1.0000
  N   N10       1.0  0.42652554884543986  0.23275410813306513  0.8193933535656441  1.0000
  N   N11       1.0  0.9265246359197618  0.26724562555278913  0.3193955584647838  1.0000
  N   N12       1.0  0.5734753742467119  0.7672442151162571  0.1806074999761123  1.0000
  N   N13       1.0  0.42774041520389255  0.42317756721277516  0.6011472995760483  1.0000
  N   N14       1.0  0.07225809719138708  0.9231751901737295  0.8988507496340075  1.0000
  N   N15       1.0  0.5722497683573308  0.5768241779821965  0.39885261503333413  1.0000
  N   N16       1.0  0.9277468447665668  0.07682085179287411  0.1011484429075296  1.0000
  N   N17       1.0  0.5535682287733722  0.4986812407139283  0.5871540922396505  1.0000
  N   N18       1.0  0.9464304672661398  0.9986779363448836  0.912845018358631  1.0000
  N   N19       1.0  0.4464259811659657  0.5013227857626461  0.4128459507866537  1.0000
  N   N20       1.0  0.053573132562583184  0.001319246266597  0.0871541313747102  1.0000
  N   N21       1.0  0.6812200867231653  0.5743046624582461  0.5767538920768799  1.0000
  N   N22       1.0  0.8187800392239096  0.07430187507583237  0.9232475565669204  1.0000
  N   N23       1.0  0.3187714389692076  0.4256948014486071  0.4232460653422478  1.0000
  N   N24       1.0  0.1812249102540164  0.9256941668821169  0.0767534253979107  1.0000
  N   N25       1.0  0.2772960957762222  0.0373370469609853  0.5703537895758259  1.0000
  N   N26       1.0  0.22270773850198813  0.5373374756926099  0.9296454291657738  1.0000
  N   N27       1.0  0.7226981141650342  0.9626658388723468  0.429646253452013  1.0000
  N   N28       1.0  0.7772998877086792  0.462659706913989  0.0703538489875584  1.0000
  N   N29       1.0  0.22732188735936623  0.136458145847179  0.5106590014336874  1.0000
  N   N30       1.0  0.27267892734583654  0.6364590323639021  0.9893392677605917  1.0000
  N   N31       1.0  0.7726696433367406  0.8635470212701294  0.4893421489266032  1.0000
  N   N32       1.0  0.727328698861001  0.36354043152918797  0.010660010389663903  1.0000
  N   N33       1.0  0.1276701784638021  0.1565567295246737  0.6754300772795147  1.0000
  N   N34       1.0  0.37233056875951576  0.6565567166835181  0.8245681376838832  1.0000
  N   N35       1.0  0.8723267132292563  0.8434438750217977  0.32456945489030886  1.0000
  N   N36       1.0  0.6276743731965267  0.343440465926335  0.17543105485612637  1.0000
  N   N37       1.0  0.07519092809754817  0.2949842532772493  0.645537089905673  1.0000
  N   N38       1.0  0.4248106939620441  0.7949826997271501  0.8544601978723847  1.0000
  N   N39       1.0  0.9248032893655916  0.7050174919041793  0.3544647425470018  1.0000
  N   N40       1.0  0.5751942404721005  0.20501562353461378  0.145537205242789  1.0000
