data_image0
_chemical_formula_structural       U2H76C66N24O28
_chemical_formula_sum              "U2 H76 C66 N24 O28"
_cell_length_a       11.93456916930777
_cell_length_b       11.80855025683295
_cell_length_c       17.4443118852106
_cell_angle_alpha    95.96472196807383
_cell_angle_beta     104.31679207858367
_cell_angle_gamma    116.11174688487073

_space_group_name_H-M_alt    "P 1"
_space_group_IT_number       1

loop_
  _space_group_symop_operation_xyz
  'x, y, z'

loop_
  _atom_site_type_symbol
  _atom_site_label
  _atom_site_symmetry_multiplicity
  _atom_site_fract_x
  _atom_site_fract_y
  _atom_site_fract_z
  _atom_site_occupancy
  U   U1        1.0  0.3638708099492689  0.34764814053904997  0.08527830738839978  1.0000
  U   U2        1.0  0.6361353064327845  0.652355863130829  0.9147261645369011  1.0000
  H   H1        1.0  0.6305216331842871  0.15434247561345418  0.2928427449316614  1.0000
  H   H2        1.0  0.36947246863707056  0.8456549552235517  0.7071593749596942  1.0000
  H   H3        1.0  0.8513650236433035  0.2644020625097454  0.10740426800016672  1.0000
  H   H4        1.0  0.1486377469680207  0.7356020202354542  0.8926014265055284  1.0000
  H   H5        1.0  0.9617323610755264  0.36978044595435483  0.06328471733566939  1.0000
  H   H6        1.0  0.03826175432143949  0.6302189815523535  0.9367141280142944  1.0000
  H   H7        1.0  0.7068924569247556  0.39428248091748236  0.90101804096556  1.0000
  H   H8        1.0  0.29310511470174566  0.6057119262436643  0.09898033881726319  1.0000
  H   H9        1.0  0.8767234867170329  0.444051450215973  0.9428081408351542  1.0000
  H   H10       1.0  0.12327683012528476  0.5559448453613387  0.05719195513879779  1.0000
  H   H11       1.0  0.7709835314079925  0.2686061093633967  0.8137717740387201  1.0000
  H   H12       1.0  0.2290136287649815  0.7313873063627341  0.18622875606099135  1.0000
  H   H13       1.0  0.8429283053738459  0.11510732398712517  0.8684915427060104  1.0000
  H   H14       1.0  0.15707226362298604  0.8848909157313616  0.1315116186627421  1.0000
  H   H15       1.0  0.959185799730065  0.2791609501925834  0.9196945516454489  1.0000
  H   H16       1.0  0.04081821536906458  0.7208391880189993  0.08030641803286898  1.0000
  H   H17       1.0  0.6899684284584636  0.9702257309425235  0.9320916545805246  1.0000
  H   H18       1.0  0.3100385507602539  0.029771330538373796  0.0679146700913478  1.0000
  H   H19       1.0  0.6897240999313254  0.028107337627147896  0.02948945046934882  1.0000
  H   H20       1.0  0.3102814531742624  0.971895708034964  0.9705131372679927  1.0000
  H   H21       1.0  0.5003415318308413  0.0134205755083059  0.9212248805680898  1.0000
  H   H22       1.0  0.49966531725392116  0.9865765146245239  0.07877798595676916  1.0000
  H   H23       1.0  0.6052115598552845  0.18859097136991212  0.0496982088177305  1.0000
  H   H24       1.0  0.3947879476555868  0.811405338007077  0.9503029132486133  1.0000
  H   H25       1.0  0.5431556390257981  0.23956807492723442  0.9652117006652857  1.0000
  H   H26       1.0  0.45683789951909404  0.760428397902004  0.03478853503810344  1.0000
  H   H27       1.0  0.5446215861488284  0.1607647003444654  0.8266248922335747  1.0000
  H   H28       1.0  0.45537337039580444  0.8392277897485839  0.1733752295051261  1.0000
  H   H29       1.0  0.5993057407406681  0.046262641112058085  0.8100117830451123  1.0000
  H   H30       1.0  0.4006902122229476  0.9537317936484438  0.18998864892248682  1.0000
  H   H31       1.0  0.9227606841792663  0.09521990073792351  0.08741567086300253  1.0000
  H   H32       1.0  0.07723389416259632  0.9047785072081285  0.9125860277849681  1.0000
  H   H33       1.0  0.9181360694374164  0.0318769809688177  0.9904068391624248  1.0000
  H   H34       1.0  0.0818631466266525  0.968125227159888  0.009598165244526122  1.0000
  H   H35       1.0  0.8028523881828418  0.43527022385567427  0.13361632908361532  1.0000
  H   H36       1.0  0.1971517807530745  0.5647249635350206  0.866386550323618  1.0000
  H   H37       1.0  0.8632564301237338  0.5356599141105818  0.06752932561666107  1.0000
  H   H38       1.0  0.1367424571570837  0.4643334501395913  0.9324720340874463  1.0000
  H   H39       1.0  0.6580493220149888  0.3203832614516813  0.22060742873707537  1.0000
  H   H40       1.0  0.34194945077933164  0.6796248788559964  0.7793974235056351  1.0000
  H   H41       1.0  0.9466953992770047  0.9219489021882128  0.12954007715781307  1.0000
  H   H42       1.0  0.05330590184321689  0.07806117428884819  0.8704607276976828  1.0000
  H   H43       1.0  0.18044408312339752  0.0737638485297865  0.19750672834521044  1.0000
  H   H44       1.0  0.8195552685368385  0.9262423290617221  0.8024946087681426  1.0000
  H   H45       1.0  0.3180617262012787  0.2935355777581704  0.28737133462310277  1.0000
  H   H46       1.0  0.6819348368651532  0.7064687209678129  0.712627133583453  1.0000
  H   H47       1.0  0.22997019574732036  0.3548157179109381  0.33428761075171554  1.0000
  H   H48       1.0  0.7700324230410659  0.6451883982615172  0.6657140492491249  1.0000
  H   H49       1.0  0.3008239505918128  0.9090159288961177  0.3325070265655653  1.0000
  H   H50       1.0  0.699179780536582  0.0909891887882779  0.6674885752368238  1.0000
  H   H51       1.0  0.3594840607512282  0.0457503286495538  0.28729663036898495  1.0000
  H   H52       1.0  0.6405146842545547  0.9542549004848411  0.71270166984074  1.0000
  H   H53       1.0  0.49390236893430733  0.26642270960662984  0.3943858795792891  1.0000
  H   H54       1.0  0.506094781111436  0.7335776249581586  0.6056129243971212  1.0000
  H   H55       1.0  0.586910764868712  0.3216849996739342  0.5421749064511872  1.0000
  H   H56       1.0  0.4130881576767038  0.678310356470618  0.4578237550693628  1.0000
  H   H57       1.0  0.42653362791617155  0.49129602220634166  0.6215826688107597  1.0000
  H   H58       1.0  0.573475316351967  0.5087020174361783  0.3784177242859385  1.0000
  H   H59       1.0  0.5633575071103251  0.4596595184369292  0.6565678329546784  1.0000
  H   H60       1.0  0.4366500862388989  0.5403375722221851  0.3434322784042862  1.0000
  H   H61       1.0  0.5861454008522813  0.1991270455775053  0.6492630180332597  1.0000
  H   H62       1.0  0.4138538897686673  0.8008693115527098  0.35073234045473356  1.0000
  H   H63       1.0  0.4675729825773303  0.02805737723721789  0.612836773124279  1.0000
  H   H64       1.0  0.5324208826789629  0.9719351887346834  0.3871568820549526  1.0000
  H   H65       1.0  0.5444876194883291  0.3261446548506727  0.7519883410466972  1.0000
  H   H66       1.0  0.45550953257125576  0.6738507623204839  0.2480083381537881  1.0000
  H   H67       1.0  0.41611792181902985  0.2658623296872236  0.8447760644476643  1.0000
  H   H68       1.0  0.5838824519768693  0.7341359530091509  0.15522190970057173  1.0000
  H   H69       1.0  0.22156257877437469  0.2924402674906545  0.8658375294050129  1.0000
  H   H70       1.0  0.7784393466035909  0.7075629193259587  0.1341587882608621  1.0000
  H   H71       1.0  0.1552954411030356  0.3581368170119461  0.7881636267262805  1.0000
  H   H72       1.0  0.8447148005788065  0.6418691000032837  0.21183416926917426  1.0000
  H   H73       1.0  0.2298791739436864  0.9188576277850514  0.8012838616445136  1.0000
  H   H74       1.0  0.7701137579467529  0.0811378965870659  0.19871333715525447  1.0000
  H   H75       1.0  0.2681852722080079  0.06466464337089659  0.871891677193602  1.0000
  H   H76       1.0  0.7318143790124269  0.9353336340238698  0.12810962847836999  1.0000
  C   C1        1.0  0.8443540980524986  0.16897125829866158  0.991241480077754  1.0000
  C   C2        1.0  0.15564989535764062  0.831028884688237  0.008758913242722578  1.0000
  C   C3        1.0  0.8615160917961191  0.287797845768921  0.048997697463619344  1.0000
  C   C4        1.0  0.13848362247743753  0.7122053346935147  0.951007462057781  1.0000
  C   C5        1.0  0.7584316393305172  0.3283802078172826  0.010214106839427502  1.0000
  C   C6        1.0  0.24156848841041514  0.6716190466865298  0.9897867775891596  1.0000
  C   C7        1.0  0.7769067013510591  0.361856343324348  0.9295691686488964  1.0000
  C   C8        1.0  0.22309268413925304  0.6381379932595478  0.07043234616966028  1.0000
  C   C9        1.0  0.7572356844926063  0.24323649130518282  0.8710413103317194  1.0000
  C   C10       1.0  0.24276137333495026  0.7567598642461633  0.12896231365396457  1.0000
  C   C11       1.0  0.8586757581374369  0.2017879053432878  0.9098050917613845  1.0000
  C   C12       1.0  0.14132998406952876  0.7982121813923228  0.09019670752132207  1.0000
  C   C13       1.0  0.7032617737041135  0.056063136219428586  0.9727954025170148  1.0000
  C   C14       1.0  0.29673342688165144  0.9439332994598075  0.027203933717259963  1.0000
  C   C15       1.0  0.6003142185051189  0.09516643758833962  0.9336802025438046  1.0000
  C   C16       1.0  0.3996873035327154  0.904833756348239  0.06632211633817778  1.0000
  C   C17       1.0  0.6191207721995226  0.2129006731575274  0.9921700324638746  1.0000
  C   C18       1.0  0.380879001041471  0.7870995770303394  0.007830880455884388  1.0000
  C   C19       1.0  0.6176351725655991  0.13123472192691568  0.853885104079893  1.0000
  C   C20       1.0  0.3823636340587908  0.8687615773731492  0.14611992586802092  1.0000
  C   C21       1.0  0.9404530702442314  0.122434276591747  0.03135938073897649  1.0000
  C   C22       1.0  0.05955230187335289  0.8775697265518473  0.9686478463522261  1.0000
  C   C23       1.0  0.08681743808489979  0.21003408872345372  0.05409208274144819  1.0000
  C   C24       1.0  0.9131961670289641  0.789981579228403  0.9459093165833107  1.0000
  C   C25       1.0  0.7798567082192562  0.44754473736863076  0.07106068374653769  1.0000
  C   C26       1.0  0.2201466846359779  0.5524573731097604  0.9289426483454617  1.0000
  C   C27       1.0  0.6588256567104976  0.4644745734971849  0.05188076931111852  1.0000
  C   C28       1.0  0.34116591879881497  0.5355160037767988  0.9481232731915269  1.0000
  C   C29       1.0  0.5602616785041475  0.2526541673410562  0.22331815327099483  1.0000
  C   C30       1.0  0.4397351745745652  0.7473303997312186  0.7766793084837004  1.0000
  C   C31       1.0  0.01211603947204758  0.1556777541216618  0.267451276240429  1.0000
  C   C32       1.0  0.987885547632757  0.8443224254889471  0.7325527717150634  1.0000
  C   C33       1.0  0.9738377182149944  0.9526772068259105  0.1964474825779589  1.0000
  C   C34       1.0  0.0261652666350827  0.04733282772583181  0.8035529991662569  1.0000
  C   C35       1.0  0.1250718363056649  0.04362327066172612  0.24024643364622014  1.0000
  C   C36       1.0  0.874930593381336  0.9563838044372234  0.7597560148092554  1.0000
  C   C37       1.0  0.06159247168695719  0.841525255125859  0.2746354709652152  1.0000
  C   C38       1.0  0.9384112675548194  0.15847786111350362  0.7253639817363932  1.0000
  C   C39       1.0  0.2558561579537724  0.2766237617207281  0.32690636939418016  1.0000
  C   C40       1.0  0.7441479120850971  0.7233832810035495  0.6730946032343467  1.0000
  C   C41       1.0  0.30023425042937646  1.354634037650369e-05  0.3254260519094102  1.0000
  C   C42       1.0  0.6997620387935585  0.999988813019762  0.6745687745444968  1.0000
  C   C43       1.0  0.34178263471707027  0.36066035720045153  0.47668888770410683  1.0000
  C   C44       1.0  0.6582076502752868  0.6393401737175495  0.5233077505704031  1.0000
  C   C45       1.0  0.41845185686133146  0.22595829549923246  0.4242307364004318  1.0000
  C   C46       1.0  0.5815475517525001  0.7740498692113391  0.5757684788872054  1.0000
  C   C47       1.0  0.4779806718646142  0.26681957414825774  0.5196305465926229  1.0000
  C   C48       1.0  0.5220174312221246  0.7331827146346297  0.48036741489702445  1.0000
  C   C49       1.0  0.37163452862886  0.037848894532722  0.474869824631888  1.0000
  C   C50       1.0  0.6283640394166239  0.9621474572958774  0.5251288653798409  1.0000
  C   C51       1.0  0.45619675830848655  0.41559179153089343  0.6252511727556679  1.0000
  C   C52       1.0  0.5438119534802794  0.5844092165887745  0.3747488560799893  1.0000
  C   C53       1.0  0.4804952112455183  0.12695584095376233  0.6214380621275237  1.0000
  C   C54       1.0  0.519500835950133  0.8730376554265504  0.3785554250548841  1.0000
  C   C55       1.0  0.3012287063363742  0.3614852812233664  0.7042692395217994  1.0000
  C   C56       1.0  0.698771228217474  0.6385090988647093  0.2957243329103391  1.0000
  C   C57       1.0  0.43740826927829346  0.2643998594756809  0.7203419180778424  1.0000
  C   C58       1.0  0.5625870553418792  0.7355936316030239  0.27965490062829446  1.0000
  C   C59       1.0  0.3554236467126799  0.22783803358857568  0.7795945317906428  1.0000
  C   C60       1.0  0.6445757089752534  0.7721583092156692  0.22040255577085327  1.0000
  C   C61       1.0  0.3307289008674488  0.03762459755542841  0.7024341198427064  1.0000
  C   C62       1.0  0.6692603680307769  0.9623690760768113  0.29755950706913836  1.0000
  C   C63       1.0  0.1776808781800838  0.27948672849807116  0.7999424473932917  1.0000
  C   C64       1.0  0.8223206140553643  0.7205154716588497  0.20005544423163704  1.0000
  C   C65       1.0  0.22105639362828094  0.007860214043411404  0.8079518383619015  1.0000
  C   C66       1.0  0.7789472019039394  0.9921409341781813  0.19204743073408537  1.0000
  N   N1        1.0  0.9177127779235545  0.03325715625883419  0.21640895527686144  1.0000
  N   N2        1.0  0.08229108132493941  0.966752850167268  0.783592229448466  1.0000
  N   N3        1.0  0.13265407782233038  0.1571375264881851  0.2874656400346253  1.0000
  N   N4        1.0  0.8673492045740899  0.8428695252604471  0.7125369350441344  1.0000
  N   N5        1.0  0.16461563484647723  0.9649247090088054  0.28573828526655376  1.0000
  N   N6        1.0  0.8353825333072392  0.035077565448119706  0.7142614052966036  1.0000
  N   N7        1.0  0.9460915141259248  0.8403846529934994  0.23079788076361743  1.0000
  N   N8        1.0  0.05391136429303599  0.1596204880412131  0.7691975944154874  1.0000
  N   N9        1.0  0.3287204494425352  0.2797449314673628  0.40735222886218725  1.0000
  N   N10       1.0  0.6712801663806474  0.7202622142088373  0.592647084557555  1.0000
  N   N11       1.0  0.4239805608253205  0.34801992845803637  0.542849858042743  1.0000
  N   N12       1.0  0.576022902559096  0.6519861658091202  0.45714807768215576  1.0000
  N   N13       1.0  0.4303660298353762  0.1427411576011863  0.5419430926702872  1.0000
  N   N14       1.0  0.569623656615917  0.857256423414675  0.45805435959982077  1.0000
  N   N15       1.0  0.359435476128354  0.08562873251869971  0.4058869397251285  1.0000
  N   N16       1.0  0.6405634579788214  0.9143735376891942  0.5941105720299618  1.0000
  N   N17       1.0  0.38661043611253376  0.3353414239461685  0.6732551724489042  1.0000
  N   N18       1.0  0.6133943449400547  0.6646587100163756  0.32674361842135363  1.0000
  N   N19       1.0  0.27196139176890444  0.2862031852525817  0.7600148700101952  1.0000
  N   N20       1.0  0.7280434326616643  0.7137969391593231  0.23998507357573118  1.0000
  N   N21       1.0  0.2909950674001465  0.0862127201291258  0.7593131693905731  1.0000
  N   N22       1.0  0.7090062811257452  0.9137875120100245  0.24068453862872718  1.0000
  N   N23       1.0  0.41116414907065746  0.1390245777210026  0.6765036919077758  1.0000
  N   N24       1.0  0.5888328159013908  0.860968880983023  0.3234916509714125  1.0000
  O   O1        1.0  0.3919639632372807  0.4603185664694465  0.17570676265622603  1.0000
  O   O2        1.0  0.6080322988344377  0.5396797995512868  0.8242946128804645  1.0000
  O   O3        1.0  0.3328540082517221  0.23428423905240683  0.9938896351630432  1.0000
  O   O4        1.0  0.6671394299616011  0.7657102562084148  0.006111569650393337  1.0000
  O   O5        1.0  0.16574927085715532  0.17767490303592842  0.09933136116817559  1.0000
  O   O6        1.0  0.8342625250579233  0.8223299185397864  0.900675754684755  1.0000
  O   O7        1.0  0.13779589416132143  0.31234125721552886  0.02853097021801428  1.0000
  O   O8        1.0  0.8621982794058738  0.6876403249484896  0.9714796055348172  1.0000
  O   O9        1.0  0.6258772337903409  0.500602779729462  0.9872858867687097  1.0000
  O   O10       1.0  0.3741018086943199  0.49939409005524027  0.01271219633894558  1.0000
  O   O11       1.0  0.5891195213305308  0.43726039898190544  0.09879542400741302  1.0000
  O   O12       1.0  0.4108731936699925  0.5627351731434375  0.9011960112139972  1.0000
  O   O13       1.0  0.4576333920325411  0.2516449558339459  0.18327123608780474  1.0000
  O   O14       1.0  0.5423654912205863  0.7483582432034838  0.8167343731681598  1.0000
  O   O15       1.0  0.5528718671038533  0.1736011373868109  0.2709574940308315  1.0000
  O   O16       1.0  0.4471260570087309  0.8263971914839203  0.7290429820367449  1.0000
  O   O17       1.0  0.9909065676257498  0.24504719955587007  0.2871777367056154  1.0000
  O   O18       1.0  0.009088369301743227  0.7549580460483726  0.7128320339022592  1.0000
  O   O19       1.0  0.07033016710488482  0.7495173509450553  0.29621841948468125  1.0000
  O   O20       1.0  0.9296776893232918  0.2504896800846907  0.7037705063878619  1.0000
  O   O21       1.0  0.2938393450722856  0.43354574017639175  0.47850304018846385  1.0000
  O   O22       1.0  0.706163850568174  0.5664613306735262  0.5214972294589514  1.0000
  O   O23       1.0  0.3400231868254764  0.924406476830157  0.4765147310663095  1.0000
  O   O24       1.0  0.6599742208370004  0.07559979999053472  0.5234800128642974  1.0000
  O   O25       1.0  0.2625039542425469  0.43914113361541507  0.6875345636852828  1.0000
  O   O26       1.0  0.7375104940328326  0.5608626795291443  0.31246598725228836  1.0000
  O   O27       1.0  0.3001378947233846  0.9210349585863399  0.6805316751569775  1.0000
  O   O28       1.0  0.6998526464511768  0.07895768168556569  0.3194637789604754  1.0000
