data_image0
_chemical_formula_structural       Cu2P2H44C50I2N4
_chemical_formula_sum              "Cu2 P2 H44 C50 I2 N4"
_cell_length_a       9.22516870615315
_cell_length_b       11.333255844011862
_cell_length_c       12.4204
_cell_angle_alpha    74.42784945243974
_cell_angle_beta     76.61118884330965
_cell_angle_gamma    71.97977719763664

_space_group_name_H-M_alt    "P 1"
_space_group_IT_number       1

loop_
  _space_group_symop_operation_xyz
  'x, y, z'

loop_
  _atom_site_type_symbol
  _atom_site_label
  _atom_site_symmetry_multiplicity
  _atom_site_fract_x
  _atom_site_fract_y
  _atom_site_fract_z
  _atom_site_occupancy
  Cu  Cu1       1.0  0.8620609263762872  0.1076995383071306  0.022891425028163298  1.0000
  Cu  Cu2       1.0  0.13793522313400078  0.8922982812838428  0.9771080000314142  1.0000
  P   P1        1.0  0.7583333288891865  0.1677455397376093  0.1848188212631925  1.0000
  P   P2        1.0  0.24167254438847863  0.8322532294675042  0.8151803090660934  1.0000
  H   H1        1.0  0.8919115895905776  0.3101715176055819  0.8179324181498444  1.0000
  H   H2        1.0  0.1080890170228628  0.6898263019853915  0.1820686557221762  1.0000
  H   H3        1.0  0.7570556068625791  0.418912782626542  0.6496509050940062  1.0000
  H   H4        1.0  0.24293912365719444  0.5810859865785645  0.3503533621652366  1.0000
  H   H5        1.0  0.4398847938958568  0.1842146978032844  0.7922075578511354  1.0000
  H   H6        1.0  0.5601113556144313  0.815783121787682  0.2077975030977797  1.0000
  H   H7        1.0  0.5833170768830698  0.0896179354282438  0.9537643252089721  1.0000
  H   H8        1.0  0.41668383444509527  0.9103789345485822  0.04623773399490719  1.0000
  H   H9        1.0  0.39149835592393595  0.33568005268948303  0.4893484172914739  1.0000
  H   H10       1.0  0.6085008316989972  0.6643187165156236  0.5106542782720139  1.0000
  H   H11       1.0  0.3156274747276058  0.2898212865413186  0.6355654915562496  1.0000
  H   H12       1.0  0.6843742461616246  0.7101765330496477  0.36443539067359854  1.0000
  H   H13       1.0  0.48896237158925976  0.1928704307081262  0.5770162534196785  1.0000
  H   H14       1.0  0.5110417779831735  0.8071302377252749  0.4229851235233113  1.0000
  H   H15       1.0  0.7901789662140217  0.24862892428721756  0.3860193039358819  1.0000
  H   H16       1.0  0.20981880241840395  0.7513707945320292  0.6139753517944869  1.0000
  H   H17       1.0  0.8440260140234059  0.44272720608102395  0.40494006388952647  1.0000
  H   H18       1.0  0.1559717546090127  0.55727251273823  0.5950586174760842  1.0000
  H   H19       1.0  0.8788081130646858  0.6145655827708937  0.23328966875723722  1.0000
  H   H20       1.0  0.12118823657722541  0.38543508566250756  0.766708218918687  1.0000
  H   H21       1.0  0.8586324955166731  0.5908290276760582  0.045841212862960425  1.0000
  H   H22       1.0  0.14136800651367312  0.4091725903714761  0.9541541177853573  1.0000
  H   H23       1.0  0.8111472563560654  0.3934479297931688  0.025754459375427523  1.0000
  H   H24       1.0  0.1888560836552954  0.606551789026078  0.974239238144051  1.0000
  H   H25       1.0  0.5767532987232542  0.08842901852239042  0.4120755297248024  1.0000
  H   H26       1.0  0.4232477081534327  0.9115744987534314  0.5879208591258233  1.0000
  H   H27       1.0  0.6566638988794792  0.9285241615749911  0.5845568174681119  1.0000
  H   H28       1.0  0.3433323461793377  0.07148030531497081  0.4154409628734541  1.0000
  H   H29       1.0  0.9286370029290864  0.8028997067224141  0.5833543922549039  1.0000
  H   H30       1.0  0.0713590419981074  0.1971019113251273  0.41664653572441074  1.0000
  H   H31       1.0  0.12381500918863962  0.8356234100576573  0.4093591703223253  1.0000
  H   H32       1.0  0.8761841784342935  0.1643753591474493  0.5906435252411554  1.0000
  H   H33       1.0  0.043190923719180374  0.9905178216108227  0.23551214990466465  1.0000
  H   H34       1.0  0.9568130257216294  0.0094799979801437  0.7644891541678833  1.0000
  H   H35       1.0  0.5570398158681016  0.0255579150192915  0.1749005730045212  1.0000
  H   H36       1.0  0.4429619050211286  0.9744399045716748  0.8250970887171293  1.0000
  H   H37       1.0  0.2745592708348639  0.07672027615083721  0.17497270997425568  1.0000
  H   H38       1.0  0.7254390026439028  0.923281341896697  0.8250286398477584  1.0000
  H   H39       1.0  0.10658615438657648  0.290806986020776  0.19547475319419758  1.0000
  H   H40       1.0  0.8934171856247843  0.7091927327984777  0.8045294109769187  1.0000
  H   H41       1.0  0.21961352928850178  0.45067642606417024  0.2238147091909042  1.0000
  H   H42       1.0  0.7803925441207867  0.5493251919833639  0.7761836888817796  1.0000
  H   H43       1.0  0.5002144539701164  0.40014555833709414  0.22675325598174817  1.0000
  H   H44       1.0  0.4997928382980632  0.5998522612538792  0.7732418372749237  1.0000
  C   C1        1.0  0.7890954645232  0.2875365149155371  0.8090395669058663  1.0000
  C   C2        1.0  0.2109043325291751  0.7124603550612889  0.19096187881313403  1.0000
  C   C3        1.0  0.7151708589186043  0.3465702276705827  0.7160207319007057  1.0000
  C   C4        1.0  0.2848240717327998  0.6534313903769516  0.2839836082289792  1.0000
  C   C5        1.0  0.5885697657528651  0.3091098489947584  0.7047393669795382  1.0000
  C   C6        1.0  0.4114215173564517  0.690892718666916  0.2952669781259729  1.0000
  C   C7        1.0  0.5400992080048752  0.2153743866465661  0.7928077537913154  1.0000
  C   C8        1.0  0.4598946083707461  0.7846272314009752  0.2071975831076003  1.0000
  C   C9        1.0  0.6188560644621433  0.16261667375636082  0.8843872823040471  1.0000
  C   C10       1.0  0.3811405898944855  0.8373830450628859  0.11561642146602939  1.0000
  C   C11       1.0  0.5131831903063571  0.3644419658240778  0.603610877949812  1.0000
  C   C12       1.0  0.48681366418190203  0.6355606018376037  0.39639128843661803  1.0000
  C   C13       1.0  0.4221004019586658  0.29225039951670345  0.5737555882257865  1.0000
  C   C14       1.0  0.5779007095011225  0.7077493193025504  0.42624654384854205  1.0000
  C   C15       1.0  0.7964762008612282  0.3085286851398195  0.2048324825475376  1.0000
  C   C16       1.0  0.20352572015962517  0.6914719832935745  0.7951636417904595  1.0000
  C   C17       1.0  0.8062477395898354  0.3231119095193762  0.3113433812404693  1.0000
  C   C18       1.0  0.1937519528794454  0.6768887589140178  0.6886531263818868  1.0000
  C   C19       1.0  0.8372441147824006  0.43219978370218837  0.32163084557610927  1.0000
  C   C20       1.0  0.1627561871163223  0.5677989855029183  0.6783676327099571  1.0000
  C   C21       1.0  0.856316065031706  0.5281146105064067  0.22613834946122308  1.0000
  C   C22       1.0  0.14368281787650267  0.4718851083128471  0.7738585300081128  1.0000
  C   C23       1.0  0.844926733939772  0.5150137338026042  0.11988154278072473  1.0000
  C   C24       1.0  0.1550732632442333  0.4849859850166496  0.8801135347923363  1.0000
  C   C25       1.0  0.8167958664962284  0.4051110906858995  0.10899970888883816  1.0000
  C   C26       1.0  0.1832074735151394  0.5948886281333472  0.8909955988847429  1.0000
  C   C27       1.0  0.8051524030433299  0.0501082894338651  0.31318345821648563  1.0000
  C   C28       1.0  0.1948506322533206  0.9498923789995289  0.6868148898604858  1.0000
  C   C29       1.0  0.6962869963191167  0.0319003878740816  0.411414619873419  1.0000
  C   C30       1.0  0.30371320099651206  0.9681021797875929  0.588582945951238  1.0000
  C   C31       1.0  0.740856617082578  0.9423856792065807  0.5078320813840236  1.0000
  C   C32       1.0  0.259142465957261  0.057616888455100906  0.49216567608281275  1.0000
  C   C33       1.0  0.8945226262473087  0.8715473130516358  0.5073486432802453  1.0000
  C   C34       1.0  0.10547422824095068  0.1284552546100457  0.4926519128520894  1.0000
  C   C35       1.0  0.0035072997436174144  0.889921397086276  0.4098936746814772  1.0000
  C   C36       1.0  0.9964920880109387  0.11008022096126521  0.5901082886254087  1.0000
  C   C37       1.0  0.9591367616391937  0.9776382050021227  0.31272122270114266  1.0000
  C   C38       1.0  0.04086657837217441  0.0223615138171311  0.6872789158347317  1.0000
  C   C39       1.0  0.5478119659612517  0.20923228237574426  0.20053224218862198  1.0000
  C   C40       1.0  0.4521930977553481  0.790765537215222  0.7994640394794529  1.0000
  C   C41       1.0  0.4820676580170014  0.11835895705170432  0.18709920047027137  1.0000
  C   C42       1.0  0.5179348724332938  0.8816398121534023  0.8128988945314432  1.0000
  C   C43       1.0  0.32407298022403097  0.1470468002832135  0.1868674273662023  1.0000
  C   C44       1.0  0.6759281312357573  0.8529529185360404  0.8131330944540238  1.0000
  C   C45       1.0  0.22948217182721456  0.26737335783726485  0.19863483799952059  1.0000
  C   C46       1.0  0.7705203586230809  0.7326254113678488  0.8013680877644872  1.0000
  C   C47       1.0  0.2934989323138311  0.35720970451817646  0.2136552082640364  1.0000
  C   C48       1.0  0.7065066362491167  0.6427900143010774  0.7863453521145374  1.0000
  C   C49       1.0  0.4518595536101274  0.3288086447575651  0.21509352599129267  1.0000
  C   C50       1.0  0.5481455101064725  0.6711891748334011  0.7849035608038336  1.0000
  I   I1        1.0  0.855143645363853  0.8658885623791265  0.05716396337060552  1.0000
  I   I2        1.0  0.1448597992306091  0.1341073579835594  0.942839503007832  1.0000
  N   N1        1.0  0.7443595981178106  0.1950383997944343  0.8923719995169321  1.0000
  N   N2        1.0  0.25564070378091225  0.8049603694106723  0.10762808902323683  1.0000
  N   N3        1.0  0.5358188755559397  0.4740863138941336  0.5467931561709988  1.0000
  N   N4        1.0  0.4641765599418049  0.5259172033816881  0.45321063190689154  1.0000
