data_image0
_chemical_formula_structural       Ni2H24C16N12O12
_chemical_formula_sum              "Ni2 H24 C16 N12 O12"
_cell_length_a       7.65534366479789
_cell_length_b       7.741591711625265
_cell_length_c       12.427420508000008
_cell_angle_alpha    90.00000222960578
_cell_angle_beta     89.99999633600181
_cell_angle_gamma    117.67655561524721

_space_group_name_H-M_alt    "P 1"
_space_group_IT_number       1

loop_
  _space_group_symop_operation_xyz
  'x, y, z'

loop_
  _atom_site_type_symbol
  _atom_site_label
  _atom_site_symmetry_multiplicity
  _atom_site_fract_x
  _atom_site_fract_y
  _atom_site_fract_z
  _atom_site_occupancy
  Ni  Ni1       1.0  0.4999987687616069  0.4999989166447706  0.4999999772680185  1.0000
  Ni  Ni2       1.0  0.49999965981999844  7.845060636993576e-07  0.999999950472443  1.0000
  H   H1        1.0  0.38185374911229525  0.10065668883913761  0.7540221180874197  1.0000
  H   H2        1.0  0.6181460043113985  0.39934299110338856  0.2540221382355767  1.0000
  H   H3        1.0  0.61814589560138  0.8993455199045359  0.2459778364486311  1.0000
  H   H4        1.0  0.3818561268299803  0.6006562426246235  0.7459786209726149  1.0000
  H   H5        1.0  0.8651741717892917  0.02057900083329401  0.854800866390626  1.0000
  H   H6        1.0  0.13482756972811671  0.47942211900706877  0.354801709970495  1.0000
  H   H7        1.0  0.13482676999822735  0.9794231885616327  0.1451982834731922  1.0000
  H   H8        1.0  0.8651732643394678  0.5205771340696899  0.6451990492377178  1.0000
  H   H9        1.0  0.8544371070424716  0.9933363188023279  0.5596028531235718  1.0000
  H   H10       1.0  0.1455649364287339  0.5066654423178605  0.0596020749663921  1.0000
  H   H11       1.0  0.14556313234817958  0.006664412107888002  0.4403971014124579  1.0000
  H   H12       1.0  0.854438599506416  0.4933367083795659  0.9403962702251647  1.0000
  H   H13       1.0  0.9940734387444364  0.0014090911993776027  0.6747860331191476  1.0000
  H   H14       1.0  0.005926918301099701  0.49858911031068237  0.17478688164647593  1.0000
  H   H15       1.0  0.005923396382009224  0.9985872836054457  0.3252131167446636  1.0000
  H   H16       1.0  0.9940752128403642  0.5014101234173295  0.8252122682172781  1.0000
  H   H17       1.0  0.7354714029664038  0.3760813343983713  0.4436004959955824  1.0000
  H   H18       1.0  0.2645296261296933  0.1239183276285942  0.9436004804984606  1.0000
  H   H19       1.0  0.2645281340273797  0.6239179380271409  0.5564002632126517  1.0000
  H   H20       1.0  0.7354719103347093  0.8760823839328825  0.0564002787097593  1.0000
  H   H21       1.0  0.6142362592636417  0.22390876823131123  0.5396461718664511  1.0000
  H   H22       1.0  0.3857635183608181  0.2760909100905664  0.0396461969212396  1.0000
  H   H23       1.0  0.3857626830531656  0.7760919820276583  0.4603545873418184  1.0000
  H   H24       1.0  0.6142380181035848  0.7239098014709031  0.9603545622869802  1.0000
  C   C1        1.0  0.09157200247074121  0.2805969513748466  0.5996586355027632  1.0000
  C   C2        1.0  0.9084264713051552  0.21940274674946642  0.09965864103147483  1.0000
  C   C3        1.0  0.9084261297294133  0.7193994040812371  0.4003421237054568  1.0000
  C   C4        1.0  0.09157306568867805  0.7805965256760389  0.9003413135045478  1.0000
  C   C5        1.0  0.5171913627427783  0.08820966148566362  0.753918312871896  1.0000
  C   C6        1.0  0.48280909308940756  0.4117914769407987  0.2539191426915793  1.0000
  C   C7        1.0  0.4828095790446908  0.9117925279092702  0.2460816416641336  1.0000
  C   C8        1.0  0.5171890391107468  0.588204878515285  0.7460816165166406  1.0000
  C   C9        1.0  0.7612287554000544  0.0503101555564811  0.8088130467472538  1.0000
  C   C10       1.0  0.23877299130893445  0.44969096393622005  0.30881308130231133  1.0000
  C   C11       1.0  0.23877218638741488  0.9496920338384529  0.19118690778877584  1.0000
  C   C12       1.0  0.7612278427587357  0.5503082891405313  0.6911860685614712  1.0000
  C   C13       1.0  0.9266043679677265  0.07927460011624281  0.631815734266894  1.0000
  C   C14       1.0  0.0733928051041772  0.4207251175999218  0.13181577380765222  1.0000
  C   C15       1.0  0.07339387195231242  0.920724691658009  0.3681842202691499  1.0000
  C   C16       1.0  0.9266047324190863  0.5792727156896189  0.868183376056166  1.0000
  N   N1        1.0  0.5970919489806404  0.05194775490984681  0.8439048049498085  1.0000
  N   N2        1.0  0.4029097937668666  0.4480533648481498  0.3439048337839382  1.0000
  N   N3        1.0  0.40290829041001086  0.9480529760003764  0.1560951495862142  1.0000
  N   N4        1.0  0.597092337374562  0.5519458688798622  0.6560951207520347  1.0000
  N   N5        1.0  0.7771549632768071  0.08207246003032509  0.7021473072599349  1.0000
  N   N6        1.0  0.22284479600299534  0.4179272195200383  0.20214734155842962  1.0000
  N   N7        1.0  0.22284397904004297  0.9179282902286446  0.2978526472761089  1.0000
  N   N8        1.0  0.7771547409908804  0.5820720529054668  0.7978518083053744  1.0000
  N   N9        1.0  0.6228916857845943  0.1073232423503754  0.6656996822236608  1.0000
  N   N10       1.0  0.37710807760976184  0.3926764369244466  0.16569971054242671  1.0000
  N   N11       1.0  0.3771065541354445  0.8926760494238762  0.3343002723123831  1.0000
  N   N12       1.0  0.6228934588546834  0.6073242746370228  0.8343002439935746  1.0000
  O   O1        1.0  0.23121282090901465  0.2698235146469444  0.5496007790614783  1.0000
  O   O2        1.0  0.7687876579884473  0.23017762223490482  0.0496015943680277  1.0000
  O   O3        1.0  0.7687860136880005  0.7301742992938501  0.4503991754745371  1.0000
  O   O4        1.0  0.23121387847594818  0.7698230893265643  0.9503991648401923  1.0000
  O   O5        1.0  0.6021999125682669  0.2940403125615063  0.4752546928932944  1.0000
  O   O6        1.0  0.39780051827743523  0.2059608275382203  0.975254674870996  1.0000
  O   O7        1.0  0.3978003268223845  0.7059604183487097  0.5247452616427282  1.0000
  O   O8        1.0  0.6021997211132161  0.7940399033720028  0.0247452796650265  1.0000
  O   O9        1.0  0.0786565254683467  0.4330519874603382  0.6236241902752084  1.0000
  O   O10       1.0  0.9213432426758884  0.06694769149640217  0.1236241914804381  1.0000
  O   O11       1.0  0.9213442008794387  0.566944329298245  0.37637576426075015  1.0000
  O   O12       1.0  0.07865688899487815  0.9330501030956455  0.8763765677277677  1.0000
