data_image0
_chemical_formula_structural       Cd3H24C30S12N30
_chemical_formula_sum              "Cd3 H24 C30 S12 N30"
_cell_length_a       7.602336309552173
_cell_length_b       7.602356911284468
_cell_length_c       24.97627824502153
_cell_angle_alpha    89.99984915445319
_cell_angle_beta     90.0000914965774
_cell_angle_gamma    119.9991528477699

_space_group_name_H-M_alt    "P 1"
_space_group_IT_number       1

loop_
  _space_group_symop_operation_xyz
  'x, y, z'

loop_
  _atom_site_type_symbol
  _atom_site_label
  _atom_site_symmetry_multiplicity
  _atom_site_fract_x
  _atom_site_fract_y
  _atom_site_fract_z
  _atom_site_occupancy
  Cd  Cd1       1.0  0.9339980451138249  0.9339978557040852  0.9999999229288505  1.0000
  Cd  Cd2       1.0  0.0660099466608699  9.973349570194295e-06  0.33333350649972  1.0000
  Cd  Cd3       1.0  5.351768940908725e-06  0.0660051847173335  0.6666665533531174  1.0000
  H   H1        1.0  0.003587401841983319  0.1469792443517832  0.8724461796681027  1.0000
  H   H2        1.0  0.8530165663333735  0.8566092698995005  0.20578192444851598  1.0000
  H   H3        1.0  0.14338783917906986  0.996407276229661  0.539110778832395  1.0000
  H   H4        1.0  0.1469755811282312  0.0035864832863196894  0.12755386684619913  1.0000
  H   H5        1.0  0.8566039617511481  0.85301726208219  0.7942182765035426  1.0000
  H   H6        1.0  0.9964079268472547  0.14338944751246158  0.4608891116314666  1.0000
  H   H7        1.0  0.4677568816528037  0.18391259694890041  0.9731346194296294  1.0000
  H   H8        1.0  0.8160850595195581  0.2838563660301571  0.3064676845223602  1.0000
  H   H9        1.0  0.7161653168045773  0.5322552309544333  0.6398014499838993  1.0000
  H   H10       1.0  0.1839174260163149  0.4677589935464042  0.026864547276908  1.0000
  H   H11       1.0  0.28385582539167603  0.8160840297081934  0.6935330129890005  1.0000
  H   H12       1.0  0.532256902015199  0.7161662304791393  0.36019842334487606  1.0000
  H   H13       1.0  0.7603325412120513  0.3454467569279841  0.9053334918066723  1.0000
  H   H14       1.0  0.6545226532280567  0.4148701386637087  0.23866685756447484  1.0000
  H   H15       1.0  0.5851203750092253  0.23967654099389082  0.5720016026609116  1.0000
  H   H16       1.0  0.3454493356184755  0.7603331013050292  0.09466600364417128  1.0000
  H   H17       1.0  0.41487200408759867  0.6545256035404492  0.7613330440050916  1.0000
  H   H18       1.0  0.23967792052200562  0.5851202435036384  0.4279991382545206  1.0000
  H   H19       1.0  0.7337589488852884  0.533849426349114  0.8698097016525921  1.0000
  H   H20       1.0  0.46613751254118807  0.19990360039263064  0.20314118874757267  1.0000
  H   H21       1.0  0.8000905858301977  0.26623718669683427  0.5364799394740274  1.0000
  H   H22       1.0  0.5338512976542305  0.7337585092658044  0.130189768269986  1.0000
  H   H23       1.0  0.19990359328534174  0.4661393189410675  0.7968587764505912  1.0000
  H   H24       1.0  0.26623683758418104  0.8000882893851442  0.4635207633404406  1.0000
  C   C1        1.0  0.15002325569405178  0.17697902309055283  0.8875477330579429  1.0000
  C   C2        1.0  0.8230215837661917  0.9730417976032227  0.2208825985811202  1.0000
  C   C3        1.0  0.026960148232774477  0.8499879427107332  0.5542127391016791  1.0000
  C   C4        1.0  0.17697975704644625  0.1500279344751618  0.1124522856225099  1.0000
  C   C5        1.0  0.9730474443987945  0.8230148517526102  0.7791171883612406  1.0000
  C   C6        1.0  0.849984379895595  0.02695801795027095  0.445786792446782  1.0000
  C   C7        1.0  0.3820665013709076  0.1961659138173033  0.9399042620575813  1.0000
  C   C8        1.0  0.8038337404669351  0.18590399533545823  0.2732361887105982  1.0000
  C   C9        1.0  0.8141032695085715  0.6179373246086327  0.6065719089804915  1.0000
  C   C10       1.0  0.19616875418334004  0.38206827610254385  0.0600949162332753  1.0000
  C   C11       1.0  0.1859032133993921  0.803829630674521  0.7267641258066391  1.0000
  C   C12       1.0  0.6179390152950508  0.8141038711153  0.3934283357623087  1.0000
  C   C13       1.0  0.6732293471386726  0.36951213230231866  0.8741294520252226  1.0000
  C   C14       1.0  0.6304722126270621  0.30370913879443856  0.20746128652150728  1.0000
  C   C15       1.0  0.6962871628929008  0.3267751150614231  0.5407975863062262  1.0000
  C   C16       1.0  0.3695114590492424  0.6732282880445412  0.1258700533696668  1.0000
  C   C17       1.0  0.3037099839612907  0.6304728680515195  0.7925386363782962  1.0000
  C   C18       1.0  0.32677629880009823  0.6962895152128397  0.4592023225720325  1.0000
  C   C19       1.0  0.6958486985879875  0.28234558940152243  0.8225921906555841  1.0000
  C   C20       1.0  0.7176405529129611  0.4135012595051323  0.1559251625487903  1.0000
  C   C21       1.0  0.5865014549783112  0.3041507099568292  0.4892606665374615  1.0000
  C   C22       1.0  0.282350961882152  0.6958538018148276  0.1774073249206012  1.0000
  C   C23       1.0  0.4135019651038476  0.7176437507376647  0.8440747292794981  1.0000
  C   C24       1.0  0.3041546693137819  0.5865037843339991  0.5107404643688724  1.0000
  C   C25       1.0  0.7108945371181009  0.17282551108160493  0.7328514863438897  1.0000
  C   C26       1.0  0.8271686993366462  0.5380665204912775  0.0661855880023126  1.0000
  C   C27       1.0  0.4619312576892727  0.2891105473731771  0.3995202899373567  1.0000
  C   C28       1.0  0.17282676527275953  0.7108972116003115  0.2671480441355385  1.0000
  C   C29       1.0  0.5380671730955554  0.8271714213002068  0.9338142668979968  1.0000
  C   C30       1.0  0.28911001915815876  0.461935427193005  0.6004800622308011  1.0000
  S   S1        1.0  0.5609697682877909  0.2576967715597717  0.7643224769714364  1.0000
  S   S2        1.0  0.7422846122385283  0.30327212802190917  0.0976547220853448  1.0000
  S   S3        1.0  0.6967258490266135  0.43902657700492403  0.4309909488052241  1.0000
  S   S4        1.0  0.2577021005374719  0.5609751161811829  0.23567746415000101  1.0000
  S   S5        1.0  0.30327350799284153  0.7422886390371131  0.9023447828638851  1.0000
  S   S6        1.0  0.4390264767671683  0.6967267138013966  0.5690105438161197  1.0000
  S   S7        1.0  0.6780642739725026  0.09189271025858402  0.6674530563357806  1.0000
  S   S8        1.0  0.9081076979494541  0.5861705471269261  0.0007863331115273999  1.0000
  S   S9        1.0  0.41382959414765  0.3219381783383497  0.3341214097645206  1.0000
  S   S10       1.0  0.09189482429628278  0.6780680137960361  0.3325476932292517  1.0000
  S   S11       1.0  0.5861712084047925  0.9081071577251123  0.9992135014336087  1.0000
  S   S12       1.0  0.3219350025205401  0.4138311436425893  0.6658793451934243  1.0000
  N   N1        1.0  0.18241804142189016  0.13021258575915337  0.9380973249445219  1.0000
  N   N2        1.0  0.8697890161434998  0.05221315425264072  0.271431346435989  1.0000
  N   N3        1.0  0.947796599482807  0.8175892586606821  0.6047629447830118  1.0000
  N   N4        1.0  0.13021498650086738  0.18241833743098113  0.061902696005240905  1.0000
  N   N5        1.0  0.05221156040529723  0.8697872545568401  0.7285689787653666  1.0000
  N   N6        1.0  0.8175912195173752  0.9477999068616683  0.3952372473736503  1.0000
  N   N7        1.0  0.31815875176217656  0.26802364758468394  0.8584341126669487  1.0000
  N   N8        1.0  0.7319622155317589  0.050132216844730196  0.1917685236212563  1.0000
  N   N9        1.0  0.9498630221090708  0.6818375229079903  0.5250998101779557  1.0000
  N   N10       1.0  0.26802188047581427  0.31815742354347526  0.1415654647498243  1.0000
  N   N11       1.0  0.050128111771158404  0.731965789849603  0.8082314232678129  1.0000
  N   N12       1.0  0.6818394780342131  0.949865046371606  0.474899602308227  1.0000
  N   N13       1.0  0.46332696410139124  0.27766643116592604  0.892166151883778  1.0000
  N   N14       1.0  0.7223256688805436  0.1856593511109991  0.2255008740985716  1.0000
  N   N15       1.0  0.8143442172448947  0.5366754459650381  0.5588334442728922  1.0000
  N   N16       1.0  0.2776666261086761  0.4633257993990867  0.1078338014919424  1.0000
  N   N17       1.0  0.18565759027985257  0.7223252845062689  0.774500254073196  1.0000
  N   N18       1.0  0.5366759207962416  0.8143452682357688  0.44116641287055103  1.0000
  N   N19       1.0  0.8368713279305597  0.23310713948712464  0.8164031727440672  1.0000
  N   N20       1.0  0.7668887493599856  0.6037651548333827  0.1497368258717557  1.0000
  N   N21       1.0  0.3962430671216169  0.16312867417211407  0.48307160400779026  1.0000
  N   N22       1.0  0.23311281762057234  0.8368750521279223  0.1835971291136502  1.0000
  N   N23       1.0  0.6037653260430248  0.7668879423835548  0.850263028175071  1.0000
  N   N24       1.0  0.16313265022299112  0.396242973846256  0.5169279776392771  1.0000
  N   N25       1.0  0.8472589292327585  0.1712995986951213  0.7659545310697666  1.0000
  N   N26       1.0  0.8287022055494192  0.6759587490495562  0.09928854306293292  1.0000
  N   N27       1.0  0.324044958331129  0.15274018674836035  0.4326233215358286  1.0000
  N   N28       1.0  0.17130147298266252  0.847260461356946  0.2340453785194683  1.0000
  N   N29       1.0  0.6759596573074376  0.8287003746685002  0.9007116902248241  1.0000
  N   N30       1.0  0.15274180583357125  0.3240472139139712  0.5673766735176287  1.0000
