data_image0
_chemical_formula_structural       Cd4H60C80N28O16
_chemical_formula_sum              "Cd4 H60 C80 N28 O16"
_cell_length_a       14.232360135504459
_cell_length_b       15.142481280384008
_cell_length_c       17.368663380057352
_cell_angle_alpha    89.99981812222909
_cell_angle_beta     89.99979197654247
_cell_angle_gamma    97.77727929003423

_space_group_name_H-M_alt    "P 1"
_space_group_IT_number       1

loop_
  _space_group_symop_operation_xyz
  'x, y, z'

loop_
  _atom_site_type_symbol
  _atom_site_label
  _atom_site_symmetry_multiplicity
  _atom_site_fract_x
  _atom_site_fract_y
  _atom_site_fract_z
  _atom_site_occupancy
  Cd  Cd1       1.0  0.35772540526485136  0.9843235874232048  0.0102400983621038  1.0000
  Cd  Cd2       1.0  0.14227150964413235  0.0156760275875527  0.5102376457687043  1.0000
  Cd  Cd3       1.0  0.6422740706689964  0.01568450095331289  0.9897579629059622  1.0000
  Cd  Cd4       1.0  0.8577273760596358  0.9843160908398758  0.4897558095261942  1.0000
  H   H1        1.0  0.3050754427015434  0.00010773354966890109  0.7469723930275194  1.0000
  H   H2        1.0  0.19491614526356937  0.9998914704513098  0.2469689573827409  1.0000
  H   H3        1.0  0.69492095187087  0.999875697421899  0.2530250925300308  1.0000
  H   H4        1.0  0.8050714345741099  0.00010577499462270041  0.7530342856641851  1.0000
  H   H5        1.0  0.6070000565911897  0.015579100223909797  0.7835446809728737  1.0000
  H   H6        1.0  0.8929899504235409  0.9844181645027915  0.2835412699914599  1.0000
  H   H7        1.0  0.39299671636913314  0.9844129821324686  0.216457986317927  1.0000
  H   H8        1.0  0.10699302557679151  0.015570357448012799  0.7164602458259139  1.0000
  H   H9        1.0  0.2521679846546406  0.520339950127287  0.9869038533789264  1.0000
  H   H10       1.0  0.2478399704869716  0.47966385467962164  0.4869126501798248  1.0000
  H   H11       1.0  0.7478372917618543  0.47966956722052595  0.0130936321288999  1.0000
  H   H12       1.0  0.7521724695916776  0.5203411299264146  0.5130923200676349  1.0000
  H   H13       1.0  0.2704022585693622  0.41633199385839237  0.9700569637969635  1.0000
  H   H14       1.0  0.2295969136327045  0.5836684062276445  0.4700545857949336  1.0000
  H   H15       1.0  0.7296030178485751  0.5836775234906427  0.029939945961317004  1.0000
  H   H16       1.0  0.7704064093439273  0.41633110285848557  0.5299423239802437  1.0000
  H   H17       1.0  0.3487314490396687  0.16792775806852933  0.9074916416262013  1.0000
  H   H18       1.0  0.15127159547733274  0.8320676484764603  0.4074928355807046  1.0000
  H   H19       1.0  0.6512699730572964  0.8320790335291546  0.0925052681416645  1.0000
  H   H20       1.0  0.8487257984488111  0.16792377948559079  0.5925075287119057  1.0000
  H   H21       1.0  0.4944030545842467  0.0412229403750146  0.5542001654687354  1.0000
  H   H22       1.0  0.005593692880914602  0.9587937787291522  0.0541962610719153  1.0000
  H   H23       1.0  0.5055980723847073  0.9587758662371257  0.4457996230584342  1.0000
  H   H24       1.0  0.9943945152094005  0.041214117371531196  0.9458023759628631  1.0000
  H   H25       1.0  0.4112002871938858  0.2893653985545157  0.1679111517525413  1.0000
  H   H26       1.0  0.08880122268340783  0.7106316437593563  0.6679121017079909  1.0000
  H   H27       1.0  0.5888020056904041  0.7106427378820966  0.8320909397580323  1.0000
  H   H28       1.0  0.9112007297937411  0.28936252196265133  0.3320922928207608  1.0000
  H   H29       1.0  0.37200830451502054  0.33353169447914865  0.9244132304199438  1.0000
  H   H30       1.0  0.12799217146493194  0.666466257794987  0.4244178351595664  1.0000
  H   H31       1.0  0.6279919589332721  0.6664770723260319  0.07558713384415938  1.0000
  H   H32       1.0  0.8720101521190743  0.3335252542676485  0.5755917411182168  1.0000
  H   H33       1.0  0.7064478528959274  0.021923977722622102  0.6649170871378729  1.0000
  H   H34       1.0  0.7935453602187224  0.9780778253248882  0.164914567969781  1.0000
  H   H35       1.0  0.29355472785835707  0.9780808386749128  0.3350729136365018  1.0000
  H   H36       1.0  0.20644172722963114  0.021926726675488298  0.8350846448208813  1.0000
  H   H37       1.0  0.6574090517103315  0.025580735410109398  0.5768188393079043  1.0000
  H   H38       1.0  0.8425882900692944  0.9744228346760693  0.0768184862076282  1.0000
  H   H39       1.0  0.3425890157576674  0.9744273289443014  0.4231734644668776  1.0000
  H   H40       1.0  0.15740691515040345  0.025579195873298502  0.9231766963275804  1.0000
  H   H41       1.0  0.3924019811125135  0.12475094744958429  0.13909802380273112  1.0000
  H   H42       1.0  0.10760319417062901  0.8752462773124347  0.6390978821641227  1.0000
  H   H43       1.0  0.6076026290575954  0.8752532385622799  0.8609017647116985  1.0000
  H   H44       1.0  0.8923972665505034  0.12474719796253449  0.3609047851192031  1.0000
  H   H45       1.0  0.36917768423789005  0.6401865305485047  0.9268931357592081  1.0000
  H   H46       1.0  0.13082655037817406  0.35981347053477464  0.4268951333752753  1.0000
  H   H47       1.0  0.6308167787205579  0.359820807279263  0.0731106830128496  1.0000
  H   H48       1.0  0.8691865866869293  0.6401802210674674  0.5730988976455862  1.0000
  H   H49       1.0  0.41370071012450893  0.6949474601941786  0.16966143637078804  1.0000
  H   H50       1.0  0.08628952315243052  0.3050493824134364  0.669661798577593  1.0000
  H   H51       1.0  0.5862984326688548  0.3050579624996884  0.8303446853950973  1.0000
  H   H52       1.0  0.9137096576663809  0.6949507209885437  0.3303339597038857  1.0000
  H   H53       1.0  0.3490896550839652  0.80142367395284  0.9100229035334095  1.0000
  H   H54       1.0  0.1509146639623964  0.19857639877201896  0.4100252908939552  1.0000
  H   H55       1.0  0.6509114791588573  0.19858643769737228  0.0899797637256867  1.0000
  H   H56       1.0  0.8490881973361583  0.8014137925043553  0.5899704673958367  1.0000
  H   H57       1.0  0.39260334628716714  0.8542708364124394  0.14188881498740358  1.0000
  H   H58       1.0  0.10739634766277824  0.1457276131891233  0.6418907100519958  1.0000
  H   H59       1.0  0.6074062388199337  0.14573941942906288  0.8581207612533247  1.0000
  H   H60       1.0  0.8925959953100606  0.8542683835564162  0.3581067754941003  1.0000
  C   C1        1.0  0.30786617986562  0.022329940650053  0.5941551869326176  1.0000
  C   C2        1.0  0.19213575169688113  0.9776847056504321  0.09415873064039458  1.0000
  C   C3        1.0  0.6921338264844366  0.9776655218813487  0.4058359653577597  1.0000
  C   C4        1.0  0.8078634291003157  0.0223153977332018  0.9058456638842287  1.0000
  C   C5        1.0  0.45428027428778256  0.0072002833068153995  0.7740721145352154  1.0000
  C   C6        1.0  0.0457105190835421  0.9928047793176729  0.2740714493258949  1.0000
  C   C7        1.0  0.5457196487605813  0.992794512789864  0.225927673999351  1.0000
  C   C8        1.0  0.9542807485192671  0.0071938590505098024  0.725930066464926  1.0000
  C   C9        1.0  0.4347609594389895  0.9953153650927503  0.8583276802414161  1.0000
  C   C10       1.0  0.06523467506904981  0.004692089522741599  0.3583216537980789  1.0000
  C   C11       1.0  0.565244021850937  0.004686167270740804  0.14167210827616827  1.0000
  C   C12       1.0  0.9347607799836767  0.9953119402696584  0.6416764074816825  1.0000
  C   C13       1.0  0.39193803619244255  0.021007366303251698  0.6456817679932456  1.0000
  C   C14       1.0  0.10805767046490193  0.9790042993894161  0.1456798027627642  1.0000
  C   C15       1.0  0.6080617203072908  0.9789860969704377  0.354313414547093  1.0000
  C   C16       1.0  0.8919358764184581  0.020995707863022496  0.8543217130227276  1.0000
  C   C17       1.0  0.5629672405126911  0.029489786910062297  0.664777960427898  1.0000
  C   C18       1.0  0.9370290780980997  0.9705087447318232  0.1647756076504976  1.0000
  C   C19       1.0  0.43703119078686115  0.970504318745689  0.3352172221135348  1.0000
  C   C20       1.0  0.06295833518230151  0.029487167883786497  0.8352264838994542  1.0000
  C   C21       1.0  0.37693024403484543  0.008805133353426699  0.7246832810495576  1.0000
  C   C22       1.0  0.12305897164085172  0.9911967828985553  0.2246800852600117  1.0000
  C   C23       1.0  0.6230616752478966  0.9911762262586804  0.27531765901485983  1.0000
  C   C24       1.0  0.8769252082901605  0.008795749576272301  0.7753174003031589  1.0000
  C   C25       1.0  0.5469253467944384  0.017357685604977694  0.7446494324967716  1.0000
  C   C26       1.0  0.9530641959235597  0.9826457180119448  0.2446452704839928  1.0000
  C   C27       1.0  0.4530715094474048  0.9826350631690061  0.2553526590434245  1.0000
  C   C28       1.0  0.046922762967035715  0.017352181844209703  0.7553527908170706  1.0000
  C   C29       1.0  0.39043656400694726  0.3245832619269746  0.0488363405616425  1.0000
  C   C30       1.0  0.1095623537394985  0.675416891647188  0.5488332962670555  1.0000
  C   C31       1.0  0.6095584819120462  0.6754287408154694  0.9511674782030326  1.0000
  C   C32       1.0  0.8904439907371542  0.3245786790093419  0.451171674002687  1.0000
  C   C33       1.0  0.36243154803671734  0.19786941821705278  0.9642748779490162  1.0000
  C   C34       1.0  0.13757602069691902  0.8021304842065716  0.4642756208116552  1.0000
  C   C35       1.0  0.6375696242027332  0.8021353741168153  0.035728940816532904  1.0000
  C   C36       1.0  0.8624260983303034  0.19786501433964077  0.5357328039617855  1.0000
  C   C37       1.0  0.48383689629775267  0.03139608905480879  0.61598963596537  1.0000
  C   C38       1.0  0.01616355552396702  0.9686131211871327  0.11598682394486559  1.0000
  C   C39       1.0  0.5161592557097238  0.9685966477069101  0.38401015257773  1.0000
  C   C40       1.0  0.9838248118497647  0.03138480270580149  0.8840100858549604  1.0000
  C   C41       1.0  0.39685424949483666  0.2645119030299909  0.1096655054594677  1.0000
  C   C42       1.0  0.10314941475907353  0.7354834234294927  0.6096697975037131  1.0000
  C   C43       1.0  0.6031468394818235  0.7354922229021668  0.8903314043126187  1.0000
  C   C44       1.0  0.8968535297965092  0.26450743424370415  0.3903351727777036  1.0000
  C   C45       1.0  0.40960518048218125  0.4195065651991  0.0658271240983055  1.0000
  C   C46       1.0  0.0903913729439836  0.5804921473321086  0.5658261294994418  1.0000
  C   C47       1.0  0.5903890326288277  0.5804987733733993  0.9341795734246361  1.0000
  C   C48       1.0  0.9096167964118751  0.4195067794394376  0.4341794165124213  1.0000
  C   C49       1.0  0.3721044338154726  0.2900232537999726  0.9744758652369826  1.0000
  C   C50       1.0  0.12789869185736796  0.7099752003621232  0.474479197329039  1.0000
  C   C51       1.0  0.6278955798026759  0.7099835137646052  0.0255204687834905  1.0000
  C   C52       1.0  0.8721046691173343  0.29001898940887827  0.5255182882030454  1.0000
  C   C53       1.0  0.41016666908220156  0.5643707389016155  0.066647939945824  1.0000
  C   C54       1.0  0.08983281847508101  0.4356233653141288  0.5666473513499994  1.0000
  C   C55       1.0  0.5898338369151831  0.4356287220999632  0.9333564545777053  1.0000
  C   C56       1.0  0.9101747299480965  0.5643762158798679  0.4333472554205642  1.0000
  C   C57       1.0  0.38702849395343025  0.17392951406771567  0.09401447103577  1.0000
  C   C58       1.0  0.11297479423510035  0.8260678660928844  0.5940167535337865  1.0000
  C   C59       1.0  0.6129710652619382  0.8260792407264075  0.9059830144816985  1.0000
  C   C60       1.0  0.8870220619995381  0.17392488267498854  0.4059882167541247  1.0000
  C   C61       1.0  0.3910444878417608  0.6546879841709481  0.0506132178265801  1.0000
  C   C62       1.0  0.10895868442823088  0.34530691462618507  0.5506197329234226  1.0000
  C   C63       1.0  0.608963560237399  0.3453155955005656  0.9493911766798888  1.0000
  C   C64       1.0  0.8910469558313354  0.6546886440327453  0.4493760253547023  1.0000
  C   C65       1.0  0.3718369967817809  0.6846415214602714  0.9764604993712425  1.0000
  C   C66       1.0  0.12816011392636995  0.31535948179224255  0.47646032605101135  1.0000
  C   C67       1.0  0.6281596621771398  0.3153665188353684  0.023543319396537796  1.0000
  C   C68       1.0  0.8718482600122074  0.6846354585177395  0.5235360079734194  1.0000
  C   C69       1.0  0.39827028686742955  0.7161602988673363  0.11163969399090941  1.0000
  C   C70       1.0  0.10172955847700393  0.28383827919688537  0.611639493341606  1.0000
  C   C71       1.0  0.6017341187286007  0.2838478736134319  0.888365852013699  1.0000
  C   C72       1.0  0.8982713186718885  0.7161585281832216  0.3883522346951267  1.0000
  C   C73       1.0  0.36222091994793715  0.7742797470160666  0.9666594042391664  1.0000
  C   C74       1.0  0.13778444084147884  0.22571944280507947  0.46666405823557977  1.0000
  C   C75       1.0  0.6377855150812055  0.22572779509369667  0.0333490205109896  1.0000
  C   C76       1.0  0.8622203666086676  0.7742694516826845  0.5333351545503575  1.0000
  C   C77       1.0  0.3872121872463553  0.8041001357191175  0.0964847083936817  1.0000
  C   C78       1.0  0.11278081281407991  0.19589373362647677  0.5964881745220154  1.0000
  C   C79       1.0  0.6127917186677723  0.1959040382621353  0.9035214133667964  1.0000
  C   C80       1.0  0.8872184892799881  0.8041017168743138  0.4035093110144032  1.0000
  N   N1        1.0  0.37083296292878043  0.14122081689996685  0.0224408123129294  1.0000
  N   N2        1.0  0.12917370498413314  0.8587729287948989  0.522444682179156  1.0000
  N   N3        1.0  0.6291675050921413  0.8587839634350727  0.977554370210548  1.0000
  N   N4        1.0  0.8708274599756934  0.14122055849600906  0.4775585608526356  1.0000
  N   N5        1.0  0.37040994029517565  0.48738020424812584  0.0309412718808559  1.0000
  N   N6        1.0  0.12959304259386073  0.5126180981589172  0.5309455308596043  1.0000
  N   N7        1.0  0.6295884149866282  0.5126245400195372  0.9690613953899003  1.0000
  N   N8        1.0  0.8704147103673708  0.48737749653560763  0.4690577121593691  1.0000
  N   N9        1.0  0.30237416240641585  0.4810469450125651  0.9717023177189005  1.0000
  N   N10       1.0  0.19763030234814496  0.5189508785463701  0.4717053980011627  1.0000
  N   N11       1.0  0.6976312805644725  0.5189639051631261  0.0282974707849917  1.0000
  N   N12       1.0  0.8023802675764956  0.48104476421924847  0.5282966935144273  1.0000
  N   N13       1.0  0.4707692224656057  0.5439347114808014  0.1206169124465077  1.0000
  N   N14       1.0  0.02922075659276401  0.45605834091011827  0.6206147214024186  1.0000
  N   N15       1.0  0.5292224615217408  0.4560672589558478  0.8793909365840094  1.0000
  N   N16       1.0  0.9707821047057908  0.5439318503662562  0.37938103688736646  1.0000
  N   N17       1.0  0.4707993797709237  0.45426925770967586  0.11983689689908057  1.0000
  N   N18       1.0  0.02919226151667693  0.5457258212813941  0.6198327284349219  1.0000
  N   N19       1.0  0.5291937959782018  0.5457334031789075  0.8801703763786932  1.0000
  N   N20       1.0  0.9708121748035696  0.4542657268461809  0.38017051459466705  1.0000
  N   N21       1.0  0.652952856805534  0.04223718803268639  0.6336798475950616  1.0000
  N   N22       1.0  0.8470438292877775  0.9577687942388662  0.1336760731137474  1.0000
  N   N23       1.0  0.34704707352101144  0.9577689131057382  0.3663210924228082  1.0000
  N   N24       1.0  0.15294379585640175  0.04223443695935461  0.8663168064329837  1.0000
  N   N25       1.0  0.3700242624568661  0.8326797546664861  0.0251556591872841  1.0000
  N   N26       1.0  0.12997792387855614  0.16732321319948795  0.5251556989899555  1.0000
  N   N27       1.0  0.6299858223465481  0.16733449968675979  0.9748475838021449  1.0000
  N   N28       1.0  0.8700204241409183  0.8326702260398804  0.4748394835525289  1.0000
  O   O1        1.0  0.501808869961458  0.9963649410805003  0.9069507785852693  1.0000
  O   O2        1.0  0.9981843810341788  0.0036458303721503007  0.406949213609451  1.0000
  O   O3        1.0  0.49820900678701463  0.0036554312113921007  0.0930432523912472  1.0000
  O   O4        1.0  0.001811861534434903  0.9963588778501345  0.593050574916802  1.0000
  O   O5        1.0  0.22610542207274162  0.019625996803306095  0.6260668075155209  1.0000
  O   O6        1.0  0.27389813665757157  0.9803971894058917  0.1260718256096993  1.0000
  O   O7        1.0  0.7739025354870607  0.9803656114430905  0.3739208902710445  1.0000
  O   O8        1.0  0.7261015890948954  0.01961289820143719  0.8739348718983422  1.0000
  O   O9        1.0  0.31844171901790475  0.02564667112790179  0.5213222735264368  1.0000
  O   O10       1.0  0.18156243264969166  0.9743550162247487  0.021327585483661  1.0000
  O   O11       1.0  0.6815722888662137  0.9743483653401624  0.4786642727471815  1.0000
  O   O12       1.0  0.8184398076585566  0.02563582942517679  0.9786802635465434  1.0000
  O   O13       1.0  0.3473440292069868  0.9848747956026428  0.8795424693501132  1.0000
  O   O14       1.0  0.15265448264921136  0.015133949823784597  0.3795355757404764  1.0000
  O   O15       1.0  0.6526612851845215  0.015129402410494194  0.12046480390731058  1.0000
  O   O16       1.0  0.8473469394506382  0.9848728417763436  0.620460182528312  1.0000
