data_image0
_chemical_formula_structural       Zn2H36C48N4O10
_chemical_formula_sum              "Zn2 H36 C48 N4 O10"
_cell_length_a       8.976045273816226
_cell_length_b       11.163269587542002
_cell_length_c       11.573894501076044
_cell_angle_alpha    69.01254570531172
_cell_angle_beta     76.28007784127406
_cell_angle_gamma    91.61072970626202

_space_group_name_H-M_alt    "P 1"
_space_group_IT_number       1

loop_
  _space_group_symop_operation_xyz
  'x, y, z'

loop_
  _atom_site_type_symbol
  _atom_site_label
  _atom_site_symmetry_multiplicity
  _atom_site_fract_x
  _atom_site_fract_y
  _atom_site_fract_z
  _atom_site_occupancy
  Zn  Zn1       1.0  0.22270482466792882  0.1575618812150026  0.8390147972071205  1.0000
  Zn  Zn2       1.0  0.7772952382143785  0.8424406760582669  0.16098431439039027  1.0000
  H   H1        1.0  0.9691671014190819  0.1367691028161175  0.6845781730415226  1.0000
  H   H2        1.0  0.03083487948756407  0.8632305646702958  0.31542077575642224  1.0000
  H   H3        1.0  0.4542018434680913  0.2824035030090002  0.995241357846467  1.0000
  H   H4        1.0  0.5457952906192958  0.7175940965245005  0.004755766508495186  1.0000
  H   H5        1.0  0.8192188249131862  0.3172102208513579  0.7138552898230587  1.0000
  H   H6        1.0  0.180781750704341  0.6827876126268889  0.28614976586721497  1.0000
  H   H7        1.0  0.18396860281296065  0.0277191483105597  0.3698795010144877  1.0000
  H   H8        1.0  0.8160342636435943  0.9722873430071385  0.6301193999864979  1.0000
  H   H9        1.0  0.4731001346252769  0.062354928697978096  0.15030395471541874  1.0000
  H   H10       1.0  0.5268990343566389  0.9376494903063631  0.8496920503485015  1.0000
  H   H11       1.0  0.7158081227260666  0.2560167846634299  0.9693750117091823  1.0000
  H   H12       1.0  0.2841914362718114  0.743981791840511  0.030620452755528025  1.0000
  H   H13       1.0  0.6267926900695572  0.08063462215369549  0.26558908998546826  1.0000
  H   H14       1.0  0.37321133658353023  0.9193630842311719  0.7344076069990775  1.0000
  H   H15       1.0  0.21489389328403521  0.9492668036300033  0.5834239659808274  1.0000
  H   H16       1.0  0.7851101333690597  0.0507309027548715  0.4165727310037183  1.0000
  H   H17       1.0  0.7651629724107423  0.5973863922573415  0.9740898768003703  1.0000
  H   H18       1.0  0.23483403595567862  0.4026102025828208  0.025905907086098495  1.0000
  H   H19       1.0  0.8381833243071953  0.42995633890159  0.47801053749964245  1.0000
  H   H20       1.0  0.161818273933406  0.5700405235268846  0.5219938209692216  1.0000
  H   H21       1.0  0.9540671255724504  0.4937424852397142  0.890963539310171  1.0000
  H   H22       1.0  0.0459300070140785  0.5062551712998057  0.10903615715653098  1.0000
  H   H23       1.0  0.20045442658284432  0.34116446581679577  0.2819560602662391  1.0000
  H   H24       1.0  0.7995512522987341  0.6588372549809732  0.7180449270981839  1.0000
  H   H25       1.0  0.9617352762499609  0.21577007460622608  0.45351634720930173  1.0000
  H   H26       1.0  0.03826823316534698  0.7842325265917222  0.5464821220177071  1.0000
  H   H27       1.0  0.7076248938545435  0.475578004630428  0.2968861355415767  1.0000
  H   H28       1.0  0.2923773374934627  0.5244237102466727  0.7031172089345076  1.0000
  H   H29       1.0  0.4776959086619286  0.4398282454286642  0.2268340505830153  1.0000
  H   H30       1.0  0.5223074720306968  0.5601734650879848  0.7731682223989865  1.0000
  H   H31       1.0  0.5677411060003053  0.19000747449630495  0.860747265827314  1.0000
  H   H32       1.0  0.4322594701175007  0.809990339979933  0.13925693249237267  1.0000
  H   H33       1.0  0.05805516112388891  0.9499576147880545  0.8572493798345133  1.0000
  H   H34       1.0  0.9419450269790989  0.050045966180562104  0.14275192960206337  1.0000
  H   H35       1.0  0.13530371630452717  0.9128118917114346  0.9702494579747167  1.0000
  H   H36       1.0  0.8646950705116296  0.08718970323295848  0.029751099389549954  1.0000
  C   C1        1.0  0.069885713219854  0.19206406591501946  0.6073623553936968  1.0000
  C   C2        1.0  0.9301161404649678  0.807934653884075  0.3926378250475011  1.0000
  C   C3        1.0  0.4074826292179736  0.0165824388914473  0.4128294571042516  1.0000
  C   C4        1.0  0.5925222824847368  0.9834221103267139  0.5871680494539077  1.0000
  C   C5        1.0  0.4743199381387768  0.37738086312515406  0.999015116416281  1.0000
  C   C6        1.0  0.5256794936372771  0.6226167656914683  0.000981579691682637  1.0000
  C   C7        1.0  0.3260541450070775  0.2778609593454035  0.5514330549613575  1.0000
  C   C8        1.0  0.6739478338984242  0.7221387841490311  0.448569323318907  1.0000
  C   C9        1.0  0.6004889885261235  0.36307829223305527  0.5001271140933383  1.0000
  C   C10       1.0  0.39951184103475873  0.6369214556218236  0.49987633568100875  1.0000
  C   C11       1.0  0.33342909719837627  0.32905909987976395  0.4186683019870258  1.0000
  C   C12       1.0  0.6665751803963574  0.6709406348937818  0.5813319333050799  1.0000
  C   C13       1.0  0.6267573849091761  0.4304490023525671  0.9804409675197405  1.0000
  C   C14       1.0  0.37323949573513465  0.569546663802285  0.019556905380568364  1.0000
  C   C15       1.0  0.7208006108185288  0.31322891150607285  0.6750238542065075  1.0000
  C   C16       1.0  0.2791999652992772  0.6867689029701651  0.3249803441131789  1.0000
  C   C17       1.0  0.30788217778835764  0.03393432570647549  0.3270548154723016  1.0000
  C   C18       1.0  0.6921214578482023  0.9660692611828094  0.6729441368526138  1.0000
  C   C19       1.0  0.3522968041581578  0.05827584974886688  0.200181894032994  1.0000
  C   C20       1.0  0.6477024905447236  0.9417295739488124  0.7998154514994198  1.0000
  C   C21       1.0  0.7514524045275909  0.35605972052501755  0.9544839512892338  1.0000
  C   C22       1.0  0.24854358171603516  0.6439378263629079  0.04551167244806462  1.0000
  C   C23       1.0  0.5696502394552995  0.0457060344834304  0.36790377181416994  1.0000
  C   C24       1.0  0.4303532709605733  0.9542965287105148  0.632092982671679  1.0000
  C   C25       1.0  0.3404312801061096  0.9711928361463079  0.5464851461680027  1.0000
  C   C26       1.0  0.6595723570313083  0.028810693736957695  0.45351123404517313  1.0000
  C   C27       1.0  0.6503819891633285  0.5547935197933426  0.9825876180755626  1.0000
  C   C28       1.0  0.349616293768385  0.4452040943817225  0.017409292155903627  1.0000
  C   C29       1.0  0.46255244674729573  0.2920960959414102  0.592562340443429  1.0000
  C   C30       1.0  0.5374482565923415  0.7079026662221466  0.4074406262330116  1.0000
  C   C31       1.0  0.730717038307134  0.3742607719356029  0.5458600901711108  1.0000
  C   C32       1.0  0.2692836640319243  0.6257380282319643  0.4541445912464894  1.0000
  C   C33       1.0  0.904765194942293  0.396059508584969  0.9093979016218583  1.0000
  C   C34       1.0  0.0952320658666324  0.603939057637852  0.09059884846043795  1.0000
  C   C35       1.0  0.19841600497090892  0.3057887817447024  0.38332598896191417  1.0000
  C   C36       1.0  0.8015883993453627  0.694211919718164  0.6166738720575181  1.0000
  C   C37       1.0  0.0671211658006783  0.2365678446974684  0.47770012592278727  1.0000
  C   C38       1.0  0.9328820896712672  0.7634328421238478  0.5222999492201482  1.0000
  C   C39       1.0  0.24069010714706005  0.0818708367215422  0.11987511536088387  1.0000
  C   C40       1.0  0.7593067611444795  0.9181336670117088  0.8801264621735215  1.0000
  C   C41       1.0  0.014246415889154197  0.3074500225888385  0.8809889330824346  1.0000
  C   C42       1.0  0.9857496965757235  0.6925485099904164  0.11900717375277735  1.0000
  C   C43       1.0  0.602564515891082  0.4179791040035424  0.36722821359216334  1.0000
  C   C44       1.0  0.39743861135846703  0.5820206731344655  0.6327748079351848  1.0000
  C   C45       1.0  0.47442067494335294  0.3998410797048848  0.3282160840881048  1.0000
  C   C46       1.0  0.5255825790277343  0.6001596641224436  0.6717865631665704  1.0000
  C   C47       1.0  0.5799528963216362  0.24234408454672968  0.7587976459906473  1.0000
  C   C48       1.0  0.4200466576733817  0.7576546819772645  0.241206392179869  1.0000
  N   N1        1.0  0.19572087139088273  0.21265784243077945  0.6427916091066878  1.0000
  N   N2        1.0  0.804280982293939  0.7873408773683152  0.3572085713345103  1.0000
  N   N3        1.0  0.4537915905577918  0.23392517254867323  0.7193012834071055  1.0000
  N   N4        1.0  0.5462092390030905  0.7660745753062058  0.28070216636724865  1.0000
  O   O1        1.0  0.15948809447681359  0.9665140621131197  0.8766347508951997  1.0000
  O   O2        1.0  0.8405118406833908  0.03348756647483239  0.12336644971614416  1.0000
  O   O3        1.0  0.0997784930359202  0.08213869300685418  0.17155610336736515  1.0000
  O   O4        1.0  0.9002204185006308  0.917863944634881  0.8284475092065476  1.0000
  O   O5        1.0  0.9630756995758745  0.19647361440296152  0.8863370232243638  1.0000
  O   O6        1.0  0.03691811470005747  0.8035249078951734  0.11366036922842682  1.0000
  O   O7        1.0  0.1594336915014054  0.34370608071912295  0.849581153286607  1.0000
  O   O8        1.0  0.8405622957427994  0.656291428164792  0.15041275570953172  1.0000
  O   O9        1.0  0.3022297204536032  0.10283487226702448  0.0006436651228582984  1.0000
  O   O10       1.0  0.6977647244283034  0.897168597489774  0.9993570001900595  1.0000
