data_image0
_chemical_formula_structural       Co2H20C28S4N16
_chemical_formula_sum              "Co2 H20 C28 S4 N16"
_cell_length_a       7.095605303100381
_cell_length_b       8.845906017142386
_cell_length_c       13.261647639465032
_cell_angle_alpha    109.47569867824808
_cell_angle_beta     97.27297157884293
_cell_angle_gamma    89.98626539704583

_space_group_name_H-M_alt    "P 1"
_space_group_IT_number       1

loop_
  _space_group_symop_operation_xyz
  'x, y, z'

loop_
  _atom_site_type_symbol
  _atom_site_label
  _atom_site_symmetry_multiplicity
  _atom_site_fract_x
  _atom_site_fract_y
  _atom_site_fract_z
  _atom_site_occupancy
  Co  Co1       1.0  0.7499408117702943  0.09572248506438537  3.589941029959812e-05  1.0000
  Co  Co2       1.0  0.25006229033336064  0.9042748207580257  0.9999633654397541  1.0000
  H   H1        1.0  0.6900516455501274  0.3836179791778349  0.24100830805698337  1.0000
  H   H2        1.0  0.809634085229206  0.14286010175200656  0.7589355907914452  1.0000
  H   H3        1.0  0.3099475351172174  0.6163853026870638  0.7589958136286724  1.0000
  H   H4        1.0  0.19036618336689767  0.8571371944136956  0.24106424298344822  1.0000
  H   H5        1.0  0.5670903188229133  0.7640812616503183  0.5235221650915349  1.0000
  H   H6        1.0  0.9329800866246531  0.2408457687563795  0.47647146089250464  1.0000
  H   H7        1.0  0.4329089135190927  0.2359232235879815  0.4764814756358717  1.0000
  H   H8        1.0  0.06701869282191099  0.7591503269544544  0.5235272535267086  1.0000
  H   H9        1.0  0.7377683793378369  0.5826979664212572  0.14986091681220867  1.0000
  H   H10       1.0  0.7619746595929441  0.43309130508494303  0.8500884201426188  1.0000
  H   H11       1.0  0.2622349874835308  0.41730413120345117  0.8501417015786216  1.0000
  H   H12       1.0  0.23802706499893836  0.566907203930647  0.1499095173458045  1.0000
  H   H13       1.0  0.6079156477698361  0.9640973143232539  0.43004478819214126  1.0000
  H   H14       1.0  0.8921410367826184  0.5343594687830728  0.5699648926125604  1.0000
  H   H15       1.0  0.39208213880885984  0.0359071769323336  0.5699564983108089  1.0000
  H   H16       1.0  0.10785917185038577  0.46563662710799025  0.4300346682100411  1.0000
  H   H17       1.0  0.6026807866532168  0.4742627675275271  0.42643113368725233  1.0000
  H   H18       1.0  0.8973619139175921  0.04813644299051128  0.5735964202324624  1.0000
  H   H19       1.0  0.39731842911191967  0.5257417239082826  0.5735709992190862  1.0000
  H   H20       1.0  0.10263686552897155  0.9518596527203226  0.4264022941867579  1.0000
  C   C1        1.0  0.6688518655179576  0.5102593818423597  0.2818800167622583  1.0000
  C   C2        1.0  0.83083928537922  0.2286309138421671  0.7180607037931422  1.0000
  C   C3        1.0  0.331147290284072  0.4897439093188112  0.7181218431917883  1.0000
  C   C4        1.0  0.16915954574201209  0.7713663852420749  0.28193752966782876  1.0000
  C   C5        1.0  0.6010537484036007  0.7247687904372027  0.44113936236199436  1.0000
  C   C6        1.0  0.8988282888644078  0.2839153453717883  0.5588345380627828  1.0000
  C   C7        1.0  0.3989469482226298  0.2752369045522298  0.5588631359894833  1.0000
  C   C8        1.0  0.1011719114801579  0.7160807536180297  0.44116426884928456  1.0000
  C   C9        1.0  0.670871768136024  0.7828522182700863  0.28506352346928304  1.0000
  C   C10       1.0  0.8289303723800786  0.4980422014849424  0.7148886679831321  1.0000
  C   C11       1.0  0.3291273876660128  0.21715107289108457  0.7149383364847638  1.0000
  C   C12       1.0  0.17106702955471315  0.5019550974190777  0.28510871907445784  1.0000
  C   C13       1.0  0.6944423436629493  0.6207444535520991  0.23015481738378438  1.0000
  C   C14       1.0  0.8052103644948758  0.39083665351148505  0.7697833543482133  1.0000
  C   C15       1.0  0.30555670878975866  0.37925643086227  0.7698480044867466  1.0000
  C   C16       1.0  0.19478698576525494  0.6091594420191271  0.23021451366761883  1.0000
  C   C17       1.0  0.6241081014821859  0.8364656113651348  0.3899420562780236  1.0000
  C   C18       1.0  0.8757620747979045  0.44678939385130406  0.6100211591484451  1.0000
  C   C19       1.0  0.3758910626082824  0.16353767669727393  0.6100605575865571  1.0000
  C   C20       1.0  0.12423669636022788  0.553206704958292  0.3899768013602412  1.0000
  C   C21       1.0  0.6461615721601531  0.8956594557274327  0.1326086796503815  1.0000
  C   C22       1.0  0.8539728540282638  0.7632630009209859  0.8673696884257821  1.0000
  C   C23       1.0  0.35384024554857507  0.10434024116776894  0.8673925464324768  1.0000
  C   C24       1.0  0.14602744966562403  0.23673550481562694  0.1326281565698011  1.0000
  C   C25       1.0  0.6224906079831384  0.562004910066953  0.3869901642202079  1.0000
  C   C26       1.0  0.877386997650916  0.17530007084637583  0.6129857410827029  1.0000
  C   C27       1.0  0.3775100452568693  0.4379995784503235  0.6130135690000458  1.0000
  C   C28       1.0  0.1226132026936426  0.8246960281434422  0.38701306582936457  1.0000
  S   S1        1.0  0.4922851162700681  0.7567605844921839  0.03639476797464869  1.0000
  S   S2        1.0  0.007898641766359996  0.7203743572235339  0.9635151050922772  1.0000
  S   S3        1.0  0.5077181057597855  0.24323912187951174  0.9636050427799887  1.0000
  S   S4        1.0  0.9921016102528668  0.2796229451396854  0.036483220861548184  1.0000
  N   N1        1.0  0.730111614595998  0.02897493739281029  0.126166225141489  1.0000
  N   N2        1.0  0.769988170420696  0.9030554273180795  0.8738520003473268  1.0000
  N   N3        1.0  0.2698901348611997  0.9710235623265148  0.8738339740785432  1.0000
  N   N4        1.0  0.23001208159853084  0.09694187504513956  0.1261463256064914  1.0000
  N   N5        1.0  0.7046001523080109  0.8978095599648767  0.23520879855473703  1.0000
  N   N6        1.0  0.7953770673627076  0.6628742324797584  0.7647828157488235  1.0000
  N   N7        1.0  0.29540183700158446  0.10219374085301068  0.7647924924744629  1.0000
  N   N8        1.0  0.20462181543317828  0.3371242699778775  0.23521493675391264  1.0000
  N   N9        1.0  0.8158781173659976  0.032966357489044584  0.2902409442557286  1.0000
  N   N10       1.0  0.6840078246458603  0.7430642356099921  0.7098071157492781  1.0000
  N   N11       1.0  0.18412238279405804  0.9670357428739748  0.7097592274177984  1.0000
  N   N12       1.0  0.31599255558799644  0.2569354642037494  0.29019251001966495  1.0000
  N   N13       1.0  0.8289851798844623  0.11049797926013835  0.22425176410121136  1.0000
  N   N14       1.0  0.6709629860323432  0.8865663007365467  0.775803670475355  1.0000
  N   N15       1.0  0.17101526031249387  0.8895029208282421  0.7757481346200236  1.0000
  N   N16       1.0  0.3290373342384214  0.11343219880254908  0.2241956823412892  1.0000
