data_image0
_chemical_formula_structural       Ca4H52C16N4O32
_chemical_formula_sum              "Ca4 H52 C16 N4 O32"
_cell_length_a       6.480323682372734
_cell_length_b       11.86463054230921
_cell_length_c       13.970341583499248
_cell_angle_alpha    67.96521895622621
_cell_angle_beta     76.5870378720581
_cell_angle_gamma    74.14472455381102

_space_group_name_H-M_alt    "P 1"
_space_group_IT_number       1

loop_
  _space_group_symop_operation_xyz
  'x, y, z'

loop_
  _atom_site_type_symbol
  _atom_site_label
  _atom_site_symmetry_multiplicity
  _atom_site_fract_x
  _atom_site_fract_y
  _atom_site_fract_z
  _atom_site_occupancy
  Ca  Ca1       1.0  0.3356052103923515  0.525355915762816  0.7156618580532168  1.0000
  Ca  Ca2       1.0  0.5765683848952394  0.47462601249511477  0.2843351995890302  1.0000
  Ca  Ca3       1.0  0.5606692062635902  0.0246728492138217  0.2185151828864917  1.0000
  Ca  Ca4       1.0  0.8035103786285093  0.9753867141652037  0.7814835684566148  1.0000
  H   H1        1.0  0.8317943260543288  0.5904833260022144  0.7266409150175548  1.0000
  H   H2        1.0  0.14885180697301345  0.40953650748014775  0.2733701592339983  1.0000
  H   H3        1.0  0.9307526597981663  0.7147157651185553  0.6899436694808543  1.0000
  H   H4        1.0  0.3354126935929288  0.2852907136498288  0.3100131333767351  1.0000
  H   H5        1.0  0.855578031602164  0.5814676932579843  0.5678396371883779  1.0000
  H   H6        1.0  0.004937537142041073  0.41854004721156446  0.43213961544415724  1.0000
  H   H7        1.0  0.697380404610314  0.7860752709137201  0.45627570251527777  1.0000
  H   H8        1.0  0.9395118573064214  0.21413035269071662  0.5437038192403634  1.0000
  H   H9        1.0  0.8106104019505912  0.8615584427446944  0.5115019634309662  1.0000
  H   H10       1.0  0.1835305840351397  0.13847303443209572  0.48865772080821296  1.0000
  H   H11       1.0  0.7066717928630699  0.3780649468506212  0.8510583491231712  1.0000
  H   H12       1.0  0.9357267061142167  0.6218399953732643  0.14897937570680145  1.0000
  H   H13       1.0  0.6204036497995704  0.509082726823415  0.8666658652379481  1.0000
  H   H14       1.0  0.9961051425253088  0.49083644881690686  0.13331964613824002  1.0000
  H   H15       1.0  0.11556143011860338  0.2975257693464712  0.8201912217051301  1.0000
  H   H16       1.0  0.23326434993278863  0.7023607792218768  0.17979220961812817  1.0000
  H   H17       1.0  0.25538973920001234  0.3035093900862335  0.708092446948818  1.0000
  H   H18       1.0  0.2669330480557974  0.6964892166306598  0.29186107485385543  1.0000
  H   H19       1.0  0.15994469988972082  0.4850398872105188  0.9480077008852488  1.0000
  H   H20       1.0  0.5930185298577372  0.5149421447311369  0.05192974905445884  1.0000
  H   H21       1.0  0.9614239995116097  0.5631149487865983  0.8879433623161149  1.0000
  H   H22       1.0  0.41253259771741574  0.4368791527047976  0.11199305729886788  1.0000
  H   H23       1.0  0.7048550743567438  0.3239524506566126  0.660974422277242  1.0000
  H   H24       1.0  0.6897060579634418  0.6761014101668152  0.3390252597468546  1.0000
  H   H25       1.0  0.5704120493288017  0.3939046184035391  0.566044336181413  1.0000
  H   H26       1.0  0.5302406722170333  0.6061918387861738  0.43393817953818115  1.0000
  H   H27       1.0  0.008760727663968737  0.0686076146206531  0.1991093648577262  1.0000
  H   H28       1.0  0.2761270044834207  0.9312513887636057  0.8008808118189706  1.0000
  H   H29       1.0  0.8464957380531289  0.18554492536397046  0.2294943689197595  1.0000
  H   H30       1.0  0.2612187108531572  0.8143258179794586  0.7705049668785905  1.0000
  H   H31       1.0  0.8190721796401804  0.3128364141678047  0.06910657598722744  1.0000
  H   H32       1.0  0.2008654021528714  0.6870130732810721  0.9308889954184706  1.0000
  H   H33       1.0  0.1804974798737646  0.2881109874873147  0.955578085405314  1.0000
  H   H34       1.0  0.4239661678245526  0.7118523640465639  0.044393636473302  1.0000
  H   H35       1.0  0.2561736440954263  0.135186032893742  0.04451405294311429  1.0000
  H   H36       1.0  0.43533368602976463  0.8648089966099876  0.95547254852233  1.0000
  H   H37       1.0  0.20735723869860567  0.8671052319324204  0.3502537601337536  1.0000
  H   H38       1.0  0.42407277523588516  0.132786258003712  0.6498632504987043  1.0000
  H   H39       1.0  0.12997427505436554  0.9996207418981413  0.36259763294101083  1.0000
  H   H40       1.0  0.49142429046661124  0.0002937318501636997  0.6375398550328342  1.0000
  H   H41       1.0  0.912126698555994  0.7910322829311838  0.3197089421461001  1.0000
  H   H42       1.0  0.022611493170081935  0.20905278718115028  0.6802460936175976  1.0000
  H   H43       1.0  0.8742255095323443  0.802875333970526  0.2061575400189995  1.0000
  H   H44       1.0  0.8831182308059624  0.19710051862540476  0.7938281112371826  1.0000
  H   H45       1.0  0.4920830319685055  0.005788122076758399  0.44795553398444093  1.0000
  H   H46       1.0  0.9456214907511585  0.9943515280266484  0.5520138072936263  1.0000
  H   H47       1.0  0.6825413611490276  0.07612306448639569  0.3900195720176072  1.0000
  H   H48       1.0  0.1483842147481412  0.9239728814088011  0.6099960613194497  1.0000
  H   H49       1.0  0.4521896792371292  0.826570897701941  0.15846952221712485  1.0000
  H   H50       1.0  0.4371760976695928  0.17352209697207144  0.8415464065370131  1.0000
  H   H51       1.0  0.6169658108929426  0.8976917987440842  0.06715707078051032  1.0000
  H   H52       1.0  0.5818146078975348  0.1023436455725175  0.9328416089708041  1.0000
  C   C1        1.0  0.12319287055823487  0.6691792701242532  0.49314995693297436  1.0000
  C   C2        1.0  0.2854465447505989  0.3309268588714501  0.5068843290006768  1.0000
  C   C3        1.0  0.9096456089909072  0.6613804795025545  0.5692603812013033  1.0000
  C   C4        1.0  0.14037032214800152  0.3386348383056442  0.43073063909666587  1.0000
  C   C5        1.0  0.7403369376440524  0.7802996946451514  0.5298382135095849  1.0000
  C   C6        1.0  0.050404661742646815  0.2197691200023186  0.4702085034510405  1.0000
  C   C7        1.0  0.525387789728718  0.7988267637241787  0.5994817533722526  1.0000
  C   C8        1.0  0.9237507260149374  0.20120198258737076  0.40052499764563987  1.0000
  C   C9        1.0  0.8310248293588103  0.18685239163806242  0.9945268327649686  1.0000
  C   C10       1.0  0.012212920483357063  0.8130128953181879  0.005497550052709265  1.0000
  C   C11       1.0  0.9177790213353775  0.21982929901778905  0.07205272563160041  1.0000
  C   C12       1.0  0.20940796393534808  0.7800461252054944  0.9279273080770807  1.0000
  C   C13       1.0  0.1578084031797644  0.22874578410944924  0.037200147258637614  1.0000
  C   C14       1.0  0.42347172942834305  0.7712089314392258  0.9627625359160774  1.0000
  C   C15       1.0  0.23246335399652907  0.28434799520547227  0.10154116753808037  1.0000
  C   C16       1.0  0.618152472381532  0.7156745766768464  0.8984034217583101  1.0000
  N   N1        1.0  0.9507917580298868  0.633237498682284  0.6755851252740399  1.0000
  N   N2        1.0  0.25963837454548866  0.36676470593369  0.32439775034075075  1.0000
  N   N3        1.0  0.8729982631352018  0.13626562018083632  0.17951109300548754  1.0000
  N   N4        1.0  0.188432347256537  0.8636085261993852  0.8204831288147788  1.0000
  O   O1        1.0  0.3004131728529061  0.6184504464423242  0.5287668926220022  1.0000
  O   O2        1.0  0.44769118779515105  0.38151285701704285  0.47130048543665026  1.0000
  O   O3        1.0  0.11147159174505816  0.7278970227842548  0.3954279271405881  1.0000
  O   O4        1.0  0.23444779555008222  0.27230540783314433  0.6046017675449774  1.0000
  O   O5        1.0  0.41820749073060864  0.9124069015281222  0.578171817993713  1.0000
  O   O6        1.0  0.9091024002891501  0.0876064165887485  0.42175527914530864  1.0000
  O   O7        1.0  0.45521096748311846  0.7095799028426838  0.670947498647685  1.0000
  O   O8        1.0  0.8356751202082151  0.29044548803284437  0.3290988617320849  1.0000
  O   O9        1.0  0.6069994053611156  0.4590761361120384  0.8260814080111062  1.0000
  O   O10       1.0  0.8920865600033211  0.5408314021321984  0.17391634774993045  1.0000
  O   O11       1.0  0.25193006931247247  0.31853130977301447  0.7743853018867808  1.0000
  O   O12       1.0  0.34481465393993466  0.6814463273124645  0.2255888312492331  1.0000
  O   O13       1.0  0.12218430306217754  0.538089661341722  0.8770040561494097  1.0000
  O   O14       1.0  0.5373777448728846  0.4618554586673794  0.1229298559666177  1.0000
  O   O15       1.0  0.6219289648043331  0.40580223969950424  0.6228211658233817  1.0000
  O   O16       1.0  0.6503151004004478  0.594297107556379  0.3771214379784169  1.0000
  O   O17       1.0  0.69724826168126  0.11602432934016352  0.02984485684596901  1.0000
  O   O18       1.0  0.8429201916329278  0.8839859600890635  0.9702057530594246  1.0000
  O   O19       1.0  0.8894437207048116  0.23977596573060114  0.8963107625578174  1.0000
  O   O20       1.0  0.02525782151652573  0.7600661891470823  0.1037021680949692  1.0000
  O   O21       1.0  0.20189761123963024  0.4038870763603271  0.07213165007536303  1.0000
  O   O22       1.0  0.6778685065901301  0.5961533040111462  0.9277514525689412  1.0000
  O   O23       1.0  0.31992676697161215  0.21388457281504705  0.18091308357502103  1.0000
  O   O24       1.0  0.7143581997167491  0.7862039660368509  0.8189980823032955  1.0000
  O   O25       1.0  0.240653729822789  0.9509055410402425  0.3230893924106938  1.0000
  O   O26       1.0  0.5138231146727466  0.048942620090514304  0.6771101872508324  1.0000
  O   O27       1.0  0.8008094872116659  0.8203839276356603  0.2720697195608821  1.0000
  O   O28       1.0  0.8929756870110243  0.17971677031723488  0.7278796862920911  1.0000
  O   O29       1.0  0.5486341863461919  0.059615124968729616  0.3782189139753526  1.0000
  O   O30       1.0  0.9861488187693583  0.9405505172890329  0.6217859066809125  1.0000
  O   O31       1.0  0.4956880378716732  0.9077112664616038  0.12397942124420067  1.0000
  O   O32       1.0  0.527167132446856  0.09233565252161917  0.8760773304284084  1.0000
