data_image0
_chemical_formula_structural       Zn2H12C24N4O8F4
_chemical_formula_sum              "Zn2 H12 C24 N4 O8 F4"
_cell_length_a       7.857361975320541
_cell_length_b       7.857312234975192
_cell_length_c       11.183870198788766
_cell_angle_alpha    105.28733600451694
_cell_angle_beta     105.28784346233437
_cell_angle_gamma    104.54199740921356

_space_group_name_H-M_alt    "P 1"
_space_group_IT_number       1

loop_
  _space_group_symop_operation_xyz
  'x, y, z'

loop_
  _atom_site_type_symbol
  _atom_site_label
  _atom_site_symmetry_multiplicity
  _atom_site_fract_x
  _atom_site_fract_y
  _atom_site_fract_z
  _atom_site_occupancy
  Zn  Zn1       1.0  0.37248524561933755  0.8727219171386196  0.5000381840360004  1.0000
  Zn  Zn2       1.0  0.12272696188735212  0.12248606281195863  4.4631095178697294e-05  1.0000
  H   H1        1.0  0.563642262445093  0.6286627142288097  0.1634355254403559  1.0000
  H   H2        1.0  0.46536535941061163  0.40091357924995913  0.8362904913911036  1.0000
  H   H3        1.0  0.650917356927792  0.21537949454845773  0.3362884468821433  1.0000
  H   H4        1.0  0.878662095250064  0.31364026269523754  0.6634367900106922  1.0000
  H   H5        1.0  0.13167980467240176  0.6353867878386552  0.20750352437578098  1.0000
  H   H6        1.0  0.4282920576385507  0.9249661372650168  0.7926254741482167  1.0000
  H   H7        1.0  0.17497048992439804  0.17829829632776037  0.29263814021072676  1.0000
  H   H8        1.0  0.8853836701933772  0.8816789612780627  0.707504584718407  1.0000
  H   H9        1.0  0.025259112739369996  0.9171765221617676  0.5373190227497772  1.0000
  H   H10       1.0  0.3802892490239672  0.488606647870725  0.4627254035809898  1.0000
  H   H11       1.0  0.7386246007933154  0.1303003390869222  0.9627299424791074  1.0000
  H   H12       1.0  0.16718619385048333  0.7752603258446413  0.037318217387671396  1.0000
  C   C1        1.0  0.7792929938168387  0.7794714291594075  0.35894034051728596  1.0000
  C   C2        1.0  0.4208343655128104  0.4209688765919068  0.6409631281374286  1.0000
  C   C3        1.0  0.6709806900921294  0.17084603693691494  0.14096322893719557  1.0000
  C   C4        1.0  0.029475543536086963  0.5292937389090399  0.8589424929839422  1.0000
  C   C5        1.0  0.7119838019359154  0.6728771177203544  0.2238387391821917  1.0000
  C   C6        1.0  0.4491951018799867  0.48886710878088724  0.7759964539190845  1.0000
  C   C7        1.0  0.7388686683228868  0.19920610095708477  0.27599558714960176  1.0000
  C   C8        1.0  0.9228767919528666  0.46198156603940543  0.7238405376667741  1.0000
  C   C9        1.0  0.8428736603013078  0.6268072388905139  0.17125020078258751  1.0000
  C   C10       1.0  0.4558093312848045  0.6723635786556629  0.8287298204104941  1.0000
  C   C11       1.0  0.9223652698698148  0.20581607373396343  0.3287332981651118  1.0000
  C   C12       1.0  0.8768019508206352  0.5928746856153069  0.6712528458145072  1.0000
  C   C13       1.0  0.030405265791039065  0.676189432413409  0.2490890728384584  1.0000
  C   C14       1.0  0.4274506277407256  0.782042900284502  0.7510093438208614  1.0000
  C   C15       1.0  0.032050038834519526  0.1774570671060333  0.25101758063143353  1.0000
  C   C16       1.0  0.9261852050730471  0.7804065550455237  0.7490908264588326  1.0000
  C   C17       1.0  0.9695033589033174  0.8302192947687603  0.43266005614232467  1.0000
  C   C18       1.0  0.39798266818939254  0.5374800629961527  0.5673495344233572  1.0000
  C   C19       1.0  0.787490132446152  0.14799461874639522  0.06734896873107489  1.0000
  C   C20       1.0  0.08022533543574889  0.7195043674368121  0.9326630075825474  1.0000
  C   C21       1.0  0.6529524960739083  0.8391673153983634  0.4279816096465652  1.0000
  C   C22       1.0  0.41116453883649473  0.2252844194207242  0.5720255268361285  1.0000
  C   C23       1.0  0.4752939083766565  0.1611730570877725  0.07202306735143794  1.0000
  C   C24       1.0  0.08917433987702598  0.4029544731447957  0.9279833952281888  1.0000
  N   N1        1.0  0.09086540613940033  0.7774154334241105  0.3795624082020196  1.0000
  N   N2        1.0  0.39829045569045746  0.7119851187176639  0.6205697611290616  1.0000
  N   N3        1.0  0.9619982256198583  0.1482978713117191  0.12057758857050517  1.0000
  N   N4        1.0  0.02741981847374573  0.8408676103625012  0.8795640129390063  1.0000
  O   O1        1.0  0.4745254215432341  0.7614710942163825  0.3629797222761652  1.0000
  O   O2        1.0  0.39897667077693905  0.11224108310215539  0.6372106675992981  1.0000
  O   O3        1.0  0.3622545015032659  0.1489765867675601  0.137208781008276  1.0000
  O   O4        1.0  0.011478158118336503  0.2245268230221882  0.8629835565182019  1.0000
  O   O5        1.0  0.7233802250049237  0.9567170310544172  0.5441527042016147  1.0000
  O   O6        1.0  0.41185405186774204  0.17894878920771626  0.45574877822201637  1.0000
  O   O7        1.0  0.42895957963560977  0.1618727049225726  0.9557485990863697  1.0000
  O   O8        1.0  0.2067220640770771  0.4733785509142622  0.0441550598833871  1.0000
  F   F1        1.0  0.7876391037130762  0.5293447958835388  0.03943603856598801  1.0000
  F   F2        1.0  0.4901479627797799  0.7488021039341535  0.9605367662471024  1.0000
  F   F3        1.0  0.9987930500132693  0.24014859105619732  0.4605399865342577  1.0000
  F   F4        1.0  0.7793299323834546  0.5376376910474646  0.5394390140203738  1.0000
