data_image0
_chemical_formula_structural       Zn4H48C40S4N8Cl8
_chemical_formula_sum              "Zn4 H48 C40 S4 N8 Cl8"
_cell_length_a       10.136583322
_cell_length_b       10.314282528
_cell_length_c       12.0929
_cell_angle_alpha    90.0
_cell_angle_beta     90.0
_cell_angle_gamma    90.0

_space_group_name_H-M_alt    "P 1"
_space_group_IT_number       1

loop_
  _space_group_symop_operation_xyz
  'x, y, z'

loop_
  _atom_site_type_symbol
  _atom_site_label
  _atom_site_symmetry_multiplicity
  _atom_site_fract_x
  _atom_site_fract_y
  _atom_site_fract_z
  _atom_site_occupancy
  Zn  Zn1       1.0  0.1812040548232403  0.0033962614369827  0.27294114728476876  1.0000
  Zn  Zn2       1.0  0.3187957813148401  0.9966044629953713  0.7729411472847689  1.0000
  Zn  Zn3       1.0  0.6812038909613207  0.496604585543885  0.7270580257837267  1.0000
  Zn  Zn4       1.0  0.8187966039786261  0.5033951693590808  0.2270588527152313  1.0000
  H   H1        1.0  0.8848247693612735  0.0640868619029575  0.2878755302698295  1.0000
  H   H2        1.0  0.6151757255786734  0.9359128930000153  0.7878755302698295  1.0000
  H   H3        1.0  0.3848239466974874  0.4359130155485289  0.7121244697301707  1.0000
  H   H4        1.0  0.11517588944059298  0.5640877088838252  0.2121261235931797  1.0000
  H   H5        1.0  0.7778666390367377  0.0032789483813501995  0.629265105971271  1.0000
  H   H6        1.0  0.7221338559032091  0.9967208065216155  0.12926510597127114  1.0000
  H   H7        1.0  0.2778628567958421  0.4967189900113596  0.3707357209602336  1.0000
  H   H8        1.0  0.22213401976512873  0.503279795362225  0.870734894028729  1.0000
  H   H9        1.0  0.0167127319549891  0.9570408773662038  0.6686344880053597  1.0000
  H   H10       1.0  0.4832880907087969  0.0429598470661574  0.1686344880053596  1.0000
  H   H11       1.0  0.5167086219902544  0.5429577854588672  0.33136468506313593  1.0000
  H   H12       1.0  0.9832879268468772  0.45704099991471736  0.8313655119946404  1.0000
  H   H13       1.0  0.1772017200412677  0.9644519599880397  0.5122708366066037  1.0000
  H   H14       1.0  0.3227991026225183  0.0355477949149332  0.0122708366066036  1.0000
  H   H15       1.0  0.6771985966022314  0.5355486418958009  0.48772750953038724  1.0000
  H   H16       1.0  0.8227989387605987  0.4644520825365532  0.9877291633933966  1.0000
  H   H17       1.0  0.6589853590511439  0.0797670606526921  0.3376410951880828  1.0000
  H   H18       1.0  0.8410161224145085  0.9202326942502737  0.8376410951880829  1.0000
  H   H19       1.0  0.1589825633359467  0.4202328167987943  0.6623597317434218  1.0000
  H   H20       1.0  0.3410162862764281  0.5797679076335669  0.1623589048119172  1.0000
  H   H21       1.0  0.5769429219120852  0.148032594206633  0.6627905630576623  1.0000
  H   H22       1.0  0.9230575730278617  0.8519671606963399  0.16279056305766204  1.0000
  H   H23       1.0  0.0769430857740048  0.3519663137154652  0.3372086100108335  1.0000
  H   H24       1.0  0.4230567503640756  0.6480344107168889  0.837209436942338  1.0000
  H   H25       1.0  0.43451623294415503  0.1910477044477545  0.5885015174193101  1.0000
  H   H26       1.0  0.0654836031939254  0.8089520504552183  0.08850151741931  1.0000
  H   H27       1.0  0.9345160690822354  0.30895120347434357  0.41149848258069  1.0000
  H   H28       1.0  0.5654844258577114  0.6910485514286293  0.9114984825806901  1.0000
  H   H29       1.0  0.696965612137447  0.253625009097675  0.5179287019656158  1.0000
  H   H30       1.0  0.8030348828024928  0.7463747458052978  0.0179278750341112  1.0000
  H   H31       1.0  0.1969647894736681  0.24637583788319256  0.4820721249658888  1.0000
  H   H32       1.0  0.3030350466644123  0.7536248865491615  0.9820721249658889  1.0000
  H   H33       1.0  0.5581357958870612  0.2481859492456948  0.4276906283852497  1.0000
  H   H34       1.0  0.9418646990528855  0.751813805657271  0.9276898014537454  1.0000
  H   H35       1.0  0.0581349732232752  0.2518129586764033  0.5723093716147503  1.0000
  H   H36       1.0  0.44186486291480515  0.7481867962265696  0.07231019854625491  1.0000
  H   H37       1.0  0.4854515415781222  0.8084934630559317  0.39517154694076595  1.0000
  H   H38       1.0  0.0145492810856638  0.1915062918470412  0.8951715469407662  1.0000
  H   H39       1.0  0.9854503911904972  0.6915061692985276  0.6048284530592342  1.0000
  H   H40       1.0  0.5145501037494427  0.3084935856044453  0.1048284530592341  1.0000
  H   H41       1.0  0.6242083549264024  0.7690578553056254  0.4811418270224693  1.0000
  H   H42       1.0  0.87579312653925  0.2309428691267286  0.9811426539539739  1.0000
  H   H43       1.0  0.12420654573691078  0.7309417770488266  0.5188573460460263  1.0000
  H   H44       1.0  0.3757932904011696  0.2690579778541462  0.0188573460460262  1.0000
  H   H45       1.0  0.6490727487752608  0.837662724144451  0.3468059770609173  1.0000
  H   H46       1.0  0.850927746164686  0.16233703075852188  0.8468068039924219  1.0000
  H   H47       1.0  0.1490729126371804  0.6623369082100083  0.6531931960075781  1.0000
  H   H48       1.0  0.3509279100266056  0.3376638162223529  0.15319319600757814  1.0000
  C   C1        1.0  0.9085438068675487  0.0377185712087922  0.3730188788462669  1.0000
  C   C2        1.0  0.5914576745980966  0.9622821532235619  0.8730188788462672  1.0000
  C   C3        1.0  0.4085419976780642  0.4622813062426872  0.6269811211537331  1.0000
  C   C4        1.0  0.0914568519343177  0.5377174791308974  0.1269811211537331  1.0000
  C   C5        1.0  0.8117824062217096  0.0372085987520876  0.4549835027164733  1.0000
  C   C6        1.0  0.6882190752439428  0.9627911561508852  0.9549835027164733  1.0000
  C   C7        1.0  0.3117805970322181  0.4627903091700176  0.5450173242150385  1.0000
  C   C8        1.0  0.1882152930030472  0.5372094457329553  0.0450189780780477  1.0000
  C   C9        1.0  0.8507008452527173  0.0068914148712764  0.5630419502352596  1.0000
  C   C10       1.0  0.6492996496872294  0.9931093095610776  0.06304195023525952  1.0000
  C   C11       1.0  0.3506980495375274  0.4931065235214405  0.4369588766962452  1.0000
  C   C12       1.0  0.149299813549149  0.5068912923227629  0.9369588766962451  1.0000
  C   C13       1.0  0.9825371807859753  0.9807720481321311  0.5855468911510044  1.0000
  C   C14       1.0  0.5174633141539715  0.0192277067708417  0.0855460642194998  1.0000
  C   C15       1.0  0.48253339854507965  0.5192266146929398  0.4144531088489956  1.0000
  C   C16       1.0  0.0174624914901855  0.4807721706806447  0.9144539357805003  1.0000
  C   C17       1.0  0.0725737634300714  0.9837349299338455  0.4987686989886626  1.0000
  C   C18       1.0  0.42742705923371466  0.0162648249691202  0.9987686989886627  1.0000
  C   C19       1.0  0.5725706399910351  0.5162647024206066  0.5012296471483282  1.0000
  C   C20       1.0  0.9274268953717949  0.48373505248236626  0.0012304740798328002  1.0000
  C   C21       1.0  0.6700610831322891  0.0705817392556085  0.42762778159085013  1.0000
  C   C22       1.0  0.8299394118076578  0.9294180156473572  0.92762778159085  1.0000
  C   C23       1.0  0.1700602604685031  0.4294171686664896  0.5723730453406547  1.0000
  C   C24       1.0  0.3299395756695773  0.5705825862364833  0.07237221840915001  1.0000
  C   C25       1.0  0.5070061416893665  0.0010054019726411  0.5523282256530706  1.0000
  C   C26       1.0  0.9929943532505803  0.9989943529303317  0.052328225653070604  1.0000
  C   C27       1.0  0.007006305551286099  0.49899447547884523  0.4476717743469295  1.0000
  C   C28       1.0  0.4929945171125  0.5010062489535088  0.9476717743469296  1.0000
  C   C29       1.0  0.5295235908879192  0.1407650019338291  0.5809632098173338  1.0000
  C   C30       1.0  0.9704769040520276  0.8592347529691438  0.08096320981733382  1.0000
  C   C31       1.0  0.0295237547498388  0.35923487551765726  0.4190367901826662  1.0000
  C   C32       1.0  0.4704770679139472  0.6407658489147039  0.9190367901826662  1.0000
  C   C33       1.0  0.6169051051381444  0.1924418877039287  0.48675586501170204  1.0000
  C   C34       1.0  0.8830953898017952  0.807557867199037  0.9867558650117021  1.0000
  C   C35       1.0  0.11690625552576961  0.3075560506887811  0.5132424811252889  1.0000
  C   C36       1.0  0.3830955536637148  0.6924427346848034  0.0132433080567935  1.0000
  C   C37       1.0  0.5854122450827148  0.8378052449641018  0.4198546254413742  1.0000
  C   C38       1.0  0.9145882498572321  0.1621945099388711  0.919855452372879  1.0000
  C   C39       1.0  0.0854114224189289  0.6621943873903575  0.5801453745586259  1.0000
  C   C40       1.0  0.41458841371915167  0.3378053675126154  0.0801445476271212  1.0000
  S   S1        1.0  0.40514834925558324  0.8946681434165953  0.6158010072025704  1.0000
  S   S2        1.0  0.0948514868824972  0.1053325810157588  0.11580100720257042  1.0000
  S   S3        1.0  0.9051481853936635  0.6053324584672453  0.3841981658659179  1.0000
  S   S4        1.0  0.5948513230205776  0.3946682659651088  0.8841973389344133  1.0000
  N   N1        1.0  0.0360279187176786  0.011116623932757398  0.3943760388327036  1.0000
  N   N2        1.0  0.4639729039461074  0.9888841004995967  0.8943752119011992  1.0000
  N   N3        1.0  0.5360267683300535  0.48888422304811024  0.6056239611672966  1.0000
  N   N4        1.0  0.9639707670327766  0.5111165013842438  0.10562561503030572  1.0000
  N   N5        1.0  0.5814838997285534  0.9670231519180631  0.4672841088572639  1.0000
  N   N6        1.0  0.9185165952113934  0.0329775725142909  0.9672841088572641  1.0000
  N   N7        1.0  0.0814830770647745  0.532976480436389  0.5327158911427361  1.0000
  N   N8        1.0  0.4185167590733059  0.4670232744665839  0.0327150642112315  1.0000
  Cl  Cl1       1.0  0.3373868582106425  0.1488227606557189  0.32359400970817387  1.0000
  Cl  Cl2       1.0  0.1626139644531435  0.8511779637766352  0.8235948366396784  1.0000
  Cl  Cl3       1.0  0.8373866943487229  0.3511780863251559  0.6764051633603217  1.0000
  Cl  Cl4       1.0  0.6626138005912239  0.648821668577817  0.1764059902918262  1.0000
  Cl  Cl5       1.0  0.24974194159739233  0.796779609021776  0.2763315664563493  1.0000
  Cl  Cl6       1.0  0.2502588810663937  0.20322111541057808  0.7763315664563493  1.0000
  Cl  Cl7       1.0  0.7497417777354727  0.7032209928620645  0.7236684335436508  1.0000
  Cl  Cl8       1.0  0.7502587172044741  0.2967797315702896  0.22366843354365074  1.0000
