data_image0
_chemical_formula_structural       Cu2H12C16N12O6
_chemical_formula_sum              "Cu2 H12 C16 N12 O6"
_cell_length_a       7.230673010083575
_cell_length_b       7.06169007268287
_cell_length_c       11.484563444618018
_cell_angle_alpha    78.35871301009365
_cell_angle_beta     80.56055891375686
_cell_angle_gamma    76.37495598797352

_space_group_name_H-M_alt    "P 1"
_space_group_IT_number       1

loop_
  _space_group_symop_operation_xyz
  'x, y, z'

loop_
  _atom_site_type_symbol
  _atom_site_label
  _atom_site_symmetry_multiplicity
  _atom_site_fract_x
  _atom_site_fract_y
  _atom_site_fract_z
  _atom_site_occupancy
  Cu  Cu1       1.0  0.077773441537488  0.012821429202098496  0.7562411013404283  1.0000
  Cu  Cu2       1.0  0.9222279722240219  0.9871607331049574  0.24376420829212717  1.0000
  H   H1        1.0  0.8756010946143817  0.6177776190920954  0.08602903125708383  1.0000
  H   H2        1.0  0.12439426281846977  0.3822250814330133  0.9139672669987247  1.0000
  H   H3        1.0  0.7544668466023693  0.46813882868590184  0.19885788257690246  1.0000
  H   H4        1.0  0.2455267249056874  0.5318593782305144  0.8011400534320854  1.0000
  H   H5        1.0  0.3019610436187605  0.33273175710028374  0.4084432618452211  1.0000
  H   H6        1.0  0.6980439899184245  0.6672653567773353  0.5915588635870391  1.0000
  H   H7        1.0  0.4281941275981466  0.4252828112757853  0.2719522170567217  1.0000
  H   H8        1.0  0.5718223935386105  0.5747131206482976  0.7280488820508422  1.0000
  H   H9        1.0  0.957899685653828  0.3909995842503946  0.7732625922263593  1.0000
  H   H10       1.0  0.04210747352738752  0.6090005302887324  0.22673718366314682  1.0000
  H   H11       1.0  0.795228307507067  0.32472638295850936  0.8693310380300403  1.0000
  H   H12       1.0  0.20477709131978364  0.6752691490571934  0.13066515986467658  1.0000
  C   C1        1.0  0.7528527918489302  0.8204734655463498  0.8941054549451833  1.0000
  C   C2        1.0  0.24714082332345544  0.1795307205423669  0.10589344166116627  1.0000
  C   C3        1.0  0.5853249923720582  0.7785446794247974  0.9607870495831604  1.0000
  C   C4        1.0  0.4146739635277754  0.22147304676648363  0.03921041092898037  1.0000
  C   C5        1.0  0.4135423555782579  0.8501204097745402  0.9112131332462992  1.0000
  C   C6        1.0  0.5864627993815148  0.1498885438947042  0.08878395905007606  1.0000
  C   C7        1.0  0.5876450731237527  0.6413785583541909  0.0754970774409287  1.0000
  C   C8        1.0  0.41234956120631955  0.3586211488929863  0.9244996837966822  1.0000
  C   C9        1.0  0.41534971489152644  0.18003639995718146  0.6039909305897736  1.0000
  C   C10       1.0  0.5846435573468439  0.8199754212613614  0.39601920060812285  1.0000
  C   C11       1.0  0.5859333752917165  0.20608655063749381  0.5344084541513822  1.0000
  C   C12       1.0  0.4140542804260716  0.7939130011388472  0.4655907855604084  1.0000
  C   C13       1.0  0.7532363064577366  0.1595596278194478  0.5889751611203164  1.0000
  C   C14       1.0  0.24676040985202255  0.8404371009169298  0.4110182899771785  1.0000
  C   C15       1.0  0.5941045217668871  0.29156146006901207  0.406276059918106  1.0000
  C   C16       1.0  0.4058942999251514  0.7084444707880025  0.5937290416039004  1.0000
  N   N1        1.0  0.8995530675301067  0.8410394323485876  0.8366675434517102  1.0000
  N   N2        1.0  0.10045224927675629  0.15895025386691947  0.16333551746757985  1.0000
  N   N3        1.0  0.2688510070534278  0.9132538328851184  0.8703502814439897  1.0000
  N   N4        1.0  0.7311574673403529  0.0867343306929769  0.12964568668982676  1.0000
  N   N5        1.0  0.7550980479275252  0.5614569961620149  0.11688159810166346  1.0000
  N   N6        1.0  0.24489695700088276  0.43854724176763693  0.8831180198177149  1.0000
  N   N7        1.0  0.2652554847927604  0.16955190736985773  0.6599640203373554  1.0000
  N   N8        1.0  0.7347556562390024  0.8304677190605505  0.3400371666162626  1.0000
  N   N9        1.0  0.8909478162334351  0.12300654393408911  0.637453127928296  1.0000
  N   N10       1.0  0.1090386115754071  0.8769736885475725  0.3625513590933807  1.0000
  N   N11       1.0  0.4285919669601981  0.34032205914084585  0.3565358289191351  1.0000
  N   N12       1.0  0.5714124350646158  0.6596840049843138  0.6434678113983237  1.0000
  O   O1        1.0  0.43292676842110456  0.5966418968891393  0.13108142517578603  1.0000
  O   O2        1.0  0.5670696039076901  0.40335633961354495  0.8689136070026107  1.0000
  O   O3        1.0  0.7517657316666869  0.31462283884850717  0.3466386198056171  1.0000
  O   O4        1.0  0.24823687164811042  0.6853787761253259  0.6533692661389947  1.0000
  O   O5        1.0  0.9379936121489436  0.29991036166930485  0.8478372220561565  1.0000
  O   O6        1.0  0.06201144269693501  0.7000866781127045  0.152160556919469  1.0000
