data_image0
_chemical_formula_structural       Mn4H40C20O24
_chemical_formula_sum              "Mn4 H40 C20 O24"
_cell_length_a       7.583062942083418
_cell_length_b       9.091918131163206
_cell_length_c       12.154222715042549
_cell_angle_alpha    90.00017048253041
_cell_angle_beta     89.9997425930194
_cell_angle_gamma    85.90170886700933

_space_group_name_H-M_alt    "P 1"
_space_group_IT_number       1

loop_
  _space_group_symop_operation_xyz
  'x, y, z'

loop_
  _atom_site_type_symbol
  _atom_site_label
  _atom_site_symmetry_multiplicity
  _atom_site_fract_x
  _atom_site_fract_y
  _atom_site_fract_z
  _atom_site_occupancy
  Mn  Mn1       1.0  0.057070360975267  0.2790621805690491  0.06472259967527799  1.0000
  Mn  Mn2       1.0  0.4429229568383093  0.7209351294501473  0.5647183130406715  1.0000
  Mn  Mn3       1.0  0.9429317662975477  0.7209368318248436  0.935272736920609  1.0000
  Mn  Mn4       1.0  0.557064462437566  0.2790687621517307  0.43528278289787886  1.0000
  H   H1        1.0  0.08309477068963389  0.6608922084673594  0.32532625715824537  1.0000
  H   H2        1.0  0.4169211426631064  0.33912192282532055  0.8253335066826819  1.0000
  H   H3        1.0  0.9169111913825747  0.3391099808770689  0.6746773070288229  1.0000
  H   H4        1.0  0.5830949162229901  0.6608920439358668  0.17467252578099138  1.0000
  H   H5        1.0  0.8618522522766342  0.6210764170125029  0.3188482959719039  1.0000
  H   H6        1.0  0.638154188507869  0.3789250761194154  0.8188581090489109  1.0000
  H   H7        1.0  0.1381448913021046  0.37891505386661334  0.6811404585481071  1.0000
  H   H8        1.0  0.36185173041752705  0.6210782150988549  0.1811503916954038  1.0000
  H   H9        1.0  0.7810598400882611  0.8528533358213648  0.21659121879056184  1.0000
  H   H10       1.0  0.7189459245115019  0.14714996911038009  0.7166010796313457  1.0000
  H   H11       1.0  0.2189518389649123  0.14713766330666536  0.7833934219107732  1.0000
  H   H12       1.0  0.2810667739311796  0.8528487002418998  0.2834148259314516  1.0000
  H   H13       1.0  0.002919159822511105  0.8959955956990056  0.21143454338107395  1.0000
  H   H14       1.0  0.49707263405801416  0.10401445867790218  0.711439366560185  1.0000
  H   H15       1.0  0.9970778543363893  0.10399918078940118  0.7885632614954545  1.0000
  H   H16       1.0  0.5029240350264315  0.895989132741789  0.28856995695749527  1.0000
  H   H17       1.0  0.8339032310802423  0.8242709400450748  0.4323630298317623  1.0000
  H   H18       1.0  0.666089269892467  0.1757292609028056  0.9323747588436714  1.0000
  H   H19       1.0  0.1660699115697071  0.17572681208405067  0.5676216109344736  1.0000
  H   H20       1.0  0.3339062071387104  0.8242710678335  0.06764443778382659  1.0000
  H   H21       1.0  0.0213131174521877  0.9219157986171352  0.41046331630076327  1.0000
  H   H22       1.0  0.4786972894301159  0.07808894946212058  0.9104697795742424  1.0000
  H   H23       1.0  0.9786730666942277  0.0780859321332059  0.5895328430812085  1.0000
  H   H24       1.0  0.521303343867679  0.9219145133023258  0.08954036669673826  1.0000
  H   H25       1.0  0.8046629261688949  0.15068475455489505  0.18611536736975146  1.0000
  H   H26       1.0  0.695327285845508  0.8493167316798063  0.6861203386712089  1.0000
  H   H27       1.0  0.19532862988108957  0.8493146009120878  0.8138742099269648  1.0000
  H   H28       1.0  0.3046665679320597  0.15069135295237854  0.31388322554060716  1.0000
  H   H29       1.0  0.8161113395378905  0.07001763451243187  0.0671319183346597  1.0000
  H   H30       1.0  0.6838854405175282  0.9299721556108409  0.567137109943104  1.0000
  H   H31       1.0  0.18389368932955114  0.929974680924772  0.9328609499712357  1.0000
  H   H32       1.0  0.3161114011188602  0.07002702833446506  0.4328623404574045  1.0000
  H   H33       1.0  0.3889396025893745  0.4026273106977384  0.07235498893611948  1.0000
  H   H34       1.0  0.11105643279650221  0.5973666404313819  0.5723588050044626  1.0000
  H   H35       1.0  0.6110534042181968  0.5973686963145183  0.9276444614664  1.0000
  H   H36       1.0  0.888943310399199  0.4026258465782391  0.42764805021788277  1.0000
  H   H37       1.0  0.2320599937603802  0.5131122965627668  0.033574588541640096  1.0000
  H   H38       1.0  0.2679389186836758  0.4868825057776645  0.53358755753613  1.0000
  H   H39       1.0  0.7679396200978772  0.4868834960071594  0.9664182797762917  1.0000
  H   H40       1.0  0.732060738241941  0.5131121849656494  0.46642258872616066  1.0000
  C   C1        1.0  0.005147702239369801  0.5843709357584926  0.1713008032222163  1.0000
  C   C2        1.0  0.49487024619940473  0.4156524144509035  0.6712948344540378  1.0000
  C   C3        1.0  0.9948730109206779  0.41562527253734766  0.8287076974919926  1.0000
  C   C4        1.0  0.5051405702382681  0.5843606219633627  0.3286988566265379  1.0000
  C   C5        1.0  0.9637673857849479  0.6753834839229781  0.27313405445418937  1.0000
  C   C6        1.0  0.5362426130259054  0.32463641784710257  0.7731448668136592  1.0000
  C   C7        1.0  0.03623907825931381  0.324639597927188  0.7268637504410407  1.0000
  C   C8        1.0  0.4637683758518775  0.6753722111592423  0.22687021600385998  1.0000
  C   C9        1.0  0.9074302506404166  0.8392287131920283  0.2608283161022271  1.0000
  C   C10       1.0  0.5925742642426499  0.16076490597645687  0.7608468104777725  1.0000
  C   C11       1.0  0.09256830063149121  0.16076051105723366  0.7391522108199167  1.0000
  C   C12       1.0  0.4074227498603378  0.8392298705451824  0.23916662682581347  1.0000
  C   C13       1.0  0.8892568631235704  0.9044786962469472  0.376695967748418  1.0000
  C   C14       1.0  0.610750787142223  0.0955152869474816  0.8767126119690332  1.0000
  C   C15       1.0  0.1107389159588408  0.09551391935844578  0.6232820909037924  1.0000
  C   C16       1.0  0.38925266145362514  0.9044836826097225  0.1233057618857742  1.0000
  C   C17       1.0  0.7785562505375622  0.04711936104160939  0.3915739206903481  1.0000
  C   C18       1.0  0.721419191485019  0.9528856313968391  0.8915691808644084  1.0000
  C   C19       1.0  0.22141650391760953  0.9528883078769111  0.6084197704404274  1.0000
  C   C20       1.0  0.2785629421514813  0.0471184317582001  0.10843685163808196  1.0000
  O   O1        1.0  0.9888432554641327  0.4469363692698778  0.17918039847586437  1.0000
  O   O2        1.0  0.5111863620220093  0.5530373990677473  0.679183585361855  1.0000
  O   O3        1.0  0.011188719047055396  0.5530418661025394  0.8208165835704334  1.0000
  O   O4        1.0  0.4888346961801204  0.4469499943160499  0.3208224470637048  1.0000
  O   O5        1.0  0.06453321161205137  0.6462031902303663  0.08448240061045448  1.0000
  O   O6        1.0  0.43548412262353514  0.3538176300307397  0.5845036159898029  1.0000
  O   O7        1.0  0.935491967795201  0.35381378187921797  0.9155038856195216  1.0000
  O   O8        1.0  0.564531979353454  0.6461952348898378  0.4155131123436745  1.0000
  O   O9        1.0  0.7469990000213969  0.14038424411782557  0.31480487145721264  1.0000
  O   O10       1.0  0.7529996275159476  0.8596152854062848  0.8148138094703438  1.0000
  O   O11       1.0  0.2529861215651578  0.8596109182961057  0.6851715416950909  1.0000
  O   O12       1.0  0.24699205784794026  0.1403807645143829  0.18519633680532613  1.0000
  O   O13       1.0  0.7130839450096077  0.07578651319928302  0.4879454953326742  1.0000
  O   O14       1.0  0.7869157848954841  0.9242213798208067  0.9879561276462422  1.0000
  O   O15       1.0  0.286903517466051  0.9242162764972549  0.5120358543808905  1.0000
  O   O16       1.0  0.2130850640451527  0.0757765736286302  0.012054841377370496  1.0000
  O   O17       1.0  0.8338390175967945  0.1645939552693179  0.1064936299071135  1.0000
  O   O18       1.0  0.6661488192899441  0.8354149912007925  0.6064912507014881  1.0000
  O   O19       1.0  0.1661589298227852  0.8354106950930742  0.8934992384235227  1.0000
  O   O20       1.0  0.3338424348088651  0.16459207733762327  0.3935114907536885  1.0000
  O   O21       1.0  0.29435595331370473  0.4151784691740943  0.018002017465022398  1.0000
  O   O22       1.0  0.2056443488274624  0.5848173259122121  0.5180079925289006  1.0000
  O   O23       1.0  0.7056448094245269  0.5848216879688123  0.9819933191342115  1.0000
  O   O24       1.0  0.7943487442266531  0.4151764773803421  0.4819947489082279  1.0000
