data_image0
_chemical_formula_structural       Co2H24C28O12F4
_chemical_formula_sum              "Co2 H24 C28 O12 F4"
_cell_length_a       6.511935009997876
_cell_length_b       7.236890635987209
_cell_length_c       16.103770100423798
_cell_angle_alpha    110.0284765012882
_cell_angle_beta     89.99824453822666
_cell_angle_gamma    90.0031573956586

_space_group_name_H-M_alt    "P 1"
_space_group_IT_number       1

loop_
  _space_group_symop_operation_xyz
  'x, y, z'

loop_
  _atom_site_type_symbol
  _atom_site_label
  _atom_site_symmetry_multiplicity
  _atom_site_fract_x
  _atom_site_fract_y
  _atom_site_fract_z
  _atom_site_occupancy
  Co  Co1       1.0  3.0773130034999917e-06  0.5000014269543626  0.5000007968271304  1.0000
  Co  Co2       1.0  0.49999828992200424  1.546414708267009e-06  0.4999997912514969  1.0000
  H   H1        1.0  0.6314447040688266  0.6438852608496288  0.5658605763939021  1.0000
  H   H2        1.0  0.13144125380866709  0.8560871871335182  0.4341575663872419  1.0000
  H   H3        1.0  0.3685530047342738  0.35611024159600657  0.43413298158868935  1.0000
  H   H4        1.0  0.8685503134580446  0.14391671957757518  0.5658438964388919  1.0000
  H   H5        1.0  0.6474795604754463  0.4090072662465757  0.5262391458291446  1.0000
  H   H6        1.0  0.14749250166059366  0.09095012692488774  0.47375632776060417  1.0000
  H   H7        1.0  0.3525242911209999  0.59098715653397  0.4737567652225678  1.0000
  H   H8        1.0  0.8525021367504524  0.9090535858997767  0.5262438658893345  1.0000
  H   H9        1.0  0.6706922680384438  0.9711233253268219  0.6804297314164456  1.0000
  H   H10       1.0  0.17067727426923804  0.528864075036317  0.31958486766517774  1.0000
  H   H11       1.0  0.32931311947375247  0.028860326592493386  0.3195710455526211  1.0000
  H   H12       1.0  0.8293204356563139  0.4711497168020387  0.6804153513585829  1.0000
  H   H13       1.0  0.7841370177319575  0.13183323465447214  0.8370737690503487  1.0000
  H   H14       1.0  0.28411326687368194  0.36817942215950683  0.16293802844897695  1.0000
  H   H15       1.0  0.21587604774195063  0.8681417089545177  0.16292653263185025  1.0000
  H   H16       1.0  0.7158921216240158  0.6318279045905939  0.837066976580864  1.0000
  H   H17       1.0  0.19544651333494303  0.01126399027054244  0.9287005173925207  1.0000
  H   H18       1.0  0.6954494199873196  0.4887365888369856  0.0713050352067697  1.0000
  H   H19       1.0  0.8045527318983619  0.9887423668388066  0.0712981423645616  1.0000
  H   H20       1.0  0.3045528968253066  0.5112687855355772  0.9286966122509739  1.0000
  H   H21       1.0  0.08052280627937589  0.8489761005114855  0.7711301730499684  1.0000
  H   H22       1.0  0.5805454892341685  0.6510441060719783  0.22888019023984899  1.0000
  H   H23       1.0  0.9194795101486976  0.15102595091429544  0.22886856635772546  1.0000
  H   H24       1.0  0.41945068501100735  0.3489612682409771  0.7711214573916718  1.0000
  C   C1        1.0  0.29753673049839335  0.8000624153019725  0.6235592164451018  1.0000
  C   C2        1.0  0.7975054911934125  0.699954360687208  0.37644537446242765  1.0000
  C   C3        1.0  0.7024625145570127  0.19993533038064015  0.3764396027869806  1.0000
  C   C4        1.0  0.20249221850135507  0.3000493521672638  0.6235548191006258  1.0000
  C   C5        1.0  0.3677506705219571  0.8988160474519588  0.7160365906471353  1.0000
  C   C6        1.0  0.8677597841742396  0.601165376330833  0.28397806943063125  1.0000
  C   C7        1.0  0.6322547171730335  0.10118737460267367  0.2839616990647328  1.0000
  C   C8        1.0  0.1322333185949418  0.3988383364789313  0.7160221242627498  1.0000
  C   C9        1.0  0.5671559370191801  0.9766276179098838  0.7343216304540334  1.0000
  C   C10       1.0  0.0671307629181115  0.523353978384577  0.2656834130803389  1.0000
  C   C11       1.0  0.4328371657811871  0.023367774347491394  0.2656806263483205  1.0000
  C   C12       1.0  0.9328669468824202  0.47665266958421154  0.7343171503541439  1.0000
  C   C13       1.0  0.6314158476653731  0.06758656195602696  0.8213904066044859  1.0000
  C   C14       1.0  0.1314121621293864  0.4324124703299218  0.17862619869006827  1.0000
  C   C15       1.0  0.3685972181475279  0.9324069751054508  0.178609126518765  1.0000
  C   C16       1.0  0.868588618935604  0.567589968913424  0.8213750789396881  1.0000
  C   C17       1.0  0.49354259082987534  0.07832173781661564  0.8888526548940944  1.0000
  C   C18       1.0  0.9935064069022702  0.4216787297171862  0.11115395901106948  1.0000
  C   C19       1.0  0.5064551190018349  0.9216765895997836  0.11114997164935396  1.0000
  C   C20       1.0  0.0064928384679845  0.5783222419540905  0.8888471337264079  1.0000
  C   C21       1.0  0.2961631306312853  0.0003932162954711552  0.8733626211949994  1.0000
  C   C22       1.0  0.796169089898676  0.4996046945764759  0.12665407525926037  1.0000
  C   C23       1.0  0.7038437927080067  0.9996157851283555  0.1266345045823343  1.0000
  C   C24       1.0  0.20383322684424604  0.500400582837976  0.8733469376538279  1.0000
  C   C25       1.0  0.2339195398863794  0.9112758805447143  0.7861101436697311  1.0000
  C   C26       1.0  0.7339085727398071  0.5887164841132912  0.21388765760650585  1.0000
  C   C27       1.0  0.7660781697747583  0.08873057350784558  0.21388915067544184  1.0000
  C   C28       1.0  0.2660860657938144  0.411288793226646  0.7861133555238097  1.0000
  O   O1        1.0  0.11897835938662382  0.7277837813716558  0.6093338517952701  1.0000
  O   O2        1.0  0.6190240568904032  0.7722485375851702  0.3906639430691  1.0000
  O   O3        1.0  0.8810239566880966  0.27220662655496847  0.39066404267134647  1.0000
  O   O4        1.0  0.38097672426354734  0.22775820737153643  0.6093372548231527  1.0000
  O   O5        1.0  0.7226343274596586  0.5309855953563128  0.5623036155559475  1.0000
  O   O6        1.0  0.22262138479515411  0.9689903101739004  0.43769215546537754  1.0000
  O   O7        1.0  0.2773664527665574  0.4690101010353586  0.4376912114290547  1.0000
  O   O8        1.0  0.7773717180605361  0.031012128994930777  0.5623091223815918  1.0000
  O   O9        1.0  0.42745716642497206  0.7851267247141389  0.559512797625352  1.0000
  O   O10       1.0  0.9274479080511141  0.7148679859550454  0.440502502393059  1.0000
  O   O11       1.0  0.5725436140103283  0.214869262551872  0.44048393299361516  1.0000
  O   O12       1.0  0.0725482661051089  0.28513308264454196  0.5594992249759585  1.0000
  F   F1        1.0  0.5542531067733593  0.17182344779526906  0.974247941964954  1.0000
  F   F2        1.0  0.05422600253259449  0.32816382698555907  0.0257624021403942  1.0000
  F   F3        1.0  0.4457568875947331  0.8281601072106425  0.025752200329129872  1.0000
  F   F4        1.0  0.9457747784602688  0.6718329359453745  0.9742394048358064  1.0000
