data_image0
_chemical_formula_structural       UH12C16O12
_chemical_formula_sum              "U1 H12 C16 O12"
_cell_length_a       5.476446022790974
_cell_length_b       6.6939726119346075
_cell_length_c       13.568822267194596
_cell_angle_alpha    84.25281216569373
_cell_angle_beta     84.42116014425089
_cell_angle_gamma    114.49352512543436

_space_group_name_H-M_alt    "P 1"
_space_group_IT_number       1

loop_
  _space_group_symop_operation_xyz
  'x, y, z'

loop_
  _atom_site_type_symbol
  _atom_site_label
  _atom_site_symmetry_multiplicity
  _atom_site_fract_x
  _atom_site_fract_y
  _atom_site_fract_z
  _atom_site_occupancy
  U   U1        1.0  0.5000214010799626  0.5000060285439006  0.4999983489296866  1.0000
  H   H1        1.0  0.9163060959801826  0.8262448719702107  0.2594184344852549  1.0000
  H   H2        1.0  0.08370705821602085  0.17378006647595604  0.7405843272738722  1.0000
  H   H3        1.0  0.11705752881126588  0.7555846942017228  0.4616009155356621  1.0000
  H   H4        1.0  0.8829578466249188  0.24442776440811545  0.5383969688757447  1.0000
  H   H5        1.0  0.009542721439736042  0.8414246668507203  0.5540605387970815  1.0000
  H   H6        1.0  0.990473906501066  0.15859072635547725  0.44593815586218716  1.0000
  H   H7        1.0  0.8521028385169843  0.0806067146001084  0.038099772974497605  1.0000
  H   H8        1.0  0.14785484224279336  0.9193650620039762  0.9618986881257642  1.0000
  H   H9        1.0  0.6811142115728046  0.276354102236958  0.9224280277434219  1.0000
  H   H10       1.0  0.31878955621333205  0.7235887569800994  0.07758179713653128  1.0000
  H   H11       1.0  0.470905406336911  0.5762540832523086  0.1652648630733538  1.0000
  H   H12       1.0  0.529096079594396  0.4237483007139604  0.8347329716163827  1.0000
  C   C1        1.0  0.657755514803455  0.36072579283297307  0.20081157894793478  1.0000
  C   C2        1.0  0.34224407462416195  0.6392678476242465  0.7991837978506169  1.0000
  C   C3        1.0  0.763286641592515  0.21664647137057366  0.166776023400395  1.0000
  C   C4        1.0  0.2367141431275782  0.7833536243022365  0.8332195041855783  1.0000
  C   C5        1.0  0.7689428475588473  0.19029742060160973  0.0655950581421934  1.0000
  C   C6        1.0  0.23101734862420642  0.8096622989475649  0.9344090691838998  1.0000
  C   C7        1.0  0.6694523442252845  0.3014821463016517  0.00042843522171409924  1.0000
  C   C8        1.0  0.3304927397894701  0.6984703860369379  0.9995802528278689  1.0000
  C   C9        1.0  0.5562510360652126  0.44183598362936044  0.0339796963463783  1.0000
  C   C10       1.0  0.44372210260601  0.5581370211478216  0.9660283427186088  1.0000
  C   C11       1.0  0.5545427307071051  0.46901862175478476  0.13540230983653603  1.0000
  C   C12       1.0  0.44546088057647626  0.5309784232435958  0.86460062058611  1.0000
  C   C13       1.0  0.6358760135947463  0.3972880497211691  0.3078921551691066  1.0000
  C   C14       1.0  0.3641473628278715  0.6027281575113647  0.6921011881417273  1.0000
  C   C15       1.0  0.8527928595226019  0.09158416607505875  0.2405147999422113  1.0000
  C   C16       1.0  0.14721757688210588  0.9084339206073793  0.7594848135553462  1.0000
  O   O1        1.0  0.38372558292851966  0.6856427955028079  0.433388239511345  1.0000
  O   O2        1.0  0.6162924232458168  0.3143742134606384  0.56660671300817  1.0000
  O   O3        1.0  0.4287885618429145  0.26480158848620056  0.36969363155690615  1.0000
  O   O4        1.0  0.5712495608659012  0.7352314848735872  0.6303029368847889  1.0000
  O   O5        1.0  0.8073181222371275  0.5745405906545072  0.3349400147892326  1.0000
  O   O6        1.0  0.19270601260885198  0.4254743842522473  0.6650562950857904  1.0000
  O   O7        1.0  0.8633871827619332  0.1281893000170058  0.32727279675455634  1.0000
  O   O8        1.0  0.1366466415536464  0.8718163970031937  0.6727268835295773  1.0000
  O   O9        1.0  0.9103709439196166  0.9348645572157038  0.2037989836524616  1.0000
  O   O10       1.0  0.08964825754718928  0.06515890696334024  0.7961961196544821  1.0000
  O   O11       1.0  0.9616891495465367  0.7805680123448936  0.491596709508265  1.0000
  O   O12       1.0  0.03832955783900625  0.21945128491201168  0.508400550115013  1.0000
