data_image0
_chemical_formula_structural       Hf6H64C84O32
_chemical_formula_sum              "Hf6 H64 C84 O32"
_cell_length_a       18.131493604364735
_cell_length_b       20.383353608326818
_cell_length_c       20.38857843350856
_cell_angle_alpha    66.97290488756782
_cell_angle_beta     87.38245662771928
_cell_angle_gamma    87.40582704912293

_space_group_name_H-M_alt    "P 1"
_space_group_IT_number       1

loop_
  _space_group_symop_operation_xyz
  'x, y, z'

loop_
  _atom_site_type_symbol
  _atom_site_label
  _atom_site_symmetry_multiplicity
  _atom_site_fract_x
  _atom_site_fract_y
  _atom_site_fract_z
  _atom_site_occupancy
  Hf  Hf1       1.0  0.0917266103512873  0.9072786061960726  0.0965390505941173  1.0000
  Hf  Hf2       1.0  0.8978357153863  0.9196741289000695  0.09541446293643219  1.0000
  Hf  Hf3       1.0  0.10053563859607097  0.06404014535562642  0.9422107212469726  1.0000
  Hf  Hf4       1.0  0.906681769864079  0.0736171792823938  0.9382633961339195  1.0000
  Hf  Hf5       1.0  0.0010229031624433855  0.9177413856917694  0.944741081208548  1.0000
  Hf  Hf6       1.0  0.9973543372138423  0.0645517360732555  0.0915057939194313  1.0000
  H   H1        1.0  0.999481818463245  0.9138334236448455  0.20150563797010787  1.0000
  H   H2        1.0  0.8382431197972052  0.9409175407407985  0.9698981792982335  1.0000
  H   H3        1.0  0.9966127154437812  0.1746962762827521  0.9408843646721932  1.0000
  H   H4        1.0  0.16252434651600106  0.9356138672285609  0.9607234810025885  1.0000
  H   H5        1.0  0.7568929225647948  0.9399333154753577  0.11615658483322727  1.0000
  H   H6        1.0  0.772694010927715  0.11819390315380915  0.9545604084072467  1.0000
  H   H7        1.0  0.9030227437491545  0.1697155481543006  0.8080916683744875  1.0000
  H   H8        1.0  0.14041193450326964  0.1955999957056064  0.8475321383703189  1.0000
  H   H9        1.0  0.24080520897761196  0.07759070731060543  0.9569217424342257  1.0000
  H   H10       1.0  0.23500727106788585  0.8558481543477754  0.107732155092549  1.0000
  H   H11       1.0  0.09660699649992917  0.7772287352844459  0.1932007787952941  1.0000
  H   H12       1.0  0.8587020223429036  0.8239011453690777  0.22892846140471323  1.0000
  H   H13       1.0  0.1217810232274346  0.1456300973021739  0.8074993451261462  1.0000
  H   H14       1.0  0.2241917295247191  0.9193170408597591  0.1342382351407068  1.0000
  H   H15       1.0  0.8792204238552229  0.7854361104338283  0.17584208717352107  1.0000
  H   H16       1.0  0.7648545555812872  0.09043227318626625  0.8925349913320628  1.0000
  H   H17       1.0  0.17859141838290069  0.9930124615896005  0.5109412730894788  1.0000
  H   H18       1.0  0.3838549909001329  0.9918847929225334  0.6089308988310477  1.0000
  H   H19       1.0  0.38414923180548743  0.9937458358107774  0.39680565784936317  1.0000
  H   H20       1.0  0.8186977509344756  0.9951446938380285  0.5205760132418362  1.0000
  H   H21       1.0  0.6161922555878974  0.9940405786415527  0.6393920638838962  1.0000
  H   H22       1.0  0.6106594669451938  0.9930265783301875  0.42868661368086686  1.0000
  H   H23       1.0  0.179847623824763  0.48493687408862474  0.017037673671978795  1.0000
  H   H24       1.0  0.3850199703643468  0.5803435265849117  0.021820898551730698  1.0000
  H   H25       1.0  0.3851588989948666  0.3694863960954464  0.020310214054568097  1.0000
  H   H26       1.0  0.8193388267270335  0.49265012497472327  0.024719764201087503  1.0000
  H   H27       1.0  0.617187155891038  0.6131796254269161  0.020040799937511605  1.0000
  H   H28       1.0  0.6111897146560848  0.4007941150083453  0.0232443593853233  1.0000
  H   H29       1.0  0.5022237081881044  0.5683867045432222  0.0175788803546268  1.0000
  H   H30       1.0  0.4973618916601339  0.4150499935289316  0.0246545309560631  1.0000
  H   H31       1.0  0.4960792556123152  0.9952678589072406  0.44309100406797347  1.0000
  H   H32       1.0  0.5016654387913917  0.9905973335048017  0.5954385510824453  1.0000
  H   H33       1.0  0.7620846155704939  0.07889998903759475  0.7640530915510907  1.0000
  H   H34       1.0  0.9142596821417966  0.9182373137369948  0.7474452515745611  1.0000
  H   H35       1.0  0.8462652440594309  0.9172761018258482  0.6439622754326919  1.0000
  H   H36       1.0  0.6920447319038487  0.07647894084822575  0.662852261558548  1.0000
  H   H37       1.0  0.7502818290687401  0.9208802671619977  0.27749591601742907  1.0000
  H   H38       1.0  0.9034266122747423  0.07018387671013215  0.28915874356859206  1.0000
  H   H39       1.0  0.8386228856053106  0.06933830537236929  0.40011089344230294  1.0000
  H   H40       1.0  0.6847872321259273  0.919707162086702  0.3879982727988462  1.0000
  H   H41       1.0  0.08683218019771739  0.9178433853110661  0.7397179244687281  1.0000
  H   H42       1.0  0.2367397664642539  0.06803772460483506  0.7547527733439878  1.0000
  H   H43       1.0  0.30724839803785636  0.06724904584858386  0.6469786829223735  1.0000
  H   H44       1.0  0.1559247874740848  0.9174211764755635  0.6311279095472315  1.0000
  H   H45       1.0  0.08966385593328137  0.07309988213452097  0.28107581070145926  1.0000
  H   H46       1.0  0.24450879741316808  0.9143999730150366  0.2643862089597349  1.0000
  H   H47       1.0  0.31029577754439686  0.9136620340007084  0.36927918639734963  1.0000
  H   H48       1.0  0.1541530730550704  0.07183810143970243  0.38734102598837694  1.0000
  H   H49       1.0  0.7509652008958125  0.25016193214192106  0.9502729355065826  1.0000
  H   H50       1.0  0.9018725047375609  0.2594507176656791  0.1023016515430228  1.0000
  H   H51       1.0  0.8379172705516423  0.3710333077374557  0.1008880286950316  1.0000
  H   H52       1.0  0.6859736029876514  0.3608353493173765  0.9489384006963703  1.0000
  H   H53       1.0  0.9188453271218008  0.7161998272014782  0.9472157676240941  1.0000
  H   H54       1.0  0.7630345196631793  0.7413732792561661  0.10124690659480248  1.0000
  H   H55       1.0  0.6914623064936263  0.6400564257319132  0.09994513178943269  1.0000
  H   H56       1.0  0.8490028365016258  0.6134709890735693  0.9468737701251868  1.0000
  H   H57       1.0  0.0871089390546587  0.25816176768596216  0.09348215524777709  1.0000
  H   H58       1.0  0.2469393800369132  0.2363008081436178  0.9408804758016699  1.0000
  H   H59       1.0  0.313559226633572  0.34055863896782756  0.940987301184606  1.0000
  H   H60       1.0  0.15261368692934948  0.36346641133911106  0.09329666995623138  1.0000
  H   H61       1.0  0.0930817452883304  0.717237705291815  0.9409984151182936  1.0000
  H   H62       1.0  0.23572943494357193  0.7225669808843875  0.10099775576196629  1.0000
  H   H63       1.0  0.3051237425364377  0.6148710687075931  0.09960494122945111  1.0000
  H   H64       1.0  0.1607175964966386  0.6079326217601984  0.9405517014470776  1.0000
  C   C1        1.0  0.11979714463456757  0.7918305451698657  0.0212789031077918  1.0000
  C   C2        1.0  0.8710540201555117  0.9948259095687458  0.21144827668364743  1.0000
  C   C3        1.0  0.8865803875230183  0.7958552160996885  0.025144725472841897  1.0000
  C   C4        1.0  0.12422743981903747  0.9944325646164814  0.2031592533686037  1.0000
  C   C5        1.0  0.12321881678608548  0.17854894082675088  0.0170211947454959  1.0000
  C   C6        1.0  0.8825109437115584  0.9985988946709053  0.824389108172639  1.0000
  C   C7        1.0  0.8698383630762051  0.1822721953204507  0.026242068379296796  1.0000
  C   C8        1.0  0.11584194375491556  0.994409286242394  0.8175809809366683  1.0000
  C   C9        1.0  0.27676528654209426  0.9925542074530471  0.44713649158624946  1.0000
  C   C10       1.0  0.23880425946811096  0.9927512630923802  0.5084422240758358  1.0000
  C   C11       1.0  0.2771766039974323  0.9927311410862458  0.566821971162213  1.0000
  C   C12       1.0  0.35443545858197467  0.9928947803104575  0.5630590980917347  1.0000
  C   C13       1.0  0.394128531954081  0.9928193968819411  0.5021535038851609  1.0000
  C   C14       1.0  0.35409191196264084  0.992450043889171  0.44491359181668605  1.0000
  C   C15       1.0  0.7184727392924727  0.9937604240331056  0.46760111784363545  1.0000
  C   C16       1.0  0.7585340150024678  0.9947777376976745  0.524596238647419  1.0000
  C   C17       1.0  0.7222520444739047  0.9954315111830707  0.5864760445942921  1.0000
  C   C18       1.0  0.644897611306632  0.9948263120447433  0.5908432549699398  1.0000
  C   C19       1.0  0.6032382110975618  0.9932439336999223  0.5350627503700807  1.0000
  C   C20       1.0  0.6413320372427549  0.9927611800630557  0.47355529274002345  1.0000
  C   C21       1.0  0.2778619820673356  0.4204560440968876  0.0178207315661965  1.0000
  C   C22       1.0  0.24000872153641237  0.4818407889378165  0.018006936381098602  1.0000
  C   C23       1.0  0.2784366331200658  0.5394435677494441  0.019759519665633697  1.0000
  C   C24       1.0  0.35559123853906976  0.535029793815248  0.021399326722409705  1.0000
  C   C25       1.0  0.39522295170228006  0.47426842540682645  0.0208862936733851  1.0000
  C   C26       1.0  0.3551510288554097  0.41758236769535984  0.019124694750573195  1.0000
  C   C27       1.0  0.7190089709080496  0.43975536306250973  0.023560941951537  1.0000
  C   C28       1.0  0.7591993575079171  0.49698424590976487  0.023845640915567397  1.0000
  C   C29       1.0  0.7231202227860364  0.5595055832479047  0.023117155139651402  1.0000
  C   C30       1.0  0.6457674126361183  0.5641791464821039  0.021951993413544795  1.0000
  C   C31       1.0  0.6040094928304427  0.5079552128575741  0.0214721606604513  1.0000
  C   C32       1.0  0.6419392385630187  0.44592804105671763  0.022267788463203396  1.0000
  C   C33       1.0  0.5236682492671604  0.5163587350204893  0.0203012477964108  1.0000
  C   C34       1.0  0.4755733616162343  0.46688507776231347  0.0221637738482201  1.0000
  C   C35       1.0  0.47450781182200796  0.993426383651311  0.4947725962547196  1.0000
  C   C36       1.0  0.5228824755639393  0.9922843528142733  0.5437039332052719  1.0000
  C   C37       1.0  0.7795767514351298  0.042958301581755516  0.7379900293345328  1.0000
  C   C38       1.0  0.8422110995581277  0.9984267369382279  0.7621542063490808  1.0000
  C   C39       1.0  0.8659489312008971  0.9532174049046701  0.7277925204590545  1.0000
  C   C40       1.0  0.8279059430578711  0.953009255115411  0.6701094914320649  1.0000
  C   C41       1.0  0.7642355710298148  0.9965977276364909  0.6464539199494297  1.0000
  C   C42       1.0  0.740613734480199  0.041470543573041044  0.6814688808520087  1.0000
  C   C43       1.0  0.7690427785994486  0.9533941569022201  0.30473662075043967  1.0000
  C   C44       1.0  0.8309793155665658  0.9953690330337963  0.2768516293309061  1.0000
  C   C45       1.0  0.8556556856710101  0.037165165680704576  0.3116599260430347  1.0000
  C   C46       1.0  0.8195270876455253  0.03614962295408466  0.3736944232102957  1.0000
  C   C47       1.0  0.7572327046099969  0.9943155606975295  0.402004055758681  1.0000
  C   C48       1.0  0.7324038496656512  0.9532370198099185  0.36620808699430546  1.0000
  C   C49       1.0  0.1345940193862987  0.9511339207317417  0.7181400667543513  1.0000
  C   C50       1.0  0.1568758603920699  0.9940563391598686  0.7526626630709073  1.0000
  C   C51       1.0  0.21938602207509916  0.035662748665352156  0.7267728264142335  1.0000
  C   C52       1.0  0.25889903572245027  0.03439608378370445  0.667164169492878  1.0000
  C   C53       1.0  0.23612932304485673  0.9926863010384748  0.6311997671102888  1.0000
  C   C54       1.0  0.17329482848687408  0.9511722979231364  0.6576444887954976  1.0000
  C   C55       1.0  0.1380109287485283  0.03832013891413767  0.30113656138775713  1.0000
  C   C56       1.0  0.16379464210731237  0.9946420153506139  0.26571197450736145  1.0000
  C   C57       1.0  0.22597778399262575  0.9497211256242866  0.29083610064017046  1.0000
  C   C58       1.0  0.2624183302989422  0.9493505850222377  0.34948380559677616  1.0000
  C   C59       1.0  0.23700105816913467  0.9929971645376554  0.3853004918084295  1.0000
  C   C60       1.0  0.17389030782497628  0.03708626174891085  0.36052029836860555  1.0000
  C   C61       1.0  0.7687193893439994  0.27630672199613543  0.9841213777366351  1.0000
  C   C62       1.0  0.8297770175796869  0.24757297247370494  0.0270834896194927  1.0000
  C   C63       1.0  0.854445456019256  0.2823195553220401  0.06895821315001169  1.0000
  C   C64       1.0  0.8188763009576332  0.34474333773203375  0.06756508445622698  1.0000
  C   C65       1.0  0.7572672207015713  0.3736359110268878  0.024980659431996302  1.0000
  C   C66       1.0  0.7326690372362491  0.3381928821350115  0.9834825637142329  1.0000
  C   C67       1.0  0.8696465977475043  0.6981153254288511  0.981372119437289  1.0000
  C   C68       1.0  0.8457917786007769  0.7338696529141444  0.0252692524439695  1.0000
  C   C69       1.0  0.7814754019597245  0.7125425415115387  0.06800880213338441  1.0000
  C   C70       1.0  0.7414558741356885  0.6565512963366729  0.0665267818833328  1.0000
  C   C71       1.0  0.7655689038848194  0.6195165839958037  0.023641246670024398  1.0000
  C   C72       1.0  0.8305003167643007  0.6409493160176394  0.9813833665111175  1.0000
  C   C73       1.0  0.13643090024245197  0.2772642235882756  0.05984484669257031  1.0000
  C   C74       1.0  0.1629194056579166  0.24111693371010998  0.0170647843319145  1.0000
  C   C75       1.0  0.22686672743161998  0.26445896016384296  0.9742572841036077  1.0000
  C   C76       1.0  0.26407966572605795  0.3223916132690546  0.9747680908036997  1.0000
  C   C77       1.0  0.23766696765660805  0.3592732115845648  0.017143727941096604  1.0000
  C   C78       1.0  0.17300868227045638  0.3360329934219735  0.059300765480081494  1.0000
  C   C79       1.0  0.13922280167318488  0.6938096615581769  0.9759731418592208  1.0000
  C   C80       1.0  0.1603059768770194  0.7265361770228721  0.020956973605080996  1.0000
  C   C81       1.0  0.22023781731494546  0.6975064443539906  0.06541111754086158  1.0000
  C   C82       1.0  0.25889209743331776  0.6374225783112522  0.06442545453209189  1.0000
  C   C83       1.0  0.23771576180846668  0.6038500820312223  0.019982262516869298  1.0000
  C   C84       1.0  0.17704814759917295  0.6328389489016641  0.9760764319308209  1.0000
  O   O1        1.0  0.1354437189284141  0.8136169508296618  0.0697803608468917  1.0000
  O   O2        1.0  0.0728963568132883  0.8213475121337764  0.9728926609255594  1.0000
  O   O3        1.0  0.8541334015808388  0.9471022289852797  0.1890363507150568  1.0000
  O   O4        1.0  0.9198756351576376  0.04157337545517239  0.1831667239242378  1.0000
  O   O5        1.0  0.8760272823021396  0.8136532744159976  0.07824802735859751  1.0000
  O   O6        1.0  0.9278957449225514  0.8281665243840449  0.9703700765977458  1.0000
  O   O7        1.0  0.1478080057729585  0.9517214968148479  0.1745631285061933  1.0000
  O   O8        1.0  0.06756630360646196  0.03635749429345475  0.18348409646802824  1.0000
  O   O9        1.0  0.09272672657755268  0.8252739157318201  0.19196171788316013  1.0000
  O   O10       1.0  0.22105226619216012  0.9062499545335211  0.09259196793727402  1.0000
  O   O11       1.0  0.8982047251003277  0.8157788725132349  0.1986252681611234  1.0000
  O   O12       1.0  0.7873641566217555  0.9162151612635442  0.09123368946761448  1.0000
  O   O13       1.0  0.998426195102546  0.8935482596781339  0.052074617290351496  1.0000
  O   O14       1.0  0.9964242447985753  0.9386741757595728  0.1501362238238571  1.0000
  O   O15       1.0  0.141938532235983  0.15542820071471636  0.9684844750424874  1.0000
  O   O16       1.0  0.07311494206216199  0.15299179971498225  0.06524940386783129  1.0000
  O   O17       1.0  0.8651752076933832  0.04813477547625655  0.8465386188845657  1.0000
  O   O18       1.0  0.930844551751946  0.9489054303954275  0.8513360806456801  1.0000
  O   O19       1.0  0.8479118951999566  0.1546073515866978  0.9846208392073236  1.0000
  O   O20       1.0  0.9254406367821486  0.15955620489421551  0.06635837713699291  1.0000
  O   O21       1.0  0.12468044417975219  0.04684599909011668  0.8353307379417032  1.0000
  O   O22       1.0  0.0759211341390653  0.9408124851624816  0.8519514865027773  1.0000
  O   O23       1.0  0.10144366610018096  0.1683884875228756  0.8394184898029947  1.0000
  O   O24       1.0  0.21131939691015583  0.05473744134478411  0.9339066623245811  1.0000
  O   O25       1.0  0.9059249670860723  0.16870150835406847  0.8558313650462922  1.0000
  O   O26       1.0  0.7774573989790665  0.07577388637894679  0.9423542106706295  1.0000
  O   O27       1.0  0.0001324563325226857  0.12315846132076286  0.9655439221209364  1.0000
  O   O28       1.0  0.001452909756743292  0.024966097679445697  0.9206390017656362  1.0000
  O   O29       1.0  0.08005057959373829  0.0200923962094635  0.04935284781849699  1.0000
  O   O30       1.0  0.8856828342711792  0.9551991671620782  0.9794418147862274  1.0000
  O   O31       1.0  0.11454735155882638  0.9474365400312051  0.9771545522399094  1.0000
  O   O32       1.0  0.9167615092149858  0.025963859806353202  0.05062655162708301  1.0000
