data_image0
_chemical_formula_structural       Cd3H50C54N12O16
_chemical_formula_sum              "Cd3 H50 C54 N12 O16"
_cell_length_a       8.481870048896049
_cell_length_b       10.520706898582967
_cell_length_c       16.339529066712178
_cell_angle_alpha    97.04994652356956
_cell_angle_beta     101.7894554300485
_cell_angle_gamma    101.06601056372648

_space_group_name_H-M_alt    "P 1"
_space_group_IT_number       1

loop_
  _space_group_symop_operation_xyz
  'x, y, z'

loop_
  _atom_site_type_symbol
  _atom_site_label
  _atom_site_symmetry_multiplicity
  _atom_site_fract_x
  _atom_site_fract_y
  _atom_site_fract_z
  _atom_site_occupancy
  Cd  Cd1       1.0  0.49999976732958384  0.5000032608587333  0.4999977671698799  1.0000
  Cd  Cd2       1.0  0.4354117909749107  0.3594950324738235  0.11411556630545049  1.0000
  Cd  Cd3       1.0  0.564583865182108  0.6405067576851594  0.8858877799771105  1.0000
  H   H1        1.0  0.504606723314275  0.3909070138313524  0.7707919824997516  1.0000
  H   H2        1.0  0.4953963977953109  0.6090995552791367  0.2292070080041596  1.0000
  H   H3        1.0  0.5431391197386547  0.021283337238379798  0.640348991488956  1.0000
  H   H4        1.0  0.4568619439355217  0.9787203135558898  0.3596507928363266  1.0000
  H   H5        1.0  0.5440817713927331  0.06910381095745778  0.9060341042639944  1.0000
  H   H6        1.0  0.4559204148152602  0.9309037820505638  0.09396669214446261  1.0000
  H   H7        1.0  0.7589538562984898  0.3688859787548608  0.2904736520701403  1.0000
  H   H8        1.0  0.24104158952641092  0.6311109065854196  0.7095299384191944  1.0000
  H   H9        1.0  0.06643027479363896  0.5393173101978662  0.31392087254742757  1.0000
  H   H10       1.0  0.9335670090545846  0.4606776131569533  0.6860833932051092  1.0000
  H   H11       1.0  0.7469766786563952  0.5835240842333107  0.0882897560284803  1.0000
  H   H12       1.0  0.25301838282409506  0.4164628934014443  0.9117094233632341  1.0000
  H   H13       1.0  0.08224113296387976  0.6914245266744032  0.12369089382680437  1.0000
  H   H14       1.0  0.917759473726221  0.30856941255057546  0.8763142784232156  1.0000
  H   H15       1.0  0.1808981058467794  0.7088047715874525  0.23228919316180446  1.0000
  H   H16       1.0  0.8190946566494476  0.29119112827186916  0.7677134223311339  1.0000
  H   H17       1.0  0.9121696131937538  0.838846170805709  0.07424610322726004  1.0000
  H   H18       1.0  0.08781581480595692  0.16114086841152192  0.9257532504565018  1.0000
  H   H19       1.0  0.8200962885377976  0.13613900535357706  0.2519545170699118  1.0000
  H   H20       1.0  0.17990834463021357  0.8638684680614548  0.7480410300348976  1.0000
  H   H21       1.0  0.07341875154033065  0.8447161690232575  0.34237887710487763  1.0000
  H   H22       1.0  0.9265778576781898  0.15528454820414336  0.6576202135175462  1.0000
  H   H23       1.0  0.8191179060301294  0.04318436183701379  0.40313947065379796  1.0000
  H   H24       1.0  0.18088884238967756  0.9568221443398741  0.5968574640641717  1.0000
  H   H25       1.0  0.9988469928111312  0.9834224766147769  0.4379219847347783  1.0000
  H   H26       1.0  0.0011511772022530001  0.016575283879831197  0.5620770688008818  1.0000
  H   H27       1.0  0.8718954594333326  0.25519903478371475  0.49567634001426325  1.0000
  H   H28       1.0  0.12811057747382656  0.7447967037839902  0.504322208083991  1.0000
  H   H29       1.0  0.13186777330631122  0.4783455272892709  0.5390014885552147  1.0000
  H   H30       1.0  0.8681390771263368  0.5216532445544503  0.4610016463485279  1.0000
  H   H31       1.0  0.25609312118331923  0.1885513571812325  0.37688706636041747  1.0000
  H   H32       1.0  0.7439113107325211  0.8114511868980612  0.6231075000733737  1.0000
  H   H33       1.0  0.7391235292751404  0.9854071380874811  0.024648169155909685  1.0000
  H   H34       1.0  0.2608854058327879  0.014594478521367193  0.9753504972930711  1.0000
  H   H35       1.0  0.6844905939155198  0.1004211806172108  0.0970318473233434  1.0000
  H   H36       1.0  0.31550335921420464  0.8995784775781456  0.9029625936692935  1.0000
  H   H37       1.0  0.7683384850617543  0.3084172252849555  0.041992990982393535  1.0000
  H   H38       1.0  0.23165543628811497  0.6915825187199901  0.9580057370825299  1.0000
  H   H39       1.0  0.08140165523783342  0.4588788058515263  0.041956721430523196  1.0000
  H   H40       1.0  0.9185937327706738  0.5411219650431037  0.9580446876242802  1.0000
  H   H41       1.0  0.1328819201131353  0.08888694957900609  0.10010382834856558  1.0000
  H   H42       1.0  0.8671224845628346  0.9111156680513801  0.899894412718609  1.0000
  H   H43       1.0  0.4129840516664344  0.7277077092166379  0.518853434052886  1.0000
  H   H44       1.0  0.58702634102017  0.2722949587989234  0.48114913826377376  1.0000
  H   H45       1.0  0.44722110605174253  0.7203035528975904  0.6175017064093921  1.0000
  H   H46       1.0  0.5527850334313769  0.2797011108868191  0.3825011528754202  1.0000
  H   H47       1.0  0.3960907241355757  0.4771732845824914  0.29290148969504054  1.0000
  H   H48       1.0  0.6039124638703585  0.522829374456613  0.7070984573656104  1.0000
  H   H49       1.0  0.37349281994809763  0.32171086170951924  0.26768587042802483  1.0000
  H   H50       1.0  0.6265100590495081  0.6782908883918637  0.7323176513549469  1.0000
  C   C1        1.0  0.5335893074873965  0.3247890865328387  0.929956097874381  1.0000
  C   C2        1.0  0.46640935462655614  0.6752145612692856  0.07004281136557469  1.0000
  C   C3        1.0  0.5244810608070338  0.2394055319052768  0.8472598028302653  1.0000
  C   C4        1.0  0.4755220603025451  0.7606010372052054  0.15273918767364586  1.0000
  C   C5        1.0  0.5143532201513848  0.28953399623539156  0.7714284601079837  1.0000
  C   C6        1.0  0.4856472130895426  0.7104715996526564  0.22857016783841994  1.0000
  C   C7        1.0  0.5217606756051225  0.2116891277401436  0.6969343926097834  1.0000
  C   C8        1.0  0.4782430668577504  0.7883155207936029  0.3030669791507988  1.0000
  C   C9        1.0  0.5348366994443338  0.0809270216200701  0.6980889065836134  1.0000
  C   C10       1.0  0.46516796884017003  0.9190766275331795  0.301911884150229  1.0000
  C   C11       1.0  0.5411595223070407  0.028958954551065088  0.7732160018786798  1.0000
  C   C12       1.0  0.45884181405562435  0.9710457032490466  0.22678510723546447  1.0000
  C   C13       1.0  0.5368167193172084  0.10901506848919239  0.8473733778333992  1.0000
  C   C14       1.0  0.463180735206663  0.8909885962046288  0.15262601252222646  1.0000
  C   C15       1.0  0.5326728358287268  0.27065031567663317  0.6179583589605285  1.0000
  C   C16       1.0  0.46733239599267756  0.7293552984542301  0.3820426315954392  1.0000
  C   C17       1.0  0.5532027134101867  0.8886118299302623  0.7764770699450236  1.0000
  C   C18       1.0  0.44679895799733765  0.1113899370628175  0.22352693295362508  1.0000
  C   C19       1.0  0.8021738542844689  0.4386380141199879  0.2518685875773484  1.0000
  C   C20       1.0  0.19782102800353138  0.5613569062426792  0.7481348030898614  1.0000
  C   C21       1.0  0.9534846397403384  0.5236810915661395  0.2651492863752408  1.0000
  C   C22       1.0  0.04651172736621588  0.47631480665214804  0.7348543355262503  1.0000
  C   C23       1.0  0.7895570442910865  0.5485650303865627  0.14684440286317368  1.0000
  C   C24       1.0  0.210442744333541  0.4514258878209033  0.8531567950202612  1.0000
  C   C25       1.0  0.06357361682573537  0.706003807440908  0.18841112078708727  1.0000
  C   C26       1.0  0.9364182958251633  0.2939891572105041  0.8115918074115454  1.0000
  C   C27       1.0  0.0028604338832779017  0.829987580272885  0.20620371327878217  1.0000
  C   C28       1.0  0.9971251999085807  0.17000437602157348  0.7937960086370947  1.0000
  C   C29       1.0  0.9252241077045371  0.8842765388728254  0.13961589297004204  1.0000
  C   C30       1.0  0.07476189745201371  0.11571242854648033  0.8603818232191569  1.0000
  C   C31       1.0  0.8607043246927546  0.9951581947554476  0.15558720297729423  1.0000
  C   C32       1.0  0.13929117107191052  0.004838555741173394  0.8444096506841701  1.0000
  C   C33       1.0  0.8718773029840249  0.05047244629451339  0.23923022620971313  1.0000
  C   C34       1.0  0.12812923510365692  0.9495291550636721  0.7607669527150376  1.0000
  C   C35       1.0  0.9462210777341155  0.9954134387653608  0.3065217885087533  1.0000
  C   C36       1.0  0.05378064361318019  0.004588193384066093  0.6934754775620247  1.0000
  C   C37       1.0  0.013755233379320938  0.8867512444495134  0.28969684270107615  1.0000
  C   C38       1.0  0.9862363578466571  0.11324457423339142  0.7103013543963638  1.0000
  C   C39       1.0  0.9464107189707248  0.04711610087246498  0.3965331267109632  1.0000
  C   C40       1.0  0.05359220088669058  0.9528855389022864  0.6034648831219227  1.0000
  C   C41       1.0  0.9914642434847349  0.27486372259822645  0.48005800261144305  1.0000
  C   C42       1.0  0.00854630115448881  0.7251310762405152  0.5199440330631118  1.0000
  C   C43       1.0  0.11852983592991251  0.3845226740722866  0.4995704766304242  1.0000
  C   C44       1.0  0.8814773677075108  0.6154731579303458  0.5004331023022315  1.0000
  C   C45       1.0  0.1898610950225006  0.2385485834027534  0.4161809126220744  1.0000
  C   C46       1.0  0.810143600501874  0.7614549921994112  0.5838162034783776  1.0000
  C   C47       1.0  0.7868591324080326  0.05796174677203678  0.08332912038024176  1.0000
  C   C48       1.0  0.2131369178135785  0.9420369932192328  0.9166691579811539  1.0000
  C   C49       1.0  0.8894757975733539  0.28618502765239384  0.05151360338452091  1.0000
  C   C50       1.0  0.11051519045925327  0.7138126625731901  0.9484797627006425  1.0000
  C   C51       1.0  0.04291861192344731  0.35840541869740855  0.05113998015435329  1.0000
  C   C52       1.0  0.957075032197963  0.6415933305602194  0.9488580355606044  1.0000
  C   C53       1.0  0.07729779823299052  0.1686132717648974  0.08163360040295228  1.0000
  C   C54       1.0  0.9226955459600461  0.8313845440379807  0.9183667651565269  1.0000
  N   N1        1.0  0.7016716481453928  0.45534417814344164  0.17784730844967808  1.0000
  N   N2        1.0  0.2983284267876698  0.5446477102943206  0.8221533769059232  1.0000
  N   N3        1.0  0.9429383297153747  0.5921519819207433  0.19799358006450515  1.0000
  N   N4        1.0  0.05705839967590982  0.407840951939427  0.8020092609881001  1.0000
  N   N5        1.0  0.24078012547008854  0.3607736877813466  0.4592981184701442  1.0000
  N   N6        1.0  0.7592258309207836  0.6392259976332753  0.5407013103880656  1.0000
  N   N7        1.0  0.0382673999488574  0.18337530701686688  0.42707746334862395  1.0000
  N   N8        1.0  0.9617385700619536  0.8166243416222159  0.5729201281928906  1.0000
  N   N9        1.0  0.15797959175549184  0.2835217854698088  0.06934996580041289  1.0000
  N   N10       1.0  0.8420152554160155  0.7164769591546404  0.9306481812377638  1.0000
  N   N11       1.0  0.9136318214728334  0.16631238838810702  0.0709598203826545  1.0000
  N   N12       1.0  0.08636209987704295  0.8336873556168456  0.9290389076822689  1.0000
  O   O1        1.0  0.4765453836146206  0.2662123713658318  0.9852353984976288  1.0000
  O   O2        1.0  0.5234508814790858  0.7337912611856225  0.014762023218089832  1.0000
  O   O3        1.0  0.6046306701944741  0.4455056888990683  0.9411409721776633  1.0000
  O   O4        1.0  0.39536622533248084  0.5544959985586216  0.058857605916934105  1.0000
  O   O5        1.0  0.5346994416341033  0.3938462775099012  0.6221851971778348  1.0000
  O   O6        1.0  0.4653067114689549  0.6061583494989692  0.3778158247902893  1.0000
  O   O7        1.0  0.5454011043993531  0.19618026933384414  0.5537764762250459  1.0000
  O   O8        1.0  0.4546053350121328  0.8038253279053154  0.4462240332152446  1.0000
  O   O9        1.0  0.5722671264767527  0.8203252359208404  0.7104492299353209  1.0000
  O   O10       1.0  0.4277396298196763  0.1796775195453506  0.2895566230450654  1.0000
  O   O11       1.0  0.5443620171000918  0.8480344871730524  0.8460529263886725  1.0000
  O   O12       1.0  0.4556431829414577  0.1519712127674069  0.15395235123958168  1.0000
  O   O13       1.0  0.3469788755165056  0.4015962213707099  0.24589242841875594  1.0000
  O   O14       1.0  0.6530222505140416  0.5984035316106926  0.7541089249021693  1.0000
  O   O15       1.0  0.38558534867381405  0.6685553757906818  0.5615417554597781  1.0000
  O   O16       1.0  0.6144246862680377  0.3314502443244862  0.4384609852668645  1.0000
