data_image0
_chemical_formula_structural       Cd2H20C44N8O16F8
_chemical_formula_sum              "Cd2 H20 C44 N8 O16 F8"
_cell_length_a       8.627321446350857
_cell_length_b       10.071528200232967
_cell_length_c       14.056962808009676
_cell_angle_alpha    90.00006857154399
_cell_angle_beta     89.99986619353707
_cell_angle_gamma    115.1384491641504

_space_group_name_H-M_alt    "P 1"
_space_group_IT_number       1

loop_
  _space_group_symop_operation_xyz
  'x, y, z'

loop_
  _atom_site_type_symbol
  _atom_site_label
  _atom_site_symmetry_multiplicity
  _atom_site_fract_x
  _atom_site_fract_y
  _atom_site_fract_z
  _atom_site_occupancy
  Cd  Cd1       1.0  0.5006567318336295  0.773664772716174  0.4107914120453132  1.0000
  Cd  Cd2       1.0  0.4993452507121035  0.22633802392701333  0.9107910793321425  1.0000
  H   H1        1.0  0.637015507395823  0.0204501265883792  0.612478941749174  1.0000
  H   H2        1.0  0.362985379950153  0.9795481765743328  0.112479647682477  1.0000
  H   H3        1.0  0.05676986484174766  0.8240571839753272  0.659442192619835  1.0000
  H   H4        1.0  0.9432318706839169  0.17594552347866  0.15944209171843943  1.0000
  H   H5        1.0  0.16927670511759635  0.927686109456964  0.9746034083954316  1.0000
  H   H6        1.0  0.8307256604544263  0.07231561273190579  0.47460409163387146  1.0000
  H   H7        1.0  0.6324875709261235  0.8202950723174424  0.0102254345197181  1.0000
  H   H8        1.0  0.3675131430315872  0.1797020976072687  0.5102224053801052  1.0000
  H   H9        1.0  0.8560409346405108  0.9137933332245183  0.729846624902784  1.0000
  H   H10       1.0  0.1439571389432359  0.08620720661905068  0.22984474749987532  1.0000
  H   H11       1.0  0.17853440760937628  0.5056973493746424  0.37658428138260563  1.0000
  H   H12       1.0  0.8214646965366867  0.4943087271142943  0.8765851386161501  1.0000
  H   H13       1.0  0.6340071279617092  0.3563717709624327  0.40390202560706  1.0000
  H   H14       1.0  0.3659920875896105  0.6436277333073405  0.9039015291225923  1.0000
  H   H15       1.0  0.9353459091102606  0.3992958726326492  0.6560046504864018  1.0000
  H   H16       1.0  0.06465420579608856  0.6007035432536794  0.1560040376563379  1.0000
  H   H17       1.0  0.18592218644874955  0.3700388299026259  0.6910404815910027  1.0000
  H   H18       1.0  0.8140771868117226  0.6299616956810966  0.1910423764466387  1.0000
  H   H19       1.0  0.7583753020354607  0.6129252605994184  0.6921684415238546  1.0000
  H   H20       1.0  0.24162304857660638  0.387070877838795  0.19216952669775372  1.0000
  C   C1        1.0  0.3289903817213897  0.9407375093689295  0.6583166264296737  1.0000
  C   C2        1.0  0.6710102691609094  0.0592630041223643  0.15831610467945725  1.0000
  C   C3        1.0  0.6246937288605636  0.1144340590743056  0.7325988219455155  1.0000
  C   C4        1.0  0.3753067226988306  0.8855642869150059  0.23259942993176003  1.0000
  C   C5        1.0  0.4367751059837346  0.030563123048544596  0.7285781376019003  1.0000
  C   C6        1.0  0.5632247456303716  0.969436318712631  0.2285778364710254  1.0000
  C   C7        1.0  0.02944027608272397  0.9219771104374247  0.8448009289874038  1.0000
  C   C8        1.0  0.9705603127803784  0.07802237233606492  0.34480070526278445  1.0000
  C   C9        1.0  0.047409904390882184  0.9113375104331637  0.9432873356162902  1.0000
  C   C10       1.0  0.9525925747953039  0.08866420059035819  0.4432871467386549  1.0000
  C   C11       1.0  0.17644302451574118  0.9526331665310078  0.7828728077506925  1.0000
  C   C12       1.0  0.823558877744361  0.0473684877245901  0.2828734799512844  1.0000
  C   C13       1.0  0.7326804615450795  0.8623924051647902  0.866186953921428  1.0000
  C   C14       1.0  0.26731896100660174  0.13760489167187728  0.36618494359334625  1.0000
  C   C15       1.0  0.7433791170299955  0.849492400538331  0.9640921581648528  1.0000
  C   C16       1.0  0.2566211092257332  0.1505049307798174  0.46409017419190957  1.0000
  C   C17       1.0  0.904332306907989  0.8773592236119044  0.9999589775194622  1.0000
  C   C18       1.0  0.0956705812113512  0.12264141041131887  0.499958623242442  1.0000
  C   C19       1.0  0.8709501701928133  0.8997783459964167  0.8054105842126094  1.0000
  C   C20       1.0  0.12904892848729327  0.10021783239087509  0.30540874015093783  1.0000
  C   C21       1.0  0.06769387068676018  0.4732180152536073  0.4230709179795653  1.0000
  C   C22       1.0  0.9323052051515713  0.5267836898366552  0.9230702212891799  1.0000
  C   C23       1.0  0.9076118700954864  0.435063159971385  0.3838534355983896  1.0000
  C   C24       1.0  0.09238905128545842  0.564939627492066  0.8838511299188312  1.0000
  C   C25       1.0  0.757923443326696  0.3851659566317451  0.4369033880464174  1.0000
  C   C26       1.0  0.2420750379652219  0.6148346566095099  0.9369023332028803  1.0000
  C   C27       1.0  0.07954754128952146  0.4603121024359068  0.5219051983332506  1.0000
  C   C28       1.0  0.9204512866864432  0.5396883632703363  0.0219061522000317  1.0000
  C   C29       1.0  0.36111357866949584  0.8902832734763138  0.5645751372782257  1.0000
  C   C30       1.0  0.63888625340158  0.10971720701813578  0.0645754160668659  1.0000
  C   C31       1.0  0.24789350470138768  0.4986787049649735  0.5636673159603518  1.0000
  C   C32       1.0  0.7521057161291723  0.5013228724113857  0.0636677669779502  1.0000
  C   C33       1.0  0.7759701061327959  0.37280626315718723  0.5341548187177949  1.0000
  C   C34       1.0  0.22402758867669095  0.6271920133549288  0.0341547114508742  1.0000
  C   C35       1.0  0.9318230150306374  0.4090800202684618  0.5790171873662118  1.0000
  C   C36       1.0  0.06817622028219726  0.5909193685943563  0.07901727252009041  1.0000
  C   C37       1.0  0.7064889546999923  0.6923831823857968  0.5703669525702609  1.0000
  C   C38       1.0  0.29351078619023957  0.3076194941596882  0.0703664727108304  1.0000
  C   C39       1.0  0.5241706281988527  0.5957929054808487  0.5898904627820727  1.0000
  C   C40       1.0  0.47583020075409616  0.40420977760099663  0.0898926496531018  1.0000
  C   C41       1.0  0.5164639551865376  0.4600883347220017  0.7512588389994121  1.0000
  C   C42       1.0  0.483531318887259  0.539906728853289  0.2512618421393213  1.0000
  C   C43       1.0  0.44709858582058365  0.5039304321672021  0.6667107716715606  1.0000
  C   C44       1.0  0.5529026491384741  0.49606898711169123  0.16671221514297233  1.0000
  N   N1        1.0  0.3402811164521111  0.0362326039740779  0.804736908229593  1.0000
  N   N2        1.0  0.6597201621234489  0.9637679612960423  0.304737175326686  1.0000
  N   N3        1.0  0.16644695353699754  0.8944310443037011  0.6941800890059613  1.0000
  N   N4        1.0  0.8335541115979694  0.10557057875482907  0.1941800852055096  1.0000
  N   N5        1.0  0.39942951551798694  0.5903252046160431  0.5270448262012765  1.0000
  N   N6        1.0  0.6005703825400346  0.40967745648389803  0.0270454161506706  1.0000
  N   N7        1.0  0.2751834543651909  0.4451382733175747  0.6480048374996629  1.0000
  N   N8        1.0  0.7248172339256556  0.5548622364974278  0.1480053733709212  1.0000
  O   O1        1.0  0.7173628118072058  0.09019410688949138  0.6666833683846465  1.0000
  O   O2        1.0  0.282639037786211  0.9098042151739774  0.16668412991337794  1.0000
  O   O3        1.0  0.6924656187311838  0.20437147601423789  0.7978369441279723  1.0000
  O   O4        1.0  0.30753629940873856  0.7956279895904714  0.2978382838246887  1.0000
  O   O5        1.0  0.5221440172803253  0.9356852866503755  0.5405691443480904  1.0000
  O   O6        1.0  0.4778570607787315  0.0643151848604546  0.0405703265725279  1.0000
  O   O7        1.0  0.23915573020396858  0.8070671774267169  0.5152046380897986  1.0000
  O   O8        1.0  0.7608453697077235  0.19293547902686464  0.015204813143981302  1.0000
  O   O9        1.0  0.8203615451996596  0.688627069869753  0.6315536286630774  1.0000
  O   O10       1.0  0.17963634061903377  0.31137233814868637  0.1315526038520218  1.0000
  O   O11       1.0  0.7473880174489195  0.7737421691147047  0.4996397309678144  1.0000
  O   O12       1.0  0.2526152758545166  0.22626394954755819  0.9996383290843412  1.0000
  O   O13       1.0  0.4105308609718321  0.36245425546878346  0.8041721525821757  1.0000
  O   O14       1.0  0.589461218636238  0.6375441190134126  0.3041757986696609  1.0000
  O   O15       1.0  0.6789400792766002  0.523225800775286  0.7636412251882234  1.0000
  O   O16       1.0  0.32105420148532454  0.47676268568118  0.2636451186847353  1.0000
  F   F1        1.0  0.9207434602965917  0.8691969983613389  0.09625876945469261  1.0000
  F   F2        1.0  0.0792620513174711  0.1308034913048175  0.5962582459141856  1.0000
  F   F3        1.0  0.5766608640719753  0.8363666996662715  0.8277790423593674  1.0000
  F   F4        1.0  0.42333978655155846  0.16363277703775478  0.3277754078342312  1.0000
  F   F5        1.0  0.8941420868496548  0.44362233301518456  0.28723229264924305  1.0000
  F   F6        1.0  0.10585795599755699  0.5563826144109072  0.7872306717425772  1.0000
  F   F7        1.0  0.6299169118567889  0.3229329577521725  0.5880434988255275  1.0000
  F   F8        1.0  0.3700806576184378  0.6770631439867714  0.0880432248010337  1.0000
