data_image0
_chemical_formula_structural       Zn4H24C32N20O8
_chemical_formula_sum              "Zn4 H24 C32 N20 O8"
_cell_length_a       6.03083480600721
_cell_length_b       10.93779850135656
_cell_length_c       14.248504594505293
_cell_angle_alpha    89.43652688096319
_cell_angle_beta     90.00004187244069
_cell_angle_gamma    89.99994441496409

_space_group_name_H-M_alt    "P 1"
_space_group_IT_number       1

loop_
  _space_group_symop_operation_xyz
  'x, y, z'

loop_
  _atom_site_type_symbol
  _atom_site_label
  _atom_site_symmetry_multiplicity
  _atom_site_fract_x
  _atom_site_fract_y
  _atom_site_fract_z
  _atom_site_occupancy
  Zn  Zn1       1.0  0.0197940453662966  0.544902609751425  0.8312799408209274  1.0000
  Zn  Zn2       1.0  0.5198050125927481  0.955098330080581  0.16872142058325318  1.0000
  Zn  Zn3       1.0  0.9801984760641815  0.45510014585053693  0.1687175268514949  1.0000
  Zn  Zn4       1.0  0.48019248327842234  0.044901610899415786  0.831279543860717  1.0000
  H   H1        1.0  0.5431212967220915  0.3475555269802655  0.9358020843904811  1.0000
  H   H2        1.0  0.04312534105785909  0.1524468954363059  0.0641985715118807  1.0000
  H   H3        1.0  0.45686625028579897  0.6524461847562222  0.0642016957705067  1.0000
  H   H4        1.0  0.9568671803923365  0.8475612156360341  0.9358052377600359  1.0000
  H   H5        1.0  0.37296243488328434  0.23466437255783032  0.9880437879509074  1.0000
  H   H6        1.0  0.8729623615311015  0.26533402368875164  0.011947669960882501  1.0000
  H   H7        1.0  0.6270217958059661  0.7653283701714245  0.011951528426848802  1.0000
  H   H8        1.0  0.12702684360828442  0.7346696605161328  0.9880491000209375  1.0000
  H   H9        1.0  0.040263484200792704  0.6458481204573729  0.6234261622475472  1.0000
  H   H10       1.0  0.5402652307507906  0.8541463422670506  0.3765772720384533  1.0000
  H   H11       1.0  0.9597472768172608  0.35415103599822834  0.3765684813896044  1.0000
  H   H12       1.0  0.45974718843338275  0.1458424699075067  0.6234313628452528  1.0000
  H   H13       1.0  0.8276715313452883  0.6208193390859691  0.4766744310675293  1.0000
  H   H14       1.0  0.3276714691154012  0.8791838092714671  0.5233275911694406  1.0000
  H   H15       1.0  0.1723392296812705  0.3791926592758017  0.5233181652433743  1.0000
  H   H16       1.0  0.672339291929191  0.12081048805310252  0.4766810686669984  1.0000
  H   H17       1.0  0.3519912613513084  0.40778407685562  0.6376680693447483  1.0000
  H   H18       1.0  0.8520056746530997  0.0922178962710234  0.3623290236418626  1.0000
  H   H19       1.0  0.6480045763571666  0.5922234081963397  0.36232169877499837  1.0000
  H   H20       1.0  0.1480133771136067  0.9077755156724977  0.6376782283357798  1.0000
  H   H21       1.0  0.5836361605118584  0.4453925577637109  0.7770661217455981  1.0000
  H   H22       1.0  0.08364569306392872  0.05460066875976112  0.2229337836794656  1.0000
  H   H23       1.0  0.4163613353411861  0.5546066275204709  0.2229271181933967  1.0000
  H   H24       1.0  0.9163600935321126  0.9453872868637277  0.777072039647429  1.0000
  C   C1        1.0  0.26119492144607653  0.2972435101978448  0.8555759568124729  1.0000
  C   C2        1.0  0.7612019483603234  0.20275861618518584  0.14442115195077324  1.0000
  C   C3        1.0  0.7387942836920446  0.7027574170240456  0.14442150254271272  1.0000
  C   C4        1.0  0.23880218009523455  0.7972431387633844  0.8555805226598141  1.0000
  C   C5        1.0  0.3691918091236346  0.32030918216883464  0.9476100085005612  1.0000
  C   C6        1.0  0.8691950590492823  0.1796855348560484  0.05238283713034521  1.0000
  C   C7        1.0  0.6307924215712504  0.6796844315257716  0.0523874175849244  1.0000
  C   C8        1.0  0.1308024368112797  0.8203163497763553  0.9476125208339141  1.0000
  C   C9        1.0  0.2634332916838176  0.4216875381642424  0.0051892097133717  1.0000
  C   C10       1.0  0.7634322795335609  0.07829427051428442  0.9948176330639812  1.0000
  C   C11       1.0  0.7365360157045018  0.5782913043930761  0.9948151683297228  1.0000
  C   C12       1.0  0.2365652163406509  0.9216871849153138  0.005193074099857099  1.0000
  C   C13       1.0  0.8850536076237319  0.5944680716829253  0.6231453298302653  1.0000
  C   C14       1.0  0.3850645478946432  0.9055313086387358  0.3768573676501248  1.0000
  C   C15       1.0  0.11495217896332122  0.4055356557340488  0.3768493346011469  1.0000
  C   C16       1.0  0.6149511875847155  0.09446207449019543  0.623151288027117  1.0000
  C   C17       1.0  0.7641746198643415  0.5791709108737565  0.5410478349408478  1.0000
  C   C18       1.0  0.26417932773228614  0.9208332588440343  0.4589542024871491  1.0000
  C   C19       1.0  0.23582619229706836  0.4208456440448956  0.45894548401440716  1.0000
  C   C20       1.0  0.7358347496024533  0.07915919568616661  0.5410551508811281  1.0000
  C   C21       1.0  0.5675102372047222  0.5099372318251413  0.5426624639262911  1.0000
  C   C22       1.0  0.06752336978488671  0.9900756416343909  0.45733262660400703  1.0000
  C   C23       1.0  0.4324839423654723  0.4900877237263329  0.4573224702625609  1.0000
  C   C24       1.0  0.9324973401314409  0.009920498473341902  0.5426753396994428  1.0000
  C   C25       1.0  0.503748065511637  0.46054592051959287  0.6296977745178085  1.0000
  C   C26       1.0  0.0037632039029133996  0.03945933973521681  0.37030149700172643  1.0000
  C   C27       1.0  0.49624445590482213  0.5394661931271116  0.370289206997434  1.0000
  C   C28       1.0  0.996245899006766  0.9605357853300236  0.6297113780915566  1.0000
  C   C29       1.0  0.6328083400841038  0.4812195546139151  0.708562840403893  1.0000
  C   C30       1.0  0.13280815854263042  0.018778188697297096  0.2914356735727992  1.0000
  C   C31       1.0  0.367195788352106  0.5187879160223546  0.2914276295647867  1.0000
  C   C32       1.0  0.8671943117748383  0.9812151944428322  0.7085729821056005  1.0000
  N   N1        1.0  0.1236534002591441  0.3715354475845416  0.8075912808797696  1.0000
  N   N2        1.0  0.6236621494105988  0.12846685331103908  0.19240865917996794  1.0000
  N   N3        1.0  0.8763424374561737  0.6284664370492621  0.1924040770846318  1.0000
  N   N4        1.0  0.3763386627607375  0.8715348440055593  0.8075958228295265  1.0000
  N   N5        1.0  0.07117120353916559  0.3134550170261436  0.7263218445807169  1.0000
  N   N6        1.0  0.5711887271581518  0.1865482722265882  0.2736788106055315  1.0000
  N   N7        1.0  0.9288296086087372  0.6865468964208503  0.27367210968394323  1.0000
  N   N8        1.0  0.4288270083281205  0.8134533530339497  0.72632918065095  1.0000
  N   N9        1.0  0.1730608022801405  0.20881825652654137  0.7250070423896917  1.0000
  N   N10       1.0  0.6730752289870665  0.2911858613985459  0.2749893881542036  1.0000
  N   N11       1.0  0.8269433261576111  0.7911845855177829  0.2749862141837909  1.0000
  N   N12       1.0  0.3269355320550673  0.7088167645097913  0.7250143961635376  1.0000
  N   N13       1.0  0.2929796900512827  0.19557885866375813  0.8049742628333832  1.0000
  N   N14       1.0  0.7929805192083492  0.30442604310319865  0.1950186417861133  1.0000
  N   N15       1.0  0.7070227802437403  0.8044248831646998  0.1950196997486628  1.0000
  N   N16       1.0  0.2070120022321476  0.6955803116297333  0.8049816499199951  1.0000
  N   N17       1.0  0.8214489518336379  0.546319770350806  0.7061032542752204  1.0000
  N   N18       1.0  0.32144469420194355  0.953685202487094  0.2938994792104808  1.0000
  N   N19       1.0  0.1785568347615722  0.45369034199751473  0.2938921411172046  1.0000
  N   N20       1.0  0.6785544598247384  0.04630633786427302  0.7061098700003257  1.0000
  O   O1        1.0  0.2195742980793369  0.5229873975171344  0.9667902464719873  1.0000
  O   O2        1.0  0.7196045987393946  0.9770058627515752  0.0332124506476177  1.0000
  O   O3        1.0  0.780373453423465  0.4770015732076159  0.0332106680711206  1.0000
  O   O4        1.0  0.2804045041665759  0.022999448097692707  0.9667941535451876  1.0000
  O   O5        1.0  0.2330379999019385  0.395432566542965  0.0921065584595979  1.0000
  O   O6        1.0  0.7330499158286443  0.10456242350721824  0.907884205278492  1.0000
  O   O7        1.0  0.7669462307863739  0.6045592619948579  0.9078887537593943  1.0000
  O   O8        1.0  0.26696416147520813  0.8954413903549181  0.09210624805426451  1.0000
