data_image0
_chemical_formula_structural       Cu2H22C18S2N8O10F6
_chemical_formula_sum              "Cu2 H22 C18 S2 N8 O10 F6"
_cell_length_a       5.513334913578101
_cell_length_b       10.159951053630357
_cell_length_c       13.147280834669093
_cell_angle_alpha    93.09905874526854
_cell_angle_beta     88.83065274912117
_cell_angle_gamma    109.35130568771224

_space_group_name_H-M_alt    "P 1"
_space_group_IT_number       1

loop_
  _space_group_symop_operation_xyz
  'x, y, z'

loop_
  _atom_site_type_symbol
  _atom_site_label
  _atom_site_symmetry_multiplicity
  _atom_site_fract_x
  _atom_site_fract_y
  _atom_site_fract_z
  _atom_site_occupancy
  Cu  Cu1       1.0  0.7091551890859973  0.9056787451216902  0.934045173990043  1.0000
  Cu  Cu2       1.0  0.2908352819240605  0.09431181646871069  0.0659536286478684  1.0000
  H   H1        1.0  0.4042700921305667  0.5630558109509707  0.2562020026399381  1.0000
  H   H2        1.0  0.5957130015246435  0.43693773008861564  0.7437946812802352  1.0000
  H   H3        1.0  0.13373490890892717  0.6009581841553029  0.3020354699506953  1.0000
  H   H4        1.0  0.8662702068659197  0.3990437677637502  0.6979723562433267  1.0000
  H   H5        1.0  0.4401868184240669  0.6999249199718208  0.3500841809120559  1.0000
  H   H6        1.0  0.5598320843687787  0.3000707094989466  0.6499088344823107  1.0000
  H   H7        1.0  0.884626170248829  0.5401431899250966  0.07149108402831672  1.0000
  H   H8        1.0  0.11534343950410887  0.4598560666444627  0.9285089602376219  1.0000
  H   H9        1.0  0.5610102601734964  0.47653848613050076  0.1156980128498759  1.0000
  H   H10       1.0  0.43898562821663484  0.5234592786452411  0.8843050052674641  1.0000
  H   H11       1.0  0.7960496288467523  0.6005378814425981  0.19145782382504714  1.0000
  H   H12       1.0  0.20393510508638701  0.39946195760636277  0.8085369337211861  1.0000
  H   H13       1.0  0.958667391735041  0.7437463724772754  0.3736508212457324  1.0000
  H   H14       1.0  0.04135771982988249  0.25626702465969237  0.6263683176851345  1.0000
  H   H15       1.0  0.2410182865324087  0.8818475607336819  0.4111176430277156  1.0000
  H   H16       1.0  0.75902527738436  0.11817192475308498  0.5888889113099935  1.0000
  H   H17       1.0  0.9382389415416056  0.9092279459091799  0.41372354904272873  1.0000
  H   H18       1.0  0.061796827934010395  0.0907950677973446  0.5862938558580097  1.0000
  H   H19       1.0  0.8705031694206654  0.024240831109359803  0.2942374380094037  1.0000
  H   H20       1.0  0.12949383166642284  0.9757661389412746  0.7057683843244719  1.0000
  H   H21       1.0  0.9596684565529898  0.7012051895863536  0.8564866499006956  1.0000
  H   H22       1.0  0.04032113025104416  0.2987912737566987  0.14351933567782282  1.0000
  C   C1        1.0  0.36936088875519607  0.7499444573906403  0.19910141978478896  1.0000
  C   C2        1.0  0.630621919973528  0.2500489382795976  0.8008990612026068  1.0000
  C   C3        1.0  0.2617535905453677  0.8587673565827316  0.1934178970668796  1.0000
  C   C4        1.0  0.7382456260164147  0.14123591406340813  0.8065778231770083  1.0000
  C   C5        1.0  0.33587775644768664  0.6490214612802703  0.2805512828211505  1.0000
  C   C6        1.0  0.6641169716296673  0.35097418836891586  0.7194523762052399  1.0000
  C   C7        1.0  0.5147371166691528  0.7592091740606294  0.10912091398309093  1.0000
  C   C8        1.0  0.48523784008337856  0.24077273002342284  0.8908781521698546  1.0000
  C   C9        1.0  0.6790715686785447  0.6851762896240885  0.06381408750136332  1.0000
  C   C10       1.0  0.32091672857909254  0.31480617864293947  0.9361789288716339  1.0000
  C   C11       1.0  0.7340248773526312  0.5691598841228896  0.11251065711041972  1.0000
  C   C12       1.0  0.2659570137178022  0.4308283437859259  0.887489531262773  1.0000
  C   C13       1.0  0.09967308068117112  0.9035049475963034  0.26451922385246013  1.0000
  C   C14       1.0  0.900346721580739  0.0964966019235334  0.7354817375427631  1.0000
  C   C15       1.0  0.05682381882807134  0.8568315336703943  0.37138855057461484  1.0000
  C   C16       1.0  0.9432068181939642  0.14318442222013059  0.6286208417794655  1.0000
  C   C17       1.0  0.3793524292145633  0.6568510535369186  0.5931606128384814  1.0000
  C   C18       1.0  0.6206616118876411  0.34315582314961557  0.40683151362239306  1.0000
  S   S1        1.0  0.30765643762238415  0.7642738634535675  0.7015258578132305  1.0000
  S   S2        1.0  0.6923521050316879  0.23572183068188932  0.2984580227389912  1.0000
  N   N1        1.0  0.49378724317047323  0.8662461901170105  0.05557666017045902  1.0000
  N   N2        1.0  0.5061672718288364  0.13374614611246466  0.9444328790762597  1.0000
  N   N3        1.0  0.3439181909440235  0.9251275366895725  0.10448238468931953  1.0000
  N   N4        1.0  0.6560591568145213  0.07488315331843148  0.8955205932379615  1.0000
  N   N5        1.0  0.7746343388926602  0.7325327941750287  0.9761994392514312  1.0000
  N   N6        1.0  0.2253489974170293  0.2674576942296838  0.023796311145496008  1.0000
  N   N7        1.0  0.9838035171760138  0.9915039461893898  0.24048382327294607  1.0000
  N   N8        1.0  0.0162026208582375  0.008496112416608491  0.7595200909962472  1.0000
  O   O1        1.0  0.9269350178598827  0.6663130264986066  0.9270110642923941  1.0000
  O   O2        1.0  0.07304312956067352  0.3336853657483232  0.07299045778223962  1.0000
  O   O3        1.0  0.9867068451313797  0.04967266729816091  0.15266028141452642  1.0000
  O   O4        1.0  0.013284743919442003  0.9503168114145809  0.8473407438583181  1.0000
  O   O5        1.0  0.34228245877274327  0.8970694900887111  0.6540723202930678  1.0000
  O   O6        1.0  0.6577087624156731  0.1029285686841916  0.3459192956821866  1.0000
  O   O7        1.0  0.041647816598597696  0.6863076511601917  0.7279927236099368  1.0000
  O   O8        1.0  0.9583702771627499  0.3136931568494461  0.2719990619249373  1.0000
  O   O9        1.0  0.497505968301631  0.7687666364092323  0.7781787442420696  1.0000
  O   O10       1.0  0.5024953444204527  0.23124316483723115  0.2218089743203251  1.0000
  F   F1        1.0  0.6181065115168918  0.7195882868107757  0.5550544592935154  1.0000
  F   F2        1.0  0.3819034969832628  0.2804112014697536  0.4449395306422944  1.0000
  F   F3        1.0  0.3662073087842542  0.528451621044681  0.6227875024584365  1.0000
  F   F4        1.0  0.6338194312715045  0.47155866894262033  0.37720482363984337  1.0000
  F   F5        1.0  0.20651880129278052  0.638380334693906  0.51725554115896  1.0000
  F   F6        1.0  0.7935101654750126  0.3616206703158582  0.4827385444970602  1.0000
