data_image0
_chemical_formula_structural       C54Cl2H26N16Zn4
_chemical_formula_sum              "C54 Cl2 H26 N16 Zn4"
_cell_length_a       18.858764015574106
_cell_length_b       18.855572157037532
_cell_length_c       18.529625594078478
_cell_angle_alpha    110.1571965165872
_cell_angle_beta     110.14593702671395
_cell_angle_gamma    103.16326396449492

_space_group_name_H-M_alt    "P 1"
_space_group_IT_number       1

loop_
  _space_group_symop_operation_xyz
  'x, y, z'

loop_
  _atom_site_type_symbol
  _atom_site_label
  _atom_site_symmetry_multiplicity
  _atom_site_fract_x
  _atom_site_fract_y
  _atom_site_fract_z
  _atom_site_occupancy
  C   C1        1.0  0.45460332700708517  0.2575581405631197  0.9582870390028545  1.0000
  C   C2        1.0  0.6853016945218329  0.38760542980782003  0.9478935414175068  1.0000
  C   C3        1.0  0.25695217744608106  0.25691520374044063  0.7188041505032743  1.0000
  C   C4        1.0  0.5881713541367335  0.5130780289999208  0.8620956032890845  1.0000
  C   C5        1.0  0.5129801166947414  0.5881917529729177  0.8620812428439776  1.0000
  C   C6        1.0  0.6426849956687093  0.7176627239441866  0.16603686016544103  1.0000
  C   C7        1.0  0.7176073284873966  0.6426571743980103  0.1659696857553498  1.0000
  C   C8        1.0  0.38753714230954  0.6852988902759944  0.9478849920899035  1.0000
  C   C9        1.0  0.5702511656905357  0.5703249512218703  0.8335575056523084  1.0000
  C   C10       1.0  0.7242996886629455  0.724303872742368  0.20361234753171675  1.0000
  C   C11       1.0  0.7584985767777965  0.4144382978650896  0.023997365869306026  1.0000
  C   C12       1.0  0.4143695066629434  0.7585143755881488  0.023998219178856986  1.0000
  C   C13       1.0  0.2575304773396354  0.4546633205730402  0.9582775874728711  1.0000
  C   C14       1.0  0.9694043324469988  0.0530062145227175  0.5510987866869498  1.0000
  C   C15       1.0  0.054748524366608646  0.9691061358760605  0.5493446746050523  1.0000
  C   C16       1.0  0.9797167195466586  0.893853280595124  0.4691846153206072  1.0000
  C   C17       1.0  0.8941440958039233  0.9780004439597428  0.47086796131642883  1.0000
  C   C18       1.0  0.7944059239588411  0.7943378927290037  0.27183184778463215  1.0000
  C   C19       1.0  0.0499225307784741  0.049794305459300886  0.5486880389109174  1.0000
  C   C20       1.0  0.9224027838121673  0.9222294964745075  0.4131702803623512  1.0000
  C   C21       1.0  0.3359384079920246  0.4794654670172134  0.0918461301334545  1.0000
  C   C22       1.0  0.4793797133047732  0.3360180796276708  0.09183411618723622  1.0000
  C   C23       1.0  0.971738434014533  0.9732958424346091  0.3836597330293756  1.0000
  C   C24       1.0  0.0463619041347698  0.048011618756184794  0.4631148751395102  1.0000
  C   C25       1.0  0.8523120668476667  0.852157743138477  0.33715796994849256  1.0000
  C   C26       1.0  0.12228354815486135  0.12216328078633855  0.6189400424588456  1.0000
  C   C27       1.0  0.1846926123057884  0.18463370549601874  0.665207380902572  1.0000
  C   C28       1.0  0.182556954696544  0.44272405706631446  0.04453143797567084  1.0000
  C   C29       1.0  0.7357505250337297  0.4402442456878714  0.09064696437096824  1.0000
  C   C30       1.0  0.4425427550426733  0.18260371526795882  0.04450504559767404  1.0000
  C   C31       1.0  0.11644244639530395  0.4343687003200926  0.04591253027931684  1.0000
  C   C32       1.0  0.4341144401886012  0.11645771170317681  0.045858324976101976  1.0000
  C   C33       1.0  0.044137655994795404  0.4274129932683832  0.045836623675775436  1.0000
  C   C34       1.0  0.4271651783433086  0.04413629308783122  0.04576016571958517  1.0000
  C   C35       1.0  0.44019880327352445  0.7357653581735588  0.09063377498414114  1.0000
  C   C36       1.0  0.9765726613389631  0.4228387319190004  0.042724999489912874  1.0000
  C   C37       1.0  0.4226372643624784  0.9765730465813502  0.04265130589754306  1.0000
  C   C38       1.0  0.9030088887595297  0.4188226572934963  0.037509090315360406  1.0000
  C   C39       1.0  0.41868559943802786  0.9030199956463318  0.03747495014009408  1.0000
  C   C40       1.0  0.6126502122614353  0.537584353662012  0.3019574037722065  1.0000
  C   C41       1.0  0.5375390468679058  0.6126394744068547  0.3019444720147248  1.0000
  C   C42       1.0  0.8352599401082872  0.41609637734734406  0.03145574438710953  1.0000
  C   C43       1.0  0.41599705368447804  0.8352733741463607  0.0314559064875012  1.0000
  C   C44       1.0  0.5933093944667575  0.5934236662450655  0.7781618344880171  1.0000
  C   C45       1.0  0.6039907196481451  0.604100912320632  0.7201330704181927  1.0000
  C   C46       1.0  0.6090526232316263  0.6091441698802382  0.6514986382890625  1.0000
  C   C47       1.0  0.6083076252594068  0.6083743385791391  0.5841945367344934  1.0000
  C   C48       1.0  0.6031342625153258  0.6031856402544091  0.508410799993662  1.0000
  C   C49       1.0  0.5952000365105263  0.5952304593491815  0.43693324481080237  1.0000
  C   C50       1.0  0.2642982581702853  0.338910100767066  0.7521682330555562  1.0000
  C   C51       1.0  0.3389352091073333  0.2642909941172531  0.7522036231481408  1.0000
  C   C52       1.0  0.45597643670600974  0.25336428261957167  0.03374681813195927  1.0000
  C   C53       1.0  0.25331388960648826  0.45609059137979796  0.0337536266890054  1.0000
  C   C54       1.0  0.5833905760643885  0.5834132629819064  0.3541734086291653  1.0000
  Cl  Cl1       1.0  0.4382632173509577  0.1786565533466557  0.8665421957877867  1.0000
  Cl  Cl2       1.0  0.17863045737873048  0.43829420940607366  0.8664848533047476  1.0000
  H   H1        1.0  0.971815130162675  0.053852688162770126  0.611525546806206  1.0000
  H   H2        1.0  0.8526338472215255  0.9978869552144041  0.4318130685474911  1.0000
  H   H3        1.0  0.9994421166167341  0.8532990832286129  0.428920297974301  1.0000
  H   H4        1.0  0.043998585114117396  0.10597995369057857  0.4640265285951557  1.0000
  H   H5        1.0  0.1042481067683525  0.04691949517518877  0.4627861955816357  1.0000
  H   H6        1.0  0.9306947611772358  0.9925727088073371  0.3433188460547854  1.0000
  H   H7        1.0  0.9910171615603005  0.9334104087258479  0.34218681078093016  1.0000
  H   H8        1.0  0.05690615296942485  0.9703524761781491  0.6098318805040177  1.0000
  H   H9        1.0  0.3621866177019155  0.48962010420873964  0.15846213389284708  1.0000
  H   H10       1.0  0.48952789758861576  0.36231607426727663  0.1584534996538949  1.0000
  H   H11       1.0  0.6507770279303315  0.5041044135981918  0.3165247710011839  1.0000
  H   H12       1.0  0.5040282995686809  0.6507424015920547  0.31649458109948364  1.0000
  H   H13       1.0  0.2159881586319301  0.36201578951930447  0.7427930969123081  1.0000
  H   H14       1.0  0.362041247032387  0.21599293301771627  0.7428641424544365  1.0000
  H   H15       1.0  0.6301490242941269  0.48350239740906154  0.8548869267861788  1.0000
  H   H16       1.0  0.4833515974722999  0.6301178210463333  0.8548571531288117  1.0000
  H   H17       1.0  0.6192829851720915  0.7659004179086747  0.17554788237313074  1.0000
  H   H18       1.0  0.7658227007486431  0.6192074229712502  0.17544282629776825  1.0000
  H   H19       1.0  0.7731645689736552  0.46527227469523064  0.16005575442968467  1.0000
  H   H20       1.0  0.4652309616605024  0.7731734662391004  0.16003923557092736  1.0000
  H   H21       1.0  0.3619184453813772  0.6746805590441552  0.8810792206455742  1.0000
  H   H22       1.0  0.6747144161605476  0.36199212216128984  0.8810942490920726  1.0000
  H   H23       1.0  0.8580709711825351  0.9412202802317822  0.4906171533368136  1.0000
  H   H24       1.0  0.1125467761006218  0.9663969807404839  0.5500130229414494  1.0000
  H   H25       1.0  0.9441123663413292  0.8567240268696633  0.4890169729476879  1.0000
  H   H26       1.0  0.965591171169443  0.11088573801657015  0.5531100647391086  1.0000
  N   N1        1.0  0.47390805603728126  0.3350550335680891  0.9705469325453178  1.0000
  N   N2        1.0  0.5397506988083762  0.5863090893829149  0.22592725603575997  1.0000
  N   N3        1.0  0.5863205717800993  0.5397773669917425  0.22593823111660766  1.0000
  N   N4        1.0  0.34380037773538413  0.3905758076252822  0.8022932069542604  1.0000
  N   N5        1.0  0.39059553352446835  0.3437954863753417  0.8023129691219706  1.0000
  N   N6        1.0  0.5430851564883596  0.4970187908053844  0.90149680809057  1.0000
  N   N7        1.0  0.49695926888907854  0.5431139421553722  0.901495466441105  1.0000
  N   N8        1.0  0.33502538417953787  0.4739092034590369  0.9705543797449535  1.0000
  N   N9        1.0  0.5917311350345354  0.6379360592465698  0.11274547340569531  1.0000
  N   N10       1.0  0.6378686311204618  0.5917540908660326  0.11271620501502592  1.0000
  N   N11       1.0  0.65635982067095  0.4294424476141926  0.05674548535229452  1.0000
  N   N12       1.0  0.4294175266995594  0.6563675906508661  0.05672842493068214  1.0000
  N   N13       1.0  0.396852247956467  0.625102171281469  0.9680113348673983  1.0000
  N   N14       1.0  0.6251005855783802  0.3968948755735225  0.9680238517740704  1.0000
  N   N15       1.0  0.38393147310892317  0.49058762126586675  0.05352001409620743  1.0000
  N   N16       1.0  0.49056054625552287  0.38398863733736005  0.05349719983592387  1.0000
  Zn  Zn1       1.0  0.5064189147594717  0.38817846687641816  0.901807619518351  1.0000
  Zn  Zn2       1.0  0.38811928835627185  0.5064060296391443  0.901783248504827  1.0000
  Zn  Zn3       1.0  0.4851844392436959  0.5952157715696058  0.11448523783714397  1.0000
  Zn  Zn4       1.0  0.5952327920265928  0.48521481933916233  0.11451860728205066  1.0000
