data_image0
_chemical_formula_structural       Ni6H28C16O28
_chemical_formula_sum              "Ni6 H28 C16 O28"
_cell_length_a       6.302277273676739
_cell_length_b       8.006877817001126
_cell_length_c       15.580247846724353
_cell_angle_alpha    89.99997082629203
_cell_angle_beta     94.28340411142469
_cell_angle_gamma    90.00005709457697

_space_group_name_H-M_alt    "P 1"
_space_group_IT_number       1

loop_
  _space_group_symop_operation_xyz
  'x, y, z'

loop_
  _atom_site_type_symbol
  _atom_site_label
  _atom_site_symmetry_multiplicity
  _atom_site_fract_x
  _atom_site_fract_y
  _atom_site_fract_z
  _atom_site_occupancy
  Ni  Ni1       1.0  0.5136895306453937  0.8117345849768541  0.5230126669481407  1.0000
  Ni  Ni2       1.0  0.5136920777978203  0.6882659767898148  0.023011883088557308  1.0000
  Ni  Ni3       1.0  0.48630953816100936  0.18826560935558942  0.4769875506776131  1.0000
  Ni  Ni4       1.0  0.48630861388313923  0.31173421754356667  0.9769877547776034  1.0000
  Ni  Ni5       1.0  0.9999994769476716  1.4129100165000003e-06  0.5000001151163644  1.0000
  Ni  Ni6       1.0  2.944211416913666e-07  0.5000013852467121  0.9999999420494063  1.0000
  H   H1        1.0  0.24444269280670738  0.6373969877224683  0.2560707311525547  1.0000
  H   H2        1.0  0.2444420526052014  0.8626006315430462  0.7560664382759511  1.0000
  H   H3        1.0  0.755554753125139  0.3626032066090375  0.7439300662327852  1.0000
  H   H4        1.0  0.7555587671725307  0.13739831386536855  0.24393063662726183  1.0000
  H   H5        1.0  0.7918291863419358  0.7386938511781839  0.30032666125689644  1.0000
  H   H6        1.0  0.7918345660745842  0.7613029210495059  0.8003271209713461  1.0000
  H   H7        1.0  0.20816822756553682  0.26130634315299534  0.699674776869216  1.0000
  H   H8        1.0  0.2081708661310628  0.23869477543287598  0.19967334057943728  1.0000
  H   H9        1.0  0.3263437553258015  0.044401669555576  0.5975757479982705  1.0000
  H   H10       1.0  0.3263449624119871  0.45559839507724587  0.0975761226708798  1.0000
  H   H11       1.0  0.6736553455049757  0.9555985247771875  0.4024238288867039  1.0000
  H   H12       1.0  0.6736557292689723  0.5444017992561357  0.9024235151952879  1.0000
  H   H13       1.0  0.8560954786741066  0.6676148960960832  0.4853165217915247  1.0000
  H   H14       1.0  0.8560977604183507  0.8323879936953775  0.9853168430666628  1.0000
  H   H15       1.0  0.14390203130723486  0.33238654716232946  0.5146829941121212  1.0000
  H   H16       1.0  0.14390280316583673  0.16761344956297822  0.014685357762452602  1.0000
  H   H17       1.0  0.6899514593979814  0.5257967600638056  0.4716512218089903  1.0000
  H   H18       1.0  0.6899539081579958  0.9742047590448738  0.9716515102106058  1.0000
  H   H19       1.0  0.3100492322829709  0.4742034342695762  0.5283484160571703  1.0000
  H   H20       1.0  0.31004831032439034  0.0257954352884795  0.028349470118293103  1.0000
  H   H21       1.0  0.19262167435078936  0.7219628419634888  0.6089130373764887  1.0000
  H   H22       1.0  0.1926242952004031  0.7780361267407231  0.1089128734486167  1.0000
  H   H23       1.0  0.8073757715810572  0.278037352368017  0.3910877600088511  1.0000
  H   H24       1.0  0.8073763004074196  0.22196406759169213  0.8910886866398682  1.0000
  H   H25       1.0  0.41111133414913326  0.6513686018309387  0.6517151277433869  1.0000
  H   H26       1.0  0.4111156610094326  0.8486280050734439  0.1517143676923354  1.0000
  H   H27       1.0  0.5888877666823761  0.348632841428092  0.3482844491414454  1.0000
  H   H28       1.0  0.5888882123689427  0.15136719355611927  0.8482853921367806  1.0000
  C   C1        1.0  0.18327001353720357  0.7351053982652618  0.38393048095846893  1.0000
  C   C2        1.0  0.1832754935709033  0.7648945452305259  0.8839290176184208  1.0000
  C   C3        1.0  0.8167289912219147  0.26489729391906275  0.6160710181485385  1.0000
  C   C4        1.0  0.8167283798111455  0.23510689803035942  0.11607074220997048  1.0000
  C   C5        1.0  0.1182143400002147  0.6825368598193368  0.2944275649904284  1.0000
  C   C6        1.0  0.11821355056510902  0.8174606197039797  0.7944252047996655  1.0000
  C   C7        1.0  0.8817846967825459  0.31746458343904754  0.7055732933759558  1.0000
  C   C8        1.0  0.8817872051638673  0.18253832570378142  0.2055731515850923  1.0000
  C   C9        1.0  0.8503866374553866  0.6581232073346188  0.1692389911892107  1.0000
  C   C10       1.0  0.8503857806990709  0.8418749884439977  0.6692385475615623  1.0000
  C   C11       1.0  0.14961402220045983  0.3418757380721757  0.8307612874178716  1.0000
  C   C12       1.0  0.14961491098114976  0.15812395696312365  0.3307610903047475  1.0000
  C   C13       1.0  0.916875055072609  0.6974568739510476  0.2603715779357572  1.0000
  C   C14       1.0  0.9168789565686667  0.8025412875323  0.7603706856285086  1.0000
  C   C15       1.0  0.08312083203342982  0.30254332038015985  0.7396285177276241  1.0000
  C   C16       1.0  0.0831249488355539  0.19745640895011016  0.2396284334595435  1.0000
  O   O1        1.0  0.036982705184705394  0.7753182429567504  0.4329017892810541  1.0000
  O   O2        1.0  0.03698645093707851  0.724681534210106  0.9329021965035623  1.0000
  O   O3        1.0  0.9630147407478801  0.2246832003010227  0.5670990081041366  1.0000
  O   O4        1.0  0.963015799569682  0.2753186601235741  0.0670981430845572  1.0000
  O   O5        1.0  0.38235356054264  0.7414362765770125  0.4041630369663238  1.0000
  O   O6        1.0  0.38235900109702925  0.7585650580016152  0.9041622158343898  1.0000
  O   O7        1.0  0.6176455402903399  0.2585676645345459  0.5958365399182171  1.0000
  O   O8        1.0  0.6176448722857585  0.2414376341855302  0.0958375439938521  1.0000
  O   O9        1.0  0.6514791839171752  0.6452679380812613  0.1494375272560546  1.0000
  O   O10       1.0  0.6514782782521708  0.8547313641913663  0.6494383621299492  1.0000
  O   O11       1.0  0.3485183260626954  0.35473100732462376  0.8505619886478827  1.0000
  O   O12       1.0  0.3485207905535006  0.1452675812148101  0.3505618554959469  1.0000
  O   O13       1.0  0.9966565557448915  0.6405558952826811  0.11691658032597023  1.0000
  O   O14       1.0  0.9966541288271952  0.8594424700563085  0.6169160716449796  1.0000
  O   O15       1.0  0.0033424490112850007  0.3594418011965886  0.8830849187816199  1.0000
  O   O16       1.0  0.003344972004320802  0.14055897320272243  0.3830835052398527  1.0000
  O   O17       1.0  0.31424318381420585  0.014547360692837701  0.5367540436223095  1.0000
  O   O18       1.0  0.31424127638329213  0.48545275305313157  0.0367536486714855  1.0000
  O   O19       1.0  0.6857559170173104  0.985454082566193  0.4632455332625227  1.0000
  O   O20       1.0  0.6857594152976674  0.5145474412802503  0.9632459891946752  1.0000
  O   O21       1.0  0.7349035079952344  0.6154396899557499  0.512740472557681  1.0000
  O   O22       1.0  0.7349062542962272  0.8845610615139139  0.01274028393735451  1.0000
  O   O23       1.0  0.2650940019853607  0.3845605043763953  0.487259043346107  1.0000
  O   O24       1.0  0.2650927504614202  0.11543913281788323  0.9872612151699443  1.0000
  O   O25       1.0  0.31961130241289487  0.6504094151481894  0.5983447420195205  1.0000
  O   O26       1.0  0.31961400752897623  0.8495884180578418  0.0983445615055771  1.0000
  O   O27       1.0  0.6803877663935082  0.34959077918425424  0.4016554756062262  1.0000
  O   O28       1.0  0.6803882109534031  0.15041177627551147  0.9016564188233218  1.0000
