data_image0
_chemical_formula_structural       Dy2H12C12N2O16
_chemical_formula_sum              "Dy2 H12 C12 N2 O16"
_cell_length_a       6.717548636651303
_cell_length_b       7.85629192735835
_cell_length_c       9.204119090961507
_cell_angle_alpha    95.73228602239159
_cell_angle_beta     111.16754590008026
_cell_angle_gamma    94.07069526365585

_space_group_name_H-M_alt    "P 1"
_space_group_IT_number       1

loop_
  _space_group_symop_operation_xyz
  'x, y, z'

loop_
  _atom_site_type_symbol
  _atom_site_label
  _atom_site_symmetry_multiplicity
  _atom_site_fract_x
  _atom_site_fract_y
  _atom_site_fract_z
  _atom_site_occupancy
  Dy  Dy1       1.0  0.37365167306798236  0.7633037870445492  0.215949878605798  1.0000
  Dy  Dy2       1.0  0.6263492469236098  0.23669677096599878  0.7840513559768708  1.0000
  H   H1        1.0  0.7549398976560299  0.2640603850365294  0.3848130712999946  1.0000
  H   H2        1.0  0.24505156544457654  0.7359413885394303  0.6151803745880499  1.0000
  H   H3        1.0  0.9661582236202478  0.22934659728752388  0.558398984319588  1.0000
  H   H4        1.0  0.033824602700548205  0.770649986222523  0.4415972113800563  1.0000
  H   H5        1.0  0.03353143502103247  0.8371680482894917  0.7697759225503444  1.0000
  H   H6        1.0  0.9664686726287712  0.16282608464364756  0.23023107853961716  1.0000
  H   H7        1.0  0.7887393455242699  0.715029889998476  0.7411659115932421  1.0000
  H   H8        1.0  0.21125982989644854  0.28496937711056347  0.25883802014750756  1.0000
  H   H9        1.0  0.9287629197393201  0.574523984394247  0.09232786161890513  1.0000
  H   H10       1.0  0.0712423972280334  0.42548560621404613  0.9076741904870145  1.0000
  H   H11       1.0  0.8885193689094207  0.7696052930562374  0.11598361435459022  1.0000
  H   H12       1.0  0.111480627534192  0.23040040146814536  0.8840156398194735  1.0000
  C   C1        1.0  0.8451021941201449  0.4673650959183107  0.5714324641898827  1.0000
  C   C2        1.0  0.15489300045679497  0.5326405659851831  0.42856445233415735  1.0000
  C   C3        1.0  0.9048064836925677  0.3252627429663235  0.4788067528755561  1.0000
  C   C4        1.0  0.09518659449877728  0.6747390453798301  0.521189287130184  1.0000
  C   C5        1.0  0.8860354161429455  0.76856198093229  0.6794364141029731  1.0000
  C   C6        1.0  0.11396535700629327  0.23143729627106777  0.32056793387425125  1.0000
  C   C7        1.0  0.7597843806433956  0.8958419730913079  0.5767529418654502  1.0000
  C   C8        1.0  0.24021778262422797  0.10415601703360271  0.4232473131585265  1.0000
  C   C9        1.0  0.6095325170447623  0.9648837140885077  0.01661798279233293  1.0000
  C   C10       1.0  0.39049507875078854  0.0351015694297061  0.9833878139789292  1.0000
  C   C11       1.0  0.5856704088384602  0.4735428727329277  0.07401876497016954  1.0000
  C   C12       1.0  0.41431872323355623  0.5264653197594384  0.9259746155813031  1.0000
  N   N1        1.0  0.9390459670554918  0.6274468329803324  0.5901057916694865  1.0000
  N   N2        1.0  0.060951429069902495  0.37255113387544714  0.4098964814669016  1.0000
  O   O1        1.0  0.7088152895247433  0.42940749044678467  0.6313088128071839  1.0000
  O   O2        1.0  0.2911727878709057  0.5705929704436626  0.3686814692994103  1.0000
  O   O3        1.0  0.7501937073055559  0.039763144109727505  0.6466233386747147  1.0000
  O   O4        1.0  0.24981054630431743  0.9602387125587056  0.35337452604571945  1.0000
  O   O5        1.0  0.6758794596883247  0.8511233537831371  0.42947137677299435  1.0000
  O   O6        1.0  0.32411888602838695  0.1488694835726179  0.5705361435938341  1.0000
  O   O7        1.0  0.7209994187062562  0.014069991991597398  0.9409157752776519  1.0000
  O   O8        1.0  0.27901295211463406  0.985920358233052  0.059094095422267345  1.0000
  O   O9        1.0  0.6597623700988821  0.8617263428810417  0.11902994841294401  1.0000
  O   O10       1.0  0.3402550441867191  0.1382665875512501  0.8809694995042104  1.0000
  O   O11       1.0  0.7239656470822878  0.38344600436836623  0.04964180139835846  1.0000
  O   O12       1.0  0.2760318194037125  0.6165648142375983  0.9503539671900253  1.0000
  O   O13       1.0  0.5786901846781022  0.5264675768572002  0.20554551674293714  1.0000
  O   O14       1.0  0.42130394818961747  0.4735419430908791  0.7944536217076743  1.0000
  O   O15       1.0  0.9955907743146427  0.6930696296744471  0.10398047735152713  1.0000
  O   O16       1.0  0.004415077023750787  0.3069322370882972  0.8960178036053815  1.0000
