data_image0
_chemical_formula_structural       Zn2H12C26N2Cl2O8
_chemical_formula_sum              "Zn2 H12 C26 N2 Cl2 O8"
_cell_length_a       9.638441456629236
_cell_length_b       11.06887456898725
_cell_length_c       16.13349523165364
_cell_angle_alpha    89.74476027463577
_cell_angle_beta     90.19143993921749
_cell_angle_gamma    89.95670004881606

_space_group_name_H-M_alt    "P 1"
_space_group_IT_number       1

loop_
  _space_group_symop_operation_xyz
  'x, y, z'

loop_
  _atom_site_type_symbol
  _atom_site_label
  _atom_site_symmetry_multiplicity
  _atom_site_fract_x
  _atom_site_fract_y
  _atom_site_fract_z
  _atom_site_occupancy
  Zn  Zn1       1.0  0.643314959083888  0.5015835827480403  0.4999882340911057  1.0000
  Zn  Zn2       1.0  0.35668588222685566  0.4984159612097585  0.5000111220326391  1.0000
  H   H1        1.0  0.36499010297134044  0.6720866104649232  0.05081791938558671  1.0000
  H   H2        1.0  0.6350107373451976  0.32791473870743465  0.949182672022076  1.0000
  H   H3        1.0  0.6021230410271629  0.6880678873107726  0.9475426482581072  1.0000
  H   H4        1.0  0.39787779526823647  0.31193617135419777  0.052458556409739315  1.0000
  H   H5        1.0  0.2602350784588836  0.48361138013631705  0.9494806007123631  1.0000
  H   H6        1.0  0.739762647547728  0.5163908699613345  0.050519984563195015  1.0000
  H   H7        1.0  0.3480491849637061  0.1174004823962917  0.5932535850183529  1.0000
  H   H8        1.0  0.651954766862218  0.8825981631423971  0.4067439177389717  1.0000
  H   H9        1.0  0.1329985437251224  0.356870487935936  0.5837212578724689  1.0000
  H   H10       1.0  0.8670022983534337  0.6431299577937468  0.4162793357260811  1.0000
  H   H11       1.0  0.866823362161071  0.3566947206458124  0.5829707197996046  1.0000
  H   H12       1.0  0.1331774809116908  0.643303919869318  0.4170286385150349  1.0000
  C   C1        1.0  0.49983153009186754  0.7367446015967544  0.5003181774156078  1.0000
  C   C2        1.0  0.5001713892777532  0.2632540397612289  0.49968180335935136  1.0000
  C   C3        1.0  0.4146456212092033  0.0655963744912356  0.5521612214814127  1.0000
  C   C4        1.0  0.5853593719274457  0.9344022693803996  0.4478381420881804  1.0000
  C   C5        1.0  0.5021481450120645  0.12758870230668154  0.49759439527180405  1.0000
  C   C6        1.0  0.49785581060861256  0.8724099407258236  0.5024049669840522  1.0000
  C   C7        1.0  0.07215903674210722  0.42025480783396313  0.5466640156282949  1.0000
  C   C8        1.0  0.9278407652906537  0.5797456387273813  0.4533353369908257  1.0000
  C   C9        1.0  0.9277171113929581  0.4202448564591635  0.546362496038036  1.0000
  C   C10       1.0  0.072283734706744  0.5797528797778996  0.4536374843003302  1.0000
  C   C11       1.0  0.4993916123003429  0.5009494123832569  0.3378582700610551  1.0000
  C   C12       1.0  0.5006009286562545  0.49905283184797594  0.6621435483114909  1.0000
  C   C13       1.0  0.55700598750105  0.6045467901901559  0.9718257757972569  1.0000
  C   C14       1.0  0.4429938110076677  0.3954554632565321  0.028173572440096002  1.0000
  C   C15       1.0  0.4247708269787652  0.5956372033067937  0.027299189061210406  1.0000
  C   C16       1.0  0.5752279370409211  0.4043641450227042  0.9727007798861254  1.0000
  C   C17       1.0  0.4994464096941441  0.5007303848974659  0.24847081962859371  1.0000
  C   C18       1.0  0.5005502593256353  0.49927277949925764  0.7515210844825262  1.0000
  C   C19       1.0  0.6333955064603385  0.5091464373551559  0.027279291722457806  1.0000
  C   C20       1.0  0.3666042950753123  0.4908549118134644  0.9727206785386218  1.0000
  C   C21       1.0  0.5014727654117692  0.5003316367104348  0.08523613314948622  1.0000
  C   C22       1.0  0.4985280723749383  0.4996697141327077  0.9147632185924838  1.0000
  C   C23       1.0  0.5004311593840356  0.5004238872072123  0.17291067094819826  1.0000
  C   C24       1.0  0.4995655493452844  0.49957834868499884  0.8270998303391226  1.0000
  C   C25       1.0  0.4121637200634964  0.9398059452829844  0.5552313108784761  1.0000
  C   C26       1.0  0.5878433463430639  0.06019360370956411  0.44476805312771023  1.0000
  N   N1        1.0  0.8571791970145242  0.5001021830743967  0.49971449553110875  1.0000
  N   N2        1.0  0.14282164732316013  0.4998964566053417  0.50028548261637  1.0000
  Cl  Cl1       1.0  0.30607931093630464  0.8709786989184424  0.6277122518165259  1.0000
  Cl  Cl2       1.0  0.6939225688846165  0.12901904066393405  0.372285870337045  1.0000
  O   O1        1.0  0.6189666815437319  0.6871906596551228  0.4990422180955036  1.0000
  O   O2        1.0  0.3810383161554753  0.31280888348220504  0.5009602424474195  1.0000
  O   O3        1.0  0.3833673427565572  0.6833238596897928  0.49818503627806643  1.0000
  O   O4        1.0  0.616638690922997  0.31667388074289704  0.5018149506289902  1.0000
  O   O5        1.0  0.6178464008820368  0.5032144503576604  0.3734386428622544  1.0000
  O   O6        1.0  0.3821492526224688  0.4967877963909474  0.626563179451509  1.0000
  O   O7        1.0  0.3813502112378941  0.49882363863986273  0.3733935693905154  1.0000
  O   O8        1.0  0.6186423231234031  0.5011768053891928  0.626603294701056  1.0000
