data_image0
_chemical_formula_structural       Zn8H88C104N24O32
_chemical_formula_sum              "Zn8 H88 C104 N24 O32"
_cell_length_a       13.391724979002039
_cell_length_b       13.597807001004732
_cell_length_c       20.366277580004436
_cell_angle_alpha    89.99992633895752
_cell_angle_beta     89.99998301821104
_cell_angle_gamma    90.00006095612969

_space_group_name_H-M_alt    "P 1"
_space_group_IT_number       1

loop_
  _space_group_symop_operation_xyz
  'x, y, z'

loop_
  _atom_site_type_symbol
  _atom_site_label
  _atom_site_symmetry_multiplicity
  _atom_site_fract_x
  _atom_site_fract_y
  _atom_site_fract_z
  _atom_site_occupancy
  Zn  Zn1       1.0  0.16407237912097375  0.42897116676535063  0.307805680389734  1.0000
  Zn  Zn2       1.0  0.3359282008135622  0.07102996876786699  0.8078058765450109  1.0000
  Zn  Zn3       1.0  0.3359294374746042  0.9289698934837319  0.6921952803523085  1.0000
  Zn  Zn4       1.0  0.16407248196974683  0.5710287437406335  0.19219440918505631  1.0000
  Zn  Zn5       1.0  0.8359275645757477  0.571029348978996  0.6921948940891127  1.0000
  Zn  Zn6       1.0  0.6640709961528659  0.9289698115629148  0.19219518894196602  1.0000
  Zn  Zn7       1.0  0.6640719996806864  0.07102915143504158  0.3078062761425073  1.0000
  Zn  Zn8       1.0  0.8359267149970079  0.4289710365915623  0.8078051832786884  1.0000
  H   H1        1.0  0.421206728132809  0.7519469571622037  0.2594127756152602  1.0000
  H   H2        1.0  0.07879142738761398  0.748054492178305  0.7594113970635732  1.0000
  H   H3        1.0  0.0787926568365691  0.2519451009451926  0.7405883369595756  1.0000
  H   H4        1.0  0.42120720664274114  0.24805248705683172  0.2405887368344537  1.0000
  H   H5        1.0  0.5787932155638059  0.24805355858166675  0.740588289871326  1.0000
  H   H6        1.0  0.921207769578629  0.25194455274071714  0.2405886864082305  1.0000
  H   H7        1.0  0.9212080335901687  0.7480554148004899  0.2594112555037071  1.0000
  H   H8        1.0  0.5787927370533622  0.7519472932738653  0.7594128196601915  1.0000
  H   H9        1.0  0.4925336447918697  0.8907434633054265  0.4429430565619726  1.0000
  H   H10       1.0  0.007462187873038301  0.6092605740059652  0.9429437749958326  1.0000
  H   H11       1.0  0.007462156623567801  0.3907382090476901  0.5570564639467436  1.0000
  H   H12       1.0  0.4925340558727526  0.10925605556857217  0.057056968953723704  1.0000
  H   H13       1.0  0.5074662989046813  0.10925631702716741  0.5570565359017012  1.0000
  H   H14       1.0  0.9925377558233989  0.3907392063261525  0.05705630847558041  1.0000
  H   H15       1.0  0.9925377870724715  0.6092608358717229  0.44294361952498923  1.0000
  H   H16       1.0  0.5074666345533672  0.8907437247634675  0.9429436055253645  1.0000
  H   H17       1.0  0.2909306558928861  0.642674684744364  0.4383056144661951  1.0000
  H   H18       1.0  0.2090696592381107  0.8573256844446959  0.938304116785247  1.0000
  H   H19       1.0  0.20907085109774928  0.14267330962137953  0.5616946098147295  1.0000
  H   H20       1.0  0.29093207988036335  0.3573260939494317  0.0616949413748884  1.0000
  H   H21       1.0  0.709068541074153  0.35732583100006116  0.5616944690049763  1.0000
  H   H22       1.0  0.790930284458831  0.14267483130059588  0.06169547567810701  1.0000
  H   H23       1.0  0.7909305860579819  0.8573257352992911  0.4383049826491145  1.0000
  H   H24       1.0  0.7090693572764477  0.6426751572088706  0.9383051420957502  1.0000
  H   H25       1.0  0.2562855373534418  0.9826153961773515  0.5579527659984934  1.0000
  H   H26       1.0  0.24371270890927121  0.5173849705654517  0.05795241631712142  1.0000
  H   H27       1.0  0.24371335033530533  0.48261502329600603  0.44204716671772104  1.0000
  H   H28       1.0  0.25628567567326843  0.017385118131109295  0.9420464424002547  1.0000
  H   H29       1.0  0.7437144063431022  0.0173843841552426  0.44204682646518023  1.0000
  H   H30       1.0  0.7562864880578813  0.48261554517944916  0.9420471761463107  1.0000
  H   H31       1.0  0.7562858466314496  0.5173847570361899  0.5579524257460236  1.0000
  H   H32       1.0  0.7437142680236802  0.9826153976141824  0.05795315006310631  1.0000
  H   H33       1.0  0.25260414551657817  0.9237478900538888  0.4786290176014631  1.0000
  H   H34       1.0  0.24739540472234012  0.5762538722527636  0.9786287355350611  1.0000
  H   H35       1.0  0.24739542524120847  0.42374663274991775  0.521371456613018  1.0000
  H   H36       1.0  0.25260379025051793  0.07625211311317767  0.021370563699392203  1.0000
  H   H37       1.0  0.7473957981799656  0.07625189027870502  0.5213705748622104  1.0000
  H   H38       1.0  0.75260453897409  0.42374590807935414  0.0213713479363591  1.0000
  H   H39       1.0  0.7526045184556198  0.576253882994898  0.47862862685808255  1.0000
  H   H40       1.0  0.7473961534463173  0.9237484026316383  0.9786295197717083  1.0000
  H   H41       1.0  0.35953737609755615  0.991280135484473  0.5031464678739823  1.0000
  H   H42       1.0  0.14046164158177277  0.5087210722877559  0.0031456547531405  1.0000
  H   H43       1.0  0.1404615209607485  0.4912788135066535  0.49685394841870334  1.0000
  H   H44       1.0  0.3595367336311099  0.0087204868905602  0.9968532113955039  1.0000
  H   H45       1.0  0.6404625675989947  0.008719644848120801  0.49685312458969133  1.0000
  H   H46       1.0  0.8595383021150624  0.4912794434570599  0.9968544287179598  1.0000
  H   H47       1.0  0.8595384227354046  0.5087202314132354  0.50314564404529  1.0000
  H   H48       1.0  0.640462463335936  0.9912800288538649  0.003146872075667801  1.0000
  H   H49       1.0  0.5046454421049589  0.6205799937276524  0.5043250312818587  1.0000
  H   H50       1.0  0.9953554434357629  0.8794209996802992  0.004325304023531402  1.0000
  H   H51       1.0  0.9953549224654664  0.1205783100532116  0.49567511443562046  1.0000
  H   H52       1.0  0.5046444543199086  0.3794207805225652  0.9956751106951671  1.0000
  H   H53       1.0  0.49535599505106376  0.37941978660524717  0.49567505218941227  1.0000
  H   H54       1.0  0.004644500260958798  0.12057951606404768  0.9956752704553156  1.0000
  H   H55       1.0  0.004645021230679399  0.8794207348666774  0.5043244780283658  1.0000
  H   H56       1.0  0.49535548937692647  0.6205797352222503  0.0043249727759331015  1.0000
  H   H57       1.0  0.4022754663142649  0.5564850147953352  0.5367468010686312  1.0000
  H   H58       1.0  0.09772502968984752  0.9435161282262143  0.03674709638560361  1.0000
  H   H59       1.0  0.0977244540101978  0.0564837128376539  0.4632530061288946  1.0000
  H   H60       1.0  0.40227530917541543  0.4435149168981453  0.9632533608737149  1.0000
  H   H61       1.0  0.5977252241119615  0.44351476553716646  0.46325328240271096  1.0000
  H   H62       1.0  0.9022749140061918  0.05648291669319858  0.9632529870861292  1.0000
  H   H63       1.0  0.9022739962271656  0.9435168029068565  0.5367465863346084  1.0000
  H   H64       1.0  0.5977246345215264  0.5564855988471463  0.0367462315896461  1.0000
  H   H65       1.0  0.5575922335925014  0.5013695371008425  0.592745260700717  1.0000
  H   H66       1.0  0.9424071186612721  0.9986305505012397  0.09274544152315661  1.0000
  H   H67       1.0  0.9424057618732248  0.0013687038144923  0.40725449625477955  1.0000
  H   H68       1.0  0.55759216127975  0.49863055715383103  0.9072543799426428  1.0000
  H   H69       1.0  0.442407710103936  0.4986302432312755  0.4072548227706961  1.0000
  H   H70       1.0  0.05759357176495429  0.0013692298312619998  0.9072546419481855  1.0000
  H   H71       1.0  0.0575941818232124  0.9986310765176258  0.5927455872166406  1.0000
  H   H72       1.0  0.44240778241719175  0.5013699585914608  0.0927452125207111  1.0000
  H   H73       1.0  0.48119134241220957  0.5638133338154602  0.6507666444173241  1.0000
  H   H74       1.0  0.018808355503928502  0.9361868540681115  0.1507669614110512  1.0000
  H   H75       1.0  0.018807839108276898  0.0638136398111797  0.3492331564941439  1.0000
  H   H76       1.0  0.48119122870623704  0.4361866804749964  0.8492330111264154  1.0000
  H   H77       1.0  0.5188086012846255  0.4361871819293556  0.3492334390537764  1.0000
  H   H78       1.0  0.9811923349222977  0.06381292626439719  0.8492331220602907  1.0000
  H   H79       1.0  0.981192104588551  0.936186875933636  0.6507669269769565  1.0000
  H   H80       1.0  0.518808714990314  0.5638130998575903  0.15076658133725834  1.0000
  H   H81       1.0  0.5864168109613885  0.623638509564735  0.6168134230309124  1.0000
  H   H82       1.0  0.913584023910957  0.8763615316568548  0.11681371434399072  1.0000
  H   H83       1.0  0.9135828101876343  0.12363842790379921  0.3831867200626888  1.0000
  H   H84       1.0  0.586416617266117  0.37636161485834674  0.8831867029985858  1.0000
  H   H85       1.0  0.4135838794652358  0.37636200618047166  0.3831866604401172  1.0000
  H   H86       1.0  0.0864166665155608  0.12363898408788289  0.8831868601347851  1.0000
  H   H87       1.0  0.08641638677901399  0.8763613524279277  0.6168133634087951  1.0000
  H   H88       1.0  0.41358332643032  0.6236381654737712  0.11681338047282713  1.0000
  C   C1        1.0  0.2922053376372419  0.6137988322871949  0.3068579436871844  1.0000
  C   C2        1.0  0.20779130305211882  0.8862003193855584  0.8068549484658902  1.0000
  C   C3        1.0  0.207795391395031  0.1137920546358728  0.6931373952852982  1.0000
  C   C4        1.0  0.292205240184586  0.3862019477413626  0.19314113888221845  1.0000
  C   C5        1.0  0.7077946060637713  0.3862075667635096  0.6931377207117038  1.0000
  C   C6        1.0  0.7922064004517252  0.11379063599957111  0.19313826090112232  1.0000
  C   C7        1.0  0.7922082859483338  0.886201106990491  0.3068558140801798  1.0000
  C   C8        1.0  0.7077924633247293  0.6138007742432379  0.8068559985416925  1.0000
  C   C9        1.0  0.35071986291364254  0.6890212499269026  0.3449571605789146  1.0000
  C   C10       1.0  0.14927676061627435  0.8109815053873176  0.844956205316727  1.0000
  C   C11       1.0  0.14927721381744158  0.18901889692121188  0.6550435149595162  1.0000
  C   C12       1.0  0.3507219414636182  0.31097812051957874  0.155043383602127  1.0000
  C   C13       1.0  0.6492785873244032  0.31098073664254133  0.6550429228917025  1.0000
  C   C14       1.0  0.8507231830794735  0.1890168041198592  0.1550433871475789  1.0000
  C   C15       1.0  0.850723476609467  0.8109823542362307  0.34495705951894007  1.0000
  C   C16       1.0  0.649279495691779  0.6890209243996708  0.8449576818849495  1.0000
  C   C17       1.0  0.4126932519695856  0.755909305207048  0.3124912028366539  1.0000
  C   C18       1.0  0.08730413291290519  0.7440920418464501  0.8124903170309282  1.0000
  C   C19       1.0  0.0873053905550449  0.25590682477550786  0.6875079423090753  1.0000
  C   C20       1.0  0.4126937501032799  0.24409086551558087  0.1875088382498902  1.0000
  C   C21       1.0  0.5873066917274697  0.24409121053871977  0.6875078986189608  1.0000
  C   C22       1.0  0.9126950640535652  0.2559070030735171  0.18750878442538982  1.0000
  C   C23       1.0  0.9126952998714017  0.7440929555579459  0.3124911591467807  1.0000
  C   C24       1.0  0.5873061935939531  0.7559103856419397  0.8124912452208974  1.0000
  C   C25       1.0  0.4637173297173191  0.8281819811587141  0.34790951944376053  1.0000
  C   C26       1.0  0.0362800392113343  0.6718185622282392  0.8479087055772396  1.0000
  C   C27       1.0  0.036279150774206  0.32817951557417047  0.6520915277454338  1.0000
  C   C28       1.0  0.4637192591071013  0.1718182429675394  0.15209149370696912  1.0000
  C   C29       1.0  0.5362811205194261  0.17181779917214612  0.6520910550355481  1.0000
  C   C30       1.0  0.9637199044845914  0.32818048269069783  0.15209186890223952  1.0000
  C   C31       1.0  0.9637200461920442  0.6718195293448516  0.3479085557263702  1.0000
  C   C32       1.0  0.5362829247796768  0.8281837436029137  0.8479095717787645  1.0000
  C   C33       1.0  0.45247679396702273  0.8339659306070784  0.4159685924069905  1.0000
  C   C34       1.0  0.04751830411726841  0.6660366878599363  0.9159697453394031  1.0000
  C   C35       1.0  0.0475174525898083  0.3339621371180855  0.5840299947834211  1.0000
  C   C36       1.0  0.45248024121725183  0.16603354634437303  0.08403045890516132  1.0000
  C   C37       1.0  0.5475201628104712  0.1660338497244211  0.5840305090492279  1.0000
  C   C38       1.0  0.9524816395791689  0.33396309247218176  0.08403033813200982  1.0000
  C   C39       1.0  0.952482491106345  0.6660369078018036  0.41596959768057223  1.0000
  C   C40       1.0  0.5475211959384793  0.8339654985762978  0.9159691335586827  1.0000
  C   C41       1.0  0.39083121926567804  0.7669094662771696  0.44813601748140297  1.0000
  C   C42       1.0  0.10916685124860241  0.7330923547911254  0.9481356278541925  1.0000
  C   C43       1.0  0.10916594169503209  0.26690727012337584  0.5518641002450835  1.0000
  C   C44       1.0  0.39083326006124963  0.23309068156412846  0.0518645188764566  1.0000
  C   C45       1.0  0.6091672309715718  0.2330910494668714  0.5518640659898466  1.0000
  C   C46       1.0  0.8908338391772261  0.2669066901286783  0.051864455617469205  1.0000
  C   C47       1.0  0.8908332552721205  0.7330932456215249  0.4481354922183485  1.0000
  C   C48       1.0  0.6091681770946593  0.7669090987682952  0.9481360556025535  1.0000
  C   C49       1.0  0.3400520685488289  0.6942271650681633  0.41324700737366993  1.0000
  C   C50       1.0  0.15994751113948522  0.8057732524102832  0.9132455634890064  1.0000
  C   C51       1.0  0.15994874746183999  0.19422642565485398  0.5867536636986231  1.0000
  C   C52       1.0  0.34005342549927053  0.3057729296253057  0.08675353888764901  1.0000
  C   C53       1.0  0.6599463816879167  0.30577261526269683  0.5867535671056316  1.0000
  C   C54       1.0  0.8400539260161395  0.19422579250991132  0.08675451998257702  1.0000
  C   C55       1.0  0.8400526896937776  0.8057726192653403  0.4132464197729605  1.0000
  C   C56       1.0  0.6599472649273536  0.6942275861199008  0.9132465445833802  1.0000
  C   C57       1.0  0.5323074940764697  0.8992508626621712  0.3138404189804973  1.0000
  C   C58       1.0  0.9676939987785573  0.6007473280495573  0.8138395819327046  1.0000
  C   C59       1.0  0.9676931718576541  0.39925687250121905  0.6861555596578413  1.0000
  C   C60       1.0  0.5323048508839107  0.10074207912762032  0.1861566527348302  1.0000
  C   C61       1.0  0.46769543653632434  0.10074229896049053  0.6861562274392625  1.0000
  C   C62       1.0  0.032305944920239  0.3992553939366843  0.1861570644832469  1.0000
  C   C63       1.0  0.03230602511114  0.6007458494836798  0.3138420687736669  1.0000
  C   C64       1.0  0.46769434608130206  0.8992540241429551  0.8138409756995132  1.0000
  C   C65       1.0  0.34160308083702523  0.852612131111414  0.5514641460986098  1.0000
  C   C66       1.0  0.15839666180795584  0.6473882481363232  0.05146370155361521  1.0000
  C   C67       1.0  0.15839715972415291  0.3526123918421434  0.4485363891277459  1.0000
  C   C68       1.0  0.3416033568212811  0.1473884724924091  0.9485365186839804  1.0000
  C   C69       1.0  0.6583968628594122  0.14738764922070396  0.44853593737281017  1.0000
  C   C70       1.0  0.8416025351594884  0.35261300302080667  0.9485363819172363  1.0000
  C   C71       1.0  0.8416027839723982  0.6473873884904506  0.5514632033359277  1.0000
  C   C72       1.0  0.6583965868754402  0.8526120432519307  0.051464055794866716  1.0000
  C   C73       1.0  0.4109517946914281  0.706781286321167  0.5648770604069285  1.0000
  C   C74       1.0  0.08904868864209449  0.7932198024915992  0.0648769953162684  1.0000
  C   C75       1.0  0.0890475414356899  0.20678002949097163  0.4351231088904158  1.0000
  C   C76       1.0  0.41095148769111484  0.2932193898659321  0.9351230998429828  1.0000
  C   C77       1.0  0.589048895734912  0.2932184940118177  0.43512253205666707  1.0000
  C   C78       1.0  0.9109512550547337  0.20678071325322378  0.9351230881548319  1.0000
  C   C79       1.0  0.9109516555309511  0.7932197508407552  0.5648769745810683  1.0000
  C   C80       1.0  0.5890484560057202  0.7067811258788836  0.0648769836281176  1.0000
  C   C81       1.0  0.29976162598986633  0.9426479804140938  0.5209548544111514  1.0000
  C   C82       1.0  0.20023813039735222  0.5573524576272959  0.0209544789289211  1.0000
  C   C83       1.0  0.20023871193724568  0.4426482261436817  0.47904609459988734  1.0000
  C   C84       1.0  0.2997610441362682  0.05735257939731041  0.9790448365163232  1.0000
  C   C85       1.0  0.7002390644367579  0.0573525353311197  0.47904522905987795  1.0000
  C   C86       1.0  0.7997610665695805  0.44264805811666014  0.979046095549997  1.0000
  C   C87       1.0  0.7997612317590778  0.5573515541879671  0.520954479879272  1.0000
  C   C88       1.0  0.7002388995606736  0.9426479363479813  0.020954755947038  1.0000
  C   C89       1.0  0.4601888686693343  0.611057803334269  0.5494206638956172  1.0000
  C   C90       1.0  0.03981162162610019  0.8889433152637308  0.0494210173140175  1.0000
  C   C91       1.0  0.039810363941114715  0.111056465185321  0.450579096495325  1.0000
  C   C92       1.0  0.46018865822378535  0.38894292438634176  0.9505794867516428  1.0000
  C   C93       1.0  0.539811821757297  0.3889427124109375  0.450579419575412  1.0000
  C   C94       1.0  0.9601883220702233  0.11105646506791089  0.950579557165142  1.0000
  C   C95       1.0  0.9601880862962487  0.8889440505591895  0.5494204959681781  1.0000
  C   C96       1.0  0.5398112854731565  0.6110575913589499  0.0494201057117181  1.0000
  C   C97       1.0  0.5250206625377558  0.5728097037937587  0.6056754311599165  1.0000
  C   C98       1.0  0.9749786838922885  0.9271910943035521  0.10567566690335178  1.0000
  C   C99       1.0  0.9749774101840245  0.07280819410291169  0.39432426452218294  1.0000
  C   C100      1.0  0.5250205187929708  0.42719109178241144  0.8943247068432711  1.0000
  C   C101      1.0  0.4749792811590794  0.427190811951057  0.394324652311184  1.0000
  C   C102      1.0  0.0250212598040349  0.07280868602808971  0.8943249075758075  1.0000
  C   C103      1.0  0.025021040052543197  0.9271908508161957  0.6056753279419524  1.0000
  C   C104      1.0  0.47497942490397094  0.5728094239628801  0.10567488562008262  1.0000
  N   N1        1.0  0.3486320234698113  0.8330765704391537  0.6150953203067361  1.0000
  N   N2        1.0  0.1513676905138865  0.6669236861865073  0.11509486037714818  1.0000
  N   N3        1.0  0.1513674492348116  0.3330754756093626  0.38490523167577356  1.0000
  N   N4        1.0  0.3486316025116381  0.16692404052155035  0.8849048520973283  1.0000
  N   N5        1.0  0.6513679202270238  0.16692394530566187  0.38490476316436434  1.0000
  N   N6        1.0  0.8486322531825509  0.33307609414561046  0.8849052230942721  1.0000
  N   N7        1.0  0.8486324944616257  0.6669243047227481  0.6150948517956395  1.0000
  N   N8        1.0  0.651368341184792  0.8330757398105677  0.11509523137408449  1.0000
  N   N9        1.0  0.3922760884426708  0.7421155939039964  0.6238053414227381  1.0000
  N   N10       1.0  0.10772511507777688  0.7578853813503412  0.12380481198798782  1.0000
  N   N11       1.0  0.1077232858954389  0.24211447017935228  0.3761952885763337  1.0000
  N   N12       1.0  0.39227502304434125  0.2578850627354968  0.8761953134772967  1.0000
  N   N13       1.0  0.6077246019839535  0.2578849218412103  0.3761947420482912  1.0000
  N   N14       1.0  0.8922755753484494  0.24211439898216014  0.8761952714833612  1.0000
  N   N15       1.0  0.8922751643414132  0.7578853101519769  0.6238047948952286  1.0000
  N   N16       1.0  0.6077241739223069  0.7421147175962302  0.12380476999419443  1.0000
  N   N17       1.0  0.37988862899738507  0.773911257763295  0.517808050331027  1.0000
  N   N18       1.0  0.12010963534758187  0.7260891863410917  0.017808036759525702  1.0000
  N   N19       1.0  0.12011003299561909  0.2739106781518998  0.4821920613892346  1.0000
  N   N20       1.0  0.37988897492997614  0.22608865049950563  0.9821921159773482  1.0000
  N   N21       1.0  0.620112061428955  0.22608852256968962  0.48219154213257553  1.0000
  N   N22       1.0  0.8798903083492532  0.27391132940373103  0.9821920467115747  1.0000
  N   N23       1.0  0.8798906574307211  0.7260891021810778  0.517807531074361  1.0000
  N   N24       1.0  0.6201117154962502  0.7739111298329959  0.0178079674939937  1.0000
  O   O1        1.0  0.26093149994361653  0.5397978815149216  0.3392153887748108  1.0000
  O   O2        1.0  0.23907110001070458  0.9602048848664566  0.8392152700285109  1.0000
  O   O3        1.0  0.23907213598538854  0.03979855307644439  0.6607834507184478  1.0000
  O   O4        1.0  0.2609314970902759  0.4602013949548933  0.16078468191000186  1.0000
  O   O5        1.0  0.7390691904834554  0.46020263423218216  0.6607827306652468  1.0000
  O   O6        1.0  0.7609288436879424  0.039798572530124005  0.1607838314258387  1.0000
  O   O7        1.0  0.7609285544435096  0.9602063751445086  0.3392171237584307  1.0000
  O   O8        1.0  0.7390691933336343  0.5397947083126766  0.8392168745861497  1.0000
  O   O9        1.0  0.27764188989937816  0.6319113622684894  0.24651455867515182  1.0000
  O   O10       1.0  0.22235701816032358  0.8680908473382444  0.7465159952167114  1.0000
  O   O11       1.0  0.2223588587207601  0.1319081606319301  0.7534861658459918  1.0000
  O   O12       1.0  0.27764174567903416  0.36808940251641087  0.2534855087500318  1.0000
  O   O13       1.0  0.7223580537996241  0.3680935659515966  0.7534865068095442  1.0000
  O   O14       1.0  0.7776421788044631  0.1319067267525327  0.2534870343021823  1.0000
  O   O15       1.0  0.7776433251650728  0.868093090523452  0.24651735467877967  1.0000
  O   O16       1.0  0.722356704556077  0.6319081715744517  0.7465170297611934  1.0000
  O   O17       1.0  0.5548737032860629  0.9769163089051388  0.3452801003036187  1.0000
  O   O18       1.0  0.9451255352190485  0.5230832920441059  0.8452793342695486  1.0000
  O   O19       1.0  0.9451270466294872  0.47691205992779107  0.6547226858344575  1.0000
  O   O20       1.0  0.5548694968110226  0.023087687685965398  0.1547243321222211  1.0000
  O   O21       1.0  0.44512848060045235  0.023086413075176896  0.6547239112282668  1.0000
  O   O22       1.0  0.0548729150159986  0.47691354663547264  0.1547217312187641  1.0000
  O   O23       1.0  0.0548721503358536  0.5230855141653521  0.3452778886457182  1.0000
  O   O24       1.0  0.4451267132383521  0.9769172405293317  0.8452796794092947  1.0000
  O   O25       1.0  0.5623148297266454  0.8738019763021255  0.25725718560378413  1.0000
  O   O26       1.0  0.9376889288038227  0.6261941172152207  0.7572538775429152  1.0000
  O   O27       1.0  0.9376850619526208  0.37380416862075805  0.7427486350184511  1.0000
  O   O28       1.0  0.5623151754888909  0.1261976156014342  0.24274920940325026  1.0000
  O   O29       1.0  0.43768586069796817  0.1261970686124769  0.7427482989530532  1.0000
  O   O30       1.0  0.062312508351468  0.37380492770355994  0.2427476789519005  1.0000
  O   O31       1.0  0.062312641553710094  0.6261948762960684  0.2572529214767344  1.0000
  O   O32       1.0  0.43768850185750097  0.8738058417918921  0.7572552931359199  1.0000
