data_image0
_chemical_formula_structural       Cd8H32C8Se8N8
_chemical_formula_sum              "Cd8 H32 C8 Se8 N8"
_cell_length_a       6.69838361714689
_cell_length_b       7.118714027040793
_cell_length_c       16.705935612316985
_cell_angle_alpha    89.99984959058115
_cell_angle_beta     89.99933566348177
_cell_angle_gamma    90.0003832073301

_space_group_name_H-M_alt    "P 1"
_space_group_IT_number       1

loop_
  _space_group_symop_operation_xyz
  'x, y, z'

loop_
  _atom_site_type_symbol
  _atom_site_label
  _atom_site_symmetry_multiplicity
  _atom_site_fract_x
  _atom_site_fract_y
  _atom_site_fract_z
  _atom_site_occupancy
  Cd  Cd1       1.0  0.925599363666187  0.4016122561070291  0.7002799681701433  1.0000
  Cd  Cd2       1.0  0.4256015800444786  0.0983845115443316  0.7002854229778277  1.0000
  Cd  Cd3       1.0  0.5743996659335053  0.401614388994453  0.20029140635306664  1.0000
  Cd  Cd4       1.0  0.9256085593222778  0.9016193270057755  0.7997138684724587  1.0000
  Cd  Cd5       1.0  0.07440361364187709  0.5983993343344524  0.29972118404323567  1.0000
  Cd  Cd6       1.0  0.5743954257069744  0.9016186504047853  0.2997115391252762  1.0000
  Cd  Cd7       1.0  0.42560629707695335  0.5983831539645481  0.799712738807919  1.0000
  Cd  Cd8       1.0  0.0743959108180974  0.09838102544905072  0.20028907951139263  1.0000
  H   H1        1.0  0.2197505223208438  0.5546337640089335  0.5979466136464848  1.0000
  H   H2        1.0  0.7197381554451142  0.945368886608101  0.5979512965061105  1.0000
  H   H3        1.0  0.28026059781585394  0.5546217862725485  0.0979553242080584  1.0000
  H   H4        1.0  0.21977863255614952  0.05462799141353262  0.9020465324101038  1.0000
  H   H5        1.0  0.7802464835749702  0.44537782645792856  0.40204256678758543  1.0000
  H   H6        1.0  0.2802603431501041  0.05461601362282661  0.40204506701198267  1.0000
  H   H7        1.0  0.7197662658688627  0.4453869947572928  0.9020440321835608  1.0000
  H   H8        1.0  0.7802482311093045  0.9453751706239121  0.09795282398398088  1.0000
  H   H9        1.0  0.06855006471423758  0.7268763607061148  0.6243315145228934  1.0000
  H   H10       1.0  0.5685723466981543  0.7731335354855631  0.6243339540289483  1.0000
  H   H11       1.0  0.43142711650195037  0.7268442970689719  0.12433235764405032  1.0000
  H   H12       1.0  0.0685909010480188  0.2268511192922631  0.8756669535943046  1.0000
  H   H13       1.0  0.9314066328916725  0.27316753879308925  0.37566903919142186  1.0000
  H   H14       1.0  0.43141420853810075  0.2268457456736996  0.3756731841321752  1.0000
  H   H15       1.0  0.5685878039662596  0.2731434127094304  0.8756646044252818  1.0000
  H   H16       1.0  0.9314180479243319  0.7731562569467985  0.12432821271099206  1.0000
  H   H17       1.0  0.0254282491785034  0.7115720129487644  0.48460523330424365  1.0000
  H   H18       1.0  0.5254625792021415  0.788430220359345  0.48460945513075165  1.0000
  H   H19       1.0  0.47455604941315943  0.7115378898943235  0.9846121297650184  1.0000
  H   H20       1.0  0.025478285041053497  0.21155087491339236  0.015391384987566398  1.0000
  H   H21       1.0  0.97453292723457  0.2884690771002242  0.5153869401461932  1.0000
  H   H22       1.0  0.4745359192120162  0.2115251801413223  0.515392295707052  1.0000
  H   H23       1.0  0.5254872360441851  0.2884470104668608  0.015388423779192795  1.0000
  H   H24       1.0  0.9745470857387915  0.7884635250972636  0.9846097671738928  1.0000
  H   H25       1.0  0.8144533818702728  0.6038597348090635  0.5299257093418532  1.0000
  H   H26       1.0  0.31446361104190146  0.8961215666437358  0.5299219241130187  1.0000
  H   H27       1.0  0.6855461184798628  0.6038555683366411  0.029931855676565502  1.0000
  H   H28       1.0  0.8144914164805143  0.10386750019997493  0.9700736802656208  1.0000
  H   H29       1.0  0.185524216263623  0.3961630935457238  0.4700724499758308  1.0000
  H   H30       1.0  0.6855259300921687  0.10384366708237282  0.47007503802361567  1.0000
  H   H31       1.0  0.3144986597609716  0.3961349509881772  0.9700776767064099  1.0000
  H   H32       1.0  0.18554739032034462  0.8961356618651807  0.0299286690496388  1.0000
  C   C1        1.0  0.9771150931511556  0.591327133575753  0.5215786127184217  1.0000
  C   C2        1.0  0.47713585840315187  0.908662314236125  0.5215843939031541  1.0000
  C   C3        1.0  0.5228681470413646  0.5913247164221221  0.021592079908074893  1.0000
  C   C4        1.0  0.977152880055897  0.09131797948624863  0.9784152628403218  1.0000
  C   C5        1.0  0.0228371258807059  0.40869428998858137  0.4784087720437923  1.0000
  C   C6        1.0  0.5228536828423174  0.09130432426498199  0.478405385157174  1.0000
  C   C7        1.0  0.47715125198644875  0.40868125504684377  0.9784180511152127  1.0000
  C   C8        1.0  0.022854575839836896  0.908683777715197  0.021590678084358196  1.0000
  Se  Se1       1.0  0.0424140095676577  0.055549820959349516  0.6636741722662831  1.0000
  Se  Se2       1.0  0.5424091010058518  0.44444753310011725  0.6636704756599199  1.0000
  Se  Se3       1.0  0.45758278139555836  0.05555304642263081  0.16367489701556073  1.0000
  Se  Se4       1.0  0.04242361166674159  0.5555481891739548  0.836320972968494  1.0000
  Se  Se5       1.0  0.9575740387478715  0.9444617694289975  0.3363281771601691  1.0000
  Se  Se6       1.0  0.45758939759866024  0.5555556288426545  0.33632947938801283  1.0000
  Se  Se7       1.0  0.5424172101056826  0.9444473060310514  0.8363244594405825  1.0000
  Se  Se8       1.0  0.9575853371845754  0.44445497279390633  0.16368137641434538  1.0000
  N   N1        1.0  0.0715312646875361  0.5925502297571656  0.6011416054082375  1.0000
  N   N2        1.0  0.5715619320787937  0.9074528358838522  0.6011355468160459  1.0000
  N   N3        1.0  0.428442698406009  0.5925490511745013  0.10113288458409637  1.0000
  N   N4        1.0  0.07155648384561179  0.09255290953892373  0.8988605586019814  1.0000
  N   N5        1.0  0.9284254324915081  0.40744169399958713  0.39887570883882256  1.0000
  N   N6        1.0  0.42842462324114183  0.09254049276536591  0.3988691969803567  1.0000
  N   N7        1.0  0.571564757715528  0.4074667535527752  0.8988610845416004  1.0000
  N   N8        1.0  0.928446493504957  0.907434800216251  0.10113221336689548  1.0000
