data_image0
_chemical_formula_structural       Co2H36C36N8O10
_chemical_formula_sum              "Co2 H36 C36 N8 O10"
_cell_length_a       9.145005641342573
_cell_length_b       9.640032456708003
_cell_length_c       11.430869317822197
_cell_angle_alpha    73.32185305026837
_cell_angle_beta     80.70118567858268
_cell_angle_gamma    64.86817984317038

_space_group_name_H-M_alt    "P 1"
_space_group_IT_number       1

loop_
  _space_group_symop_operation_xyz
  'x, y, z'

loop_
  _atom_site_type_symbol
  _atom_site_label
  _atom_site_symmetry_multiplicity
  _atom_site_fract_x
  _atom_site_fract_y
  _atom_site_fract_z
  _atom_site_occupancy
  Co  Co1       1.0  0.3074950296328821  0.6973077687579662  0.39135583492330284  1.0000
  Co  Co2       1.0  0.6925085050242643  0.30269229939356285  0.6086453681431364  1.0000
  H   H1        1.0  0.5243711306599081  0.6693898969226382  0.13060641717415677  1.0000
  H   H2        1.0  0.4756301796824334  0.330610137487362  0.8693915911397524  1.0000
  H   H3        1.0  0.6743203827240053  0.007110378718081699  0.18143491416686433  1.0000
  H   H4        1.0  0.3256767590972061  0.9928943732200323  0.81856336020941  1.0000
  H   H5        1.0  0.4404454870685724  0.966946203263966  0.36221628172812353  1.0000
  H   H6        1.0  0.5595520208297416  0.0330549968617078  0.63778282029633  1.0000
  H   H7        1.0  0.8714332211485213  0.7570155739094844  0.057248537239416974  1.0000
  H   H8        1.0  0.1285661240347125  0.24298918202000416  0.9427476929652627  1.0000
  H   H9        1.0  0.7336904401944082  0.9289287981300303  0.962265194723244  1.0000
  H   H10       1.0  0.2663076754760283  0.07107358065243831  0.0377317858225936  1.0000
  H   H11       1.0  0.9672124141739933  0.813813665760101  0.5572783318617951  1.0000
  H   H12       1.0  0.03279307167375119  0.18618166103850337  0.4427211566978002  1.0000
  H   H13       1.0  0.05222465690114567  0.3327469758628609  0.7126830249302359  1.0000
  H   H14       1.0  0.9477814437029861  0.6672495395092569  0.2873160884587805  1.0000
  H   H15       1.0  0.30061585380214234  0.3547657603544323  0.5397071960459741  1.0000
  H   H16       1.0  0.6993886547042364  0.6452319346414583  0.46029271319002873  1.0000
  H   H17       1.0  0.8050099118136129  0.5241828621625615  0.7856728212952362  1.0000
  H   H18       1.0  0.19499029335559467  0.4758171652933924  0.2143253359504557  1.0000
  H   H19       1.0  0.7246305055343357  0.7185202253284898  0.693730075068224  1.0000
  H   H20       1.0  0.2753734985867737  0.2814786314534317  0.30626611531290143  1.0000
  H   H21       1.0  0.8702651321289352  0.8075901179265159  0.7965222941281667  1.0000
  H   H22       1.0  0.1297344547917447  0.19240871599756557  0.2034753651340822  1.0000
  H   H23       1.0  0.984057574876786  0.6135152729144195  0.8774668576649134  1.0000
  H   H24       1.0  0.015941041686801258  0.3864859391236665  0.122532968581794  1.0000
  H   H25       1.0  0.6136260789445841  0.76803633121326  0.9082946681268992  1.0000
  H   H26       1.0  0.38637364279213665  0.23196488777886512  0.09170500918802567  1.0000
  H   H27       1.0  0.7475927716463598  0.5937364864876856  0.003011278236535064  1.0000
  H   H28       1.0  0.25240486408372925  0.40626708878932055  0.9969880955325578  1.0000
  H   H29       1.0  0.8168867769075946  0.1086229119035735  0.4130045988633739  1.0000
  H   H30       1.0  0.18311504131214904  0.891375965678755  0.5869980014594347  1.0000
  H   H31       1.0  0.9604299788741884  0.0741134004793267  0.04114847076034782  1.0000
  H   H32       1.0  0.03956655517489329  0.9258901728019923  0.9588519250945424  1.0000
  H   H33       1.0  0.517046078704773  0.45007993769998217  0.11896665225996372  1.0000
  H   H34       1.0  0.4829507040660202  0.5499177234926409  0.8810369189605324  1.0000
  H   H35       1.0  0.7817443781471526  0.26370035791911306  0.8913485136925701  1.0000
  H   H36       1.0  0.21825314371968565  0.7363008620399895  0.10865408094796447  1.0000
  C   C1        1.0  0.5327200361084081  0.7554231756244294  0.16949751533464757  1.0000
  C   C2        1.0  0.4672798064758368  0.2445804086023173  0.8305006874168726  1.0000
  C   C3        1.0  0.6070283378807702  0.9336086968693279  0.19778040699886662  1.0000
  C   C4        1.0  0.39296806135227047  0.06639249134394021  0.8022179708033477  1.0000
  C   C5        1.0  0.4918328624846779  0.9125951544206643  0.2860160814353137  1.0000
  C   C6        1.0  0.5081652531857657  0.0874072243618045  0.713980899110524  1.0000
  C   C7        1.0  0.7497505973868784  0.8112707722241481  0.020945193650931154  1.0000
  C   C8        1.0  0.25024862345670584  0.18873161351236692  0.9790516379631313  1.0000
  C   C9        1.0  0.025235162425857927  0.686102074692883  0.573759928253388  1.0000
  C   C10       1.0  0.9747683652470299  0.3138979835419349  0.4262395285050147  1.0000
  C   C11       1.0  0.07550184434311549  0.43342947988527664  0.6561096640845747  1.0000
  C   C12       1.0  0.9245025433157465  0.5665658498759925  0.34389171971483273  1.0000
  C   C13       1.0  0.19365498800932807  0.4464694576584875  0.5681605984681256  1.0000
  C   C14       1.0  0.8063500109137961  0.5535270557179359  0.4318395370066811  1.0000
  C   C15       1.0  0.8310698013132338  0.6294247911768381  0.7445669458866746  1.0000
  C   C16       1.0  0.16893310461900057  0.3705740685677483  0.25543113973426307  1.0000
  C   C17       1.0  0.8639444298511877  0.6928329403410272  0.8412134864357697  1.0000
  C   C18       1.0  0.1360552883934004  0.3071682736927457  0.15878531772514043  1.0000
  C   C19       1.0  0.7347734197404208  0.7111548272524715  0.9455273194760211  1.0000
  C   C20       1.0  0.2652258045952891  0.2888475634424025  0.05447038529206346  1.0000
  C   C21       1.0  0.6554683271819711  0.2883069409544349  0.2749333580726017  1.0000
  C   C22       1.0  0.3445323928488975  0.7116919395905582  0.7250711374900263  1.0000
  C   C23       1.0  0.793862944061857  0.15272025522233432  0.31606149705676495  1.0000
  C   C24       1.0  0.20613776200048758  0.8472786054892294  0.6839395058897892  1.0000
  C   C25       1.0  0.902378256600187  0.07518076161795052  0.23154929744038816  1.0000
  C   C26       1.0  0.09761974869913795  0.9248192668049742  0.7684517771309132  1.0000
  C   C27       1.0  0.8740554725481786  0.1334050332302752  0.1065406425463777  1.0000
  C   C28       1.0  0.12594204582652668  0.8665961817704755  0.8934610789401419  1.0000
  C   C29       1.0  0.7365952154656981  0.2694435015461494  0.0652570489848543  1.0000
  C   C30       1.0  0.2634012012279996  0.7305577114589071  0.9347456945874556  1.0000
  C   C31       1.0  0.626215027385264  0.346152891090064  0.15005889460304905  1.0000
  C   C32       1.0  0.3737813928005592  0.6538483268733515  0.8499447221232828  1.0000
  C   C33       1.0  0.5417653759067846  0.3745701082389203  0.3649407601442221  1.0000
  C   C34       1.0  0.4582333719807109  0.6254334839088502  0.6350602110011323  1.0000
  C   C35       1.0  0.049589078679261295  0.9298255809015786  0.27452282675423595  1.0000
  C   C36       1.0  0.9504110021502968  0.07017207636139489  0.7254759319008315  1.0000
  N   N1        1.0  0.16111781642030099  0.6044891988478229  0.5171218523642054  1.0000
  N   N2        1.0  0.8388882876759708  0.3955073214826542  0.48287813417883296  1.0000
  N   N3        1.0  0.9695564992920681  0.5861181559924376  0.6584258253600126  1.0000
  N   N4        1.0  0.030446907533303053  0.41387953700775876  0.3415751059617946  1.0000
  N   N5        1.0  0.4466279354791142  0.8012781955699353  0.26751240914875035  1.0000
  N   N6        1.0  0.5533717722890827  0.19872300358876063  0.7324837755500936  1.0000
  N   N7        1.0  0.6311631167669628  0.8335551620214403  0.12402715260428483  1.0000
  N   N8        1.0  0.3688361075687467  0.16644722867343384  0.8759705521637997  1.0000
  O   O1        1.0  0.42312494104704246  0.5030400111146207  0.32416821679908037  1.0000
  O   O2        1.0  0.576875647659918  0.4969564893206879  0.6758351338648936  1.0000
  O   O3        1.0  0.5686281454618367  0.3131309492297163  0.4785695225537765  1.0000
  O   O4        1.0  0.43137650135272304  0.686869135792577  0.5214332778889315  1.0000
  O   O5        1.0  0.11315485077061992  0.9192932101655913  0.3700844780176027  1.0000
  O   O6        1.0  0.8868444909629005  0.08070088833090952  0.6299152572174337  1.0000
  O   O7        1.0  0.10578496335969585  0.8207224663451526  0.21721637602571073  1.0000
  O   O8        1.0  0.8942114253969463  0.17927870699303838  0.7827793823144445  1.0000
  O   O9        1.0  0.7045586116404933  0.3318807095124185  0.9449441488609766  1.0000
  O   O10       1.0  0.2954384198095922  0.6681216920661511  0.05505821954076152  1.0000
