data_image0
_chemical_formula_structural       Cu8H64C32S16I8
_chemical_formula_sum              "Cu8 H64 C32 S16 I8"
_cell_length_a       7.69447560604643
_cell_length_b       12.794248325024162
_cell_length_c       15.453630342118563
_cell_angle_alpha    90.000220838978
_cell_angle_beta     89.99960538404231
_cell_angle_gamma    90.00001660563335

_space_group_name_H-M_alt    "P 1"
_space_group_IT_number       1

loop_
  _space_group_symop_operation_xyz
  'x, y, z'

loop_
  _atom_site_type_symbol
  _atom_site_label
  _atom_site_symmetry_multiplicity
  _atom_site_fract_x
  _atom_site_fract_y
  _atom_site_fract_z
  _atom_site_occupancy
  Cu  Cu1       1.0  0.8380795461128939  0.49675734156129875  0.5372912217886139  1.0000
  Cu  Cu2       1.0  0.6619215255421693  0.5032411147811117  0.0372905770784584  1.0000
  Cu  Cu3       1.0  0.16192494690021422  0.9967599152361042  0.4627133057040922  1.0000
  Cu  Cu4       1.0  0.3380775140801404  0.0032419935956652986  0.9627091318388709  1.0000
  Cu  Cu5       1.0  0.1619209205866241  0.5032428410204445  0.462708631578657  1.0000
  Cu  Cu6       1.0  0.33807894116098675  0.4967559413942764  0.9627086291866647  1.0000
  Cu  Cu7       1.0  0.8380794186881745  0.0032441753565066998  0.5372884889541253  1.0000
  Cu  Cu8       1.0  0.6619203533511209  0.9967550625810162  0.0372907215278815  1.0000
  H   H1        1.0  0.979192667709725  0.3571590487825915  0.6935860675518697  1.0000
  H   H2        1.0  0.520804959664801  0.6428393497963468  0.1935915352255293  1.0000
  H   H3        1.0  0.0208026558071595  0.8571624389913025  0.3064128353788789  1.0000
  H   H4        1.0  0.47919285241924575  0.1428387459899056  0.8064086214933539  1.0000
  H   H5        1.0  0.020803900089433093  0.6428442602036882  0.3064137858271607  1.0000
  H   H6        1.0  0.4791916081327372  0.3571577063802351  0.8064083181434685  1.0000
  H   H7        1.0  0.9791913127251489  0.1428432147983969  0.693587018008401  1.0000
  H   H8        1.0  0.5208063146322246  0.8571575285901645  0.1935931731613181  1.0000
  H   H9        1.0  0.815096609127174  0.41917219953651125  0.7550186176422855  1.0000
  H   H10       1.0  0.6848975760324406  0.5808280467472499  0.2550239662507465  1.0000
  H   H11       1.0  0.18490004604960567  0.9191729869885421  0.2449804842071472  1.0000
  H   H12       1.0  0.31509890438283616  0.0808263502908417  0.7449772857437367  1.0000
  H   H13       1.0  0.18489735942612376  0.5808287646384257  0.244978000251777  1.0000
  H   H14       1.0  0.31509899176570144  0.41917135423296503  0.7449758871220168  1.0000
  H   H15       1.0  0.8150978213737902  0.08082797719720249  0.7550206633601562  1.0000
  H   H16       1.0  0.6848989630310741  0.9191722690942612  0.255025156014085  1.0000
  H   H17       1.0  0.6742147415080807  0.2500001540618014  0.7883123847681901  1.0000
  H   H18       1.0  0.8257789868183495  0.7499994648060522  0.2883164948510952  1.0000
  H   H19       1.0  0.32577922703210055  0.7500015917188417  0.2116861744185456  1.0000
  H   H20       1.0  0.17421758097051313  0.249998372974737  0.7116846527134371  1.0000
  H   H21       1.0  0.8946051059184513  0.2500018104180413  0.8208422241838633  1.0000
  H   H22       1.0  0.6053907753071427  0.7500003039072423  0.3208477432027266  1.0000
  H   H23       1.0  0.10538886261748809  0.7500007169653101  0.1791569821012615  1.0000
  H   H24       1.0  0.3946070921112081  0.24999831547636112  0.6791540514579495  1.0000
  H   H25       1.0  0.9016159221963206  0.24999960935201668  0.545130298052591  1.0000
  H   H26       1.0  0.5983837422224666  0.7499973201045763  0.0451351942014639  1.0000
  H   H27       1.0  0.09837934597314302  0.7500021364302326  0.454868908229038  1.0000
  H   H28       1.0  0.4016167244673666  0.24999973607531695  0.9548659533550748  1.0000
  H   H29       1.0  0.6877731889953084  0.24999870930771095  0.5014503164984632  1.0000
  H   H30       1.0  0.8122270747890427  0.7499972362562415  0.0014538263404233003  1.0000
  H   H31       1.0  0.31222337880323897  0.7500022548749283  0.4985495368768085  1.0000
  H   H32       1.0  0.18777469153008042  0.24999981992525014  0.9985479683110157  1.0000
  H   H33       1.0  0.531868037500459  0.5811275733085352  0.6727513191109011  1.0000
  H   H34       1.0  0.9681311754312035  0.41887463677514347  0.1727512865496408  1.0000
  H   H35       1.0  0.46814403863760384  0.08112162226529311  0.3272551105877426  1.0000
  H   H36       1.0  0.0318628802668144  0.9188757512466876  0.827256226613116  1.0000
  H   H37       1.0  0.46813892733742785  0.4188757356890704  0.3272530639301365  1.0000
  H   H38       1.0  0.0318640927015323  0.5811224194118125  0.8272530965015862  1.0000
  H   H39       1.0  0.5318590273753826  0.9188848131113758  0.672738271813671  1.0000
  H   H40       1.0  0.9681310882491444  0.08111817852932288  0.17274556804678548  1.0000
  H   H41       1.0  0.7342885253530795  0.6465515465243359  0.6845728918355221  1.0000
  H   H42       1.0  0.7657118250045086  0.35345540791374214  0.1845727020421108  1.0000
  H   H43       1.0  0.2657235845985539  0.14654003676680108  0.3154298651376664  1.0000
  H   H44       1.0  0.23428219694773836  0.8534572819755722  0.8154287773965123  1.0000
  H   H45       1.0  0.2657223384275582  0.3534580152698012  0.31542566733454436  1.0000
  H   H46       1.0  0.23428344317605365  0.646537740250672  0.8154245629343038  1.0000
  H   H47       1.0  0.7342833802631362  0.8534695250330058  0.6845712824276973  1.0000
  H   H48       1.0  0.7657156704916019  0.1465366477932619  0.1845697817709464  1.0000
  H   H49       1.0  0.4899946747780887  0.7500106598706606  0.7466967467602217  1.0000
  H   H50       1.0  0.010004252077344199  0.24999493817642093  0.24669775611234  1.0000
  H   H51       1.0  0.5100148893641716  0.24999812032365293  0.253302459507978  1.0000
  H   H52       1.0  0.989991016076786  0.7499989915982043  0.7533033914481705  1.0000
  H   H53       1.0  0.379626570228737  0.7500049467346273  0.6460739793071042  1.0000
  H   H54       1.0  0.12037373734455768  0.24999627730115032  0.14607201875990228  1.0000
  H   H55       1.0  0.6203816942616385  0.25000227026315247  0.3539278153493939  1.0000
  H   H56       1.0  0.8796215308138073  0.74999687087076  0.8539284817022192  1.0000
  H   H57       1.0  0.801270693183987  0.7499974894372626  0.4487163879319311  1.0000
  H   H58       1.0  0.6987390290512892  0.25000052747346757  0.9487167227850365  1.0000
  H   H59       1.0  0.1987362716978893  0.25000425634293316  0.5512815241351987  1.0000
  H   H60       1.0  0.30126663619081023  0.7499949654984233  0.05128183637145161  1.0000
  H   H61       1.0  0.884069611528055  0.7500008744328565  0.557498450872572  1.0000
  H   H62       1.0  0.6159337821028146  0.24999845709950816  0.0575003882715777  1.0000
  H   H63       1.0  0.1159386529869408  0.24999852654380567  0.4424994611885538  1.0000
  H   H64       1.0  0.38406538497508785  0.7499970358703578  0.9424975237989983  1.0000
  C   C1        1.0  0.843102677686744  0.35065616374219377  0.7143386976255641  1.0000
  C   C2        1.0  0.6568933653043133  0.649344675746114  0.2143430686337169  1.0000
  C   C3        1.0  0.1568939421001616  0.8506563534574026  0.2856608315350613  1.0000
  C   C4        1.0  0.3431044501303191  0.14934317222023447  0.7856584031457247  1.0000
  C   C5        1.0  0.1568925904825136  0.6493448004388395  0.2856605086548072  1.0000
  C   C6        1.0  0.3431032024851531  0.35065550683830776  0.7856580789345813  1.0000
  C   C7        1.0  0.8431039253278739  0.1493453923280512  0.7143396689363541  1.0000
  C   C8        1.0  0.6568960165556845  0.8506562287647838  0.2143433915117186  1.0000
  C   C9        1.0  0.8081850522888915  0.25000088999394887  0.7639094729615151  1.0000
  C   C10       1.0  0.691811610151781  0.7499993974615434  0.2639133990485476  1.0000
  C   C11       1.0  0.19181021588057226  0.7500008557883007  0.2360897333201137  1.0000
  C   C12       1.0  0.3081849576370814  0.24999844031923857  0.7360877485159847  1.0000
  C   C13       1.0  0.7631190413821828  0.24999807314804195  0.5616282790170217  1.0000
  C   C14       1.0  0.7368803966663579  0.7499973695080155  0.0616320493166498  1.0000
  C   C15       1.0  0.236876226786876  0.7500021094317759  0.438370927262099  1.0000
  C   C16       1.0  0.2631187703853115  0.24999968667327005  0.9383697453392799  1.0000
  C   C17       1.0  0.606352799680387  0.6502789190037176  0.6528951255361904  1.0000
  C   C18       1.0  0.8936466857130582  0.34972398072289224  0.15289448153383492  1.0000
  C   C19       1.0  0.39365671293026583  0.1502730478576808  0.3471076434071563  1.0000
  C   C20       1.0  0.10634863393656249  0.8497244175929949  0.8471082801248855  1.0000
  C   C21       1.0  0.3936515659215233  0.3497259531856115  0.3471047278318622  1.0000
  C   C22       1.0  0.1063511817131655  0.6502707306516483  0.8471060189262971  1.0000
  C   C23       1.0  0.6063528512115965  0.8497341691342084  0.6528915628585351  1.0000
  C   C24       1.0  0.8936453345927191  0.15026951217852508  0.15289157324358632  1.0000
  C   C25       1.0  0.5093713995749312  0.7500073711457417  0.6759204635550233  1.0000
  C   C26       1.0  0.9906277698667835  0.24999563521746637  0.1759211056922609  1.0000
  C   C27       1.0  0.49063816456249026  0.24999984584764698  0.3240793898078067  1.0000
  C   C28       1.0  0.009366198649175296  0.7499982945585443  0.8240806889676405  1.0000
  C   C29       1.0  0.7656303663396996  0.7500007719872741  0.517394163221411  1.0000
  C   C30       1.0  0.7343761768581275  0.24999837381418638  0.0173950440979169  1.0000
  C   C31       1.0  0.23437919780982952  0.25000175539434366  0.48260374884248597  1.0000
  C   C32       1.0  0.26562688911187843  0.7499963375577747  0.9826041621589496  1.0000
  S   S1        1.0  0.7073890837501295  0.3684123486088708  0.6191166751998197  1.0000
  S   S2        1.0  0.7926108650945026  0.6315857050910477  0.1191218142991275  1.0000
  S   S3        1.0  0.29261014448789524  0.8684130012640732  0.3808809696237319  1.0000
  S   S4        1.0  0.20738954042734284  0.1315854021948226  0.880880894704994  1.0000
  S   S5        1.0  0.2926048847848008  0.6315862707684232  0.3808825310790382  1.0000
  S   S6        1.0  0.2073909012163426  0.36841369589707545  0.8808812745503474  1.0000
  S   S7        1.0  0.7073916218489841  0.1315840549114284  0.6191182366391387  1.0000
  S   S8        1.0  0.7926070273621235  0.8684147803895996  0.1191202528633042  1.0000
  S   S9        1.0  0.6413995105158109  0.6321869311184825  0.5373894906127035  1.0000
  S   S10       1.0  0.8586067583158511  0.36781230728406905  0.0373903199715429  1.0000
  S   S11       1.0  0.3586099927440642  0.13218784203791498  0.46261451450052965  1.0000
  S   S12       1.0  0.14139636847297504  0.8678109399383016  0.9626131467914832  1.0000
  S   S13       1.0  0.35860225581401295  0.36781715947092397  0.4626110098557348  1.0000
  S   S14       1.0  0.14139760726568082  0.6321824040954949  0.9626121217687782  1.0000
  S   S15       1.0  0.6414021706690818  0.8678170301490479  0.537384044659774  1.0000
  S   S16       1.0  0.8586001993283927  0.1321837714331409  0.037386059476617106  1.0000
  I   I1        1.0  0.8836561759545914  0.4359335526135837  0.3784092846261089  1.0000
  I   I2        1.0  0.6163480128291781  0.5640657018983359  0.8784102646343115  1.0000
  I   I3        1.0  0.11634438677016588  0.9359313835012911  0.621591165173008  1.0000
  I   I4        1.0  0.38365235783079044  0.06406581914871617  0.121590933586269  1.0000
  I   I5        1.0  0.11634948928347198  0.5640635035622309  0.6215899216300258  1.0000
  I   I6        1.0  0.3836498545940188  0.4359344806861926  0.1215908829317343  1.0000
  I   I7        1.0  0.8836599788273103  0.0640734886895373  0.37840933529219  1.0000
  I   I8        1.0  0.6163481088733745  0.9359351450327436  0.8784082726851139  1.0000
