data_image0
_chemical_formula_structural       U2H40C28O14
_chemical_formula_sum              "U2 H40 C28 O14"
_cell_length_a       6.27751668842654
_cell_length_b       10.163999077138818
_cell_length_c       11.958027940179353
_cell_angle_alpha    92.62902514653156
_cell_angle_beta     97.19819827633911
_cell_angle_gamma    94.84507337588768

_space_group_name_H-M_alt    "P 1"
_space_group_IT_number       1

loop_
  _space_group_symop_operation_xyz
  'x, y, z'

loop_
  _atom_site_type_symbol
  _atom_site_label
  _atom_site_symmetry_multiplicity
  _atom_site_fract_x
  _atom_site_fract_y
  _atom_site_fract_z
  _atom_site_occupancy
  U   U1        1.0  0.0005114685101403978  0.251476752282592  0.4213808949242193  1.0000
  U   U2        1.0  0.9994385746344036  0.7485246859441264  0.5786181185119119  1.0000
  H   H1        1.0  0.7417510579816237  0.4841763850273112  0.4361467536400667  1.0000
  H   H2        1.0  0.2581564190765491  0.515830798826535  0.5638488407790802  1.0000
  H   H3        1.0  0.562974039381281  0.36199335471199845  0.38684591662614304  1.0000
  H   H4        1.0  0.43696741488926694  0.6380040652539591  0.6131490601964416  1.0000
  H   H5        1.0  0.5311397678005889  0.7192134431310535  0.27277478861145704  1.0000
  H   H6        1.0  0.4688583572900527  0.2807754475941664  0.7272386508835212  1.0000
  H   H7        1.0  0.28475856173150044  0.6962763037765711  0.3298084557519587  1.0000
  H   H8        1.0  0.7152153129749976  0.3037114613330091  0.6701991861900822  1.0000
  H   H9        1.0  0.029879373733038513  0.9727443670167589  0.174234049612835  1.0000
  H   H10       1.0  0.9701515146768145  0.027261296915412497  0.8257628407230655  1.0000
  H   H11       1.0  0.9783411160340522  0.8443031682155463  0.2651651736133899  1.0000
  H   H12       1.0  0.021668976972449596  0.1556914861563641  0.7348241463886181  1.0000
  H   H13       1.0  0.8051949343015109  0.7796814265381331  0.0706282391659343  1.0000
  H   H14       1.0  0.19482735468506715  0.2203320003607558  0.9293558023944186  1.0000
  H   H15       1.0  0.9395173253802299  0.6100321876976764  0.1993207008917537  1.0000
  H   H16       1.0  0.06047992921035931  0.38997425217144155  0.8006656620274059  1.0000
  H   H17       1.0  0.9545116555591732  0.5609138937523142  0.05724494264139679  1.0000
  H   H18       1.0  0.045506194394676  0.4390906118954518  0.942737680059011  1.0000
  H   H19       1.0  0.5497997878671583  0.6507081557677593  0.06926303936653969  1.0000
  H   H20       1.0  0.45022709208929257  0.34927980149156923  0.9307447153141978  1.0000
  H   H21       1.0  0.313504758370712  0.5914278064052425  0.9782236274127598  1.0000
  H   H22       1.0  0.6865307217070297  0.4085760009746124  0.021785208774062405  1.0000
  H   H23       1.0  0.41822508230868044  0.8272408289225269  0.9463090675966441  1.0000
  H   H24       1.0  0.5818403952502037  0.17275918608251567  0.053705778567675104  1.0000
  H   H25       1.0  0.3831403634841521  0.0010654392247814997  0.0971642775313271  1.0000
  H   H26       1.0  0.6169172138336165  0.9989355240074004  0.9028492491098348  1.0000
  H   H27       1.0  0.5946454303241354  0.9032409852660094  0.1411298743483584  1.0000
  H   H28       1.0  0.40536421698465835  0.0967381345769809  0.858891520494403  1.0000
  H   H29       1.0  0.03134953088147089  0.7407110977649368  0.9162285811449493  1.0000
  H   H30       1.0  0.9687072101879649  0.25930749417618426  0.0837670728632247  1.0000
  H   H31       1.0  0.059730211366634464  0.9089782971640545  0.9641156595360271  1.0000
  H   H32       1.0  0.9403396491766997  0.09103050889475378  0.035885544490888294  1.0000
  H   H33       1.0  0.2805550786573008  0.4168205165095885  0.1045077303195399  1.0000
  H   H34       1.0  0.719447559048504  0.5831781397606902  0.8954904349787186  1.0000
  H   H35       1.0  0.49973494350445685  0.4830214895773679  0.20153053200031934  1.0000
  H   H36       1.0  0.5002555343789012  0.5169702838911974  0.7984766504087233  1.0000
  H   H37       1.0  0.5630392888159221  0.9452075260374144  0.35485081947273767  1.0000
  H   H38       1.0  0.43695207272070047  0.0547903403072425  0.64517501913096  1.0000
  H   H39       1.0  0.4134067595553006  0.06701297984765378  0.2896730929034277  1.0000
  H   H40       1.0  0.5866083389215717  0.9329827993113113  0.7103299705481589  1.0000
  C   C1        1.0  0.26576574004661063  0.6233034205846906  0.15435427762921708  1.0000
  C   C2        1.0  0.7342335548342334  0.3766942477953563  0.8456453100539959  1.0000
  C   C3        1.0  0.3551366544896125  0.7231011916541306  0.2534236438513418  1.0000
  C   C4        1.0  0.6448631974874887  0.2768886585622924  0.7465857582552785  1.0000
  C   C5        1.0  0.3080150921704999  0.864949993407343  0.22407232676828667  1.0000
  C   C6        1.0  0.692000441905421  0.1350488177232947  0.7759383913364815  1.0000
  C   C7        1.0  0.06336220742056747  0.8708850375650669  0.19298826906776867  1.0000
  C   C8        1.0  0.9366487163046956  0.1291155867187683  0.8070054828536185  1.0000
  C   C9        1.0  0.9796766438156085  0.7741963982747111  0.0918172751505111  1.0000
  C   C10       1.0  0.020341484082429386  0.22581009975476005  0.9081671037637093  1.0000
  C   C11       1.0  0.021320287202328796  0.6341032123918923  0.1259635002235626  1.0000
  C   C12       1.0  0.9786753607911294  0.36590322077775983  0.8740227578584127  1.0000
  C   C13       1.0  0.37590646540067496  0.6609590999157577  0.0506056930057781  1.0000
  C   C14       1.0  0.6241237997659681  0.33904174942543347  0.9494060514032938  1.0000
  C   C15       1.0  0.3357332361311407  0.8020800858044409  0.019544512846692903  1.0000
  C   C16       1.0  0.6643164284903307  0.19792179672212032  0.9804643473830268  1.0000
  C   C17       1.0  0.41843230932801134  0.9006284967457248  0.11986858918960049  1.0000
  C   C18       1.0  0.5815971655991845  0.0993664767149696  0.8801496006870623  1.0000
  C   C19       1.0  0.0926663664494072  0.8092278195128983  0.9893062351076978  1.0000
  C   C20       1.0  0.9073973207392569  0.19078289426424527  0.010689612007709619  1.0000
  C   C21       1.0  0.32358758727717424  0.483124436066305  0.1813990235925331  1.0000
  C   C22       1.0  0.6763983207348474  0.5168692445868857  0.8186020700201125  1.0000
  C   C23       1.0  0.2206142518603116  0.4119694332731356  0.2711157597150872  1.0000
  C   C24       1.0  0.7793539699202796  0.5880359476801688  0.7288745318044861  1.0000
  C   C25       1.0  0.39923381590076457  0.9674014583221296  0.32129625649287874  1.0000
  C   C26       1.0  0.600768044020768  0.0325913510003843  0.6787117011612763  1.0000
  C   C27       1.0  0.2674825406717787  0.971029402933766  0.4180907438483388  1.0000
  C   C28       1.0  0.7324736334422043  0.028958223382971895  0.5819082143860186  1.0000
  O   O1        1.0  0.8566528528227834  0.1564839220308372  0.2997012280111946  1.0000
  O   O2        1.0  0.1433506829566227  0.8435215339789366  0.700283002705632  1.0000
  O   O3        1.0  0.1484885258454014  0.3524328625515524  0.5415554387893238  1.0000
  O   O4        1.0  0.8514571225575481  0.647583368775905  0.45844210262644225  1.0000
  O   O5        1.0  0.03351246667036628  0.43154060081013756  0.2946539961648185  1.0000
  O   O6        1.0  0.9664517380134682  0.5684706648580118  0.7053328822639102  1.0000
  O   O7        1.0  0.3188797912568403  0.32041097050347395  0.3227655763576962  1.0000
  O   O8        1.0  0.6810768328172685  0.6795915268779069  0.6772389181444467  1.0000
  O   O9        1.0  0.21295452945307863  0.0827968090902615  0.4537730481152167  1.0000
  O   O10       1.0  0.7869966391905195  0.9171896924394292  0.5462121666695694  1.0000
  O   O11       1.0  0.21375604076276034  0.8647384571285814  0.4633342585029752  1.0000
  O   O12       1.0  0.7861947876015306  0.1352570395852339  0.5366629380171801  1.0000
  O   O13       1.0  0.7071462893261328  0.38668537595354735  0.4328534400911792  1.0000
  O   O14       1.0  0.2927876286850832  0.6133158578479369  0.5671286272537088  1.0000
