data_image0
_chemical_formula_structural       Cu12H84C108N24
_chemical_formula_sum              "Cu12 H84 C108 N24"
_cell_length_a       33.04142402690025
_cell_length_b       33.4023771203763
_cell_length_c       35.363341816713344
_cell_angle_alpha    90.64325132531972
_cell_angle_beta     90.99069382418345
_cell_angle_gamma    90.58751916520791

_space_group_name_H-M_alt    "P 1"
_space_group_IT_number       1

loop_
  _space_group_symop_operation_xyz
  'x, y, z'

loop_
  _atom_site_type_symbol
  _atom_site_label
  _atom_site_symmetry_multiplicity
  _atom_site_fract_x
  _atom_site_fract_y
  _atom_site_fract_z
  _atom_site_occupancy
  Cu  Cu1       1.0  0.6628225706959936  0.37157270269837994  0.5945969670953204  1.0000
  Cu  Cu2       1.0  0.5878218929574359  0.33014629824415204  0.6337423248491945  1.0000
  Cu  Cu3       1.0  0.6281357385471295  0.4094038221589287  0.6699227958027336  1.0000
  Cu  Cu4       1.0  0.15399147461167217  0.6170942278086715  0.9174880106798966  1.0000
  Cu  Cu5       1.0  0.0914636470756278  0.6677191096915108  0.8696689485167042  1.0000
  Cu  Cu6       1.0  0.12255274233582007  0.5838876342128003  0.8380092264319431  1.0000
  Cu  Cu7       1.0  0.8357874030218183  0.8708328271606477  0.402757183107731  1.0000
  Cu  Cu8       1.0  0.9147446951826693  0.8329368377346852  0.36771804241242734  1.0000
  Cu  Cu9       1.0  0.8748705807307502  0.9103565618153767  0.3308800696447705  1.0000
  Cu  Cu10      1.0  0.347842913273638  0.12242716691358882  0.08333038979338879  1.0000
  Cu  Cu11      1.0  0.4122327049533823  0.1744271698395181  0.1294635987468951  1.0000
  Cu  Cu12      1.0  0.37236625108956634  0.0974363503060616  0.1668470598252725  1.0000
  H   H1        1.0  0.6753979344621753  0.3128421308585629  0.5253126455868227  1.0000
  H   H2        1.0  0.5720744113356773  0.2560055852418158  0.5771831292236057  1.0000
  H   H3        1.0  0.6885545532898119  0.4828870589440086  0.6826967748905943  1.0000
  H   H4        1.0  0.7347715842746324  0.4327206075824889  0.5786448827598107  1.0000
  H   H5        1.0  0.5183630930928729  0.3140004422672149  0.6922336249000693  1.0000
  H   H6        1.0  0.5715501808219442  0.42250357396839894  0.740627715155405  1.0000
  H   H7        1.0  0.16472791604361697  0.6727774416107195  0.9905631098600266  1.0000
  H   H8        1.0  0.08783259433937468  0.7468589250423323  0.9204090681041636  1.0000
  H   H9        1.0  0.18269455276117696  0.510453178311039  0.8265464331536307  1.0000
  H   H10       1.0  0.22057266157688096  0.5537058379140234  0.9377802214886798  1.0000
  H   H11       1.0  0.023295323085996193  0.6868482373272043  0.8081240742116336  1.0000
  H   H12       1.0  0.06392654313655298  0.5714649732300857  0.7673217919925506  1.0000
  H   H13       1.0  0.8207344505725089  0.8122623035156805  0.4706812934398599  1.0000
  H   H14       1.0  0.9299863444239874  0.7613178697774146  0.425156767347957  1.0000
  H   H15       1.0  0.8152225529841034  0.9830040270651567  0.31740024006553824  1.0000
  H   H16       1.0  0.7622878674122474  0.9296835201009089  0.4164579339104648  1.0000
  H   H17       1.0  0.9882302695870205  0.8196977094396587  0.3121831107632147  1.0000
  H   H18       1.0  0.9345701499874862  0.9257303466790534  0.26373008602433146  1.0000
  H   H19       1.0  0.3389946814343928  0.17379119208991511  0.0085739008812098  1.0000
  H   H20       1.0  0.41892075515634275  0.2505142983671221  0.0763009610988732  1.0000
  H   H21       1.0  0.30968557881954684  0.025290542637876005  0.1789533181384684  1.0000
  H   H22       1.0  0.28221980808497443  0.0564760693555755  0.06270453275300981  1.0000
  H   H23       1.0  0.48319533078773697  0.19307880351753687  0.1890137428451126  1.0000
  H   H24       1.0  0.42441516868110085  0.09263393291394809  0.24269108758164754  1.0000
  H   H25       1.0  0.0711747095270496  0.8187540471441609  0.12179954093305409  1.0000
  H   H26       1.0  0.12127835089759026  0.9282106999203491  0.1692929498088134  1.0000
  H   H27       1.0  0.16823138654100228  0.8794845753855965  0.0658449383112085  1.0000
  H   H28       1.0  0.6763793392613663  0.1269066342309486  0.4279728204813011  1.0000
  H   H29       1.0  0.6274717166732058  0.08222973121716141  0.3217664858937113  1.0000
  H   H30       1.0  0.5663332224522576  0.17601158434162298  0.38166619535302704  1.0000
  H   H31       1.0  0.42960462188766957  0.3187242788990474  0.8732900067029445  1.0000
  H   H32       1.0  0.3754703458185488  0.4250991359222808  0.8277541151848951  1.0000
  H   H33       1.0  0.33368713631399766  0.37659920423653404  0.9327156940514384  1.0000
  H   H34       1.0  0.9333523283090129  0.6835677362434253  0.6171876960073135  1.0000
  H   H35       1.0  0.8775582253143311  0.5829148582417147  0.6716055040249032  1.0000
  H   H36       1.0  0.8238313638129425  0.630550785080672  0.5702035729892644  1.0000
  H   H37       1.0  0.11360790666547159  0.8042424311832831  0.9640775376709954  1.0000
  H   H38       1.0  0.12960042890470896  0.8544580535214762  0.0140262215586588  1.0000
  H   H39       1.0  0.14269822851280617  0.7450153083829464  0.0243844737578627  1.0000
  H   H40       1.0  0.10491206575100159  0.7867245776245538  0.0671934889114141  1.0000
  H   H41       1.0  0.6821543079321016  0.24873826035285157  0.4896185184896282  1.0000
  H   H42       1.0  0.6835548769902147  0.19085615773408193  0.4476416719087837  1.0000
  H   H43       1.0  0.59672779263483  0.21935672213602686  0.5094594539177137  1.0000
  H   H44       1.0  0.5910762465291198  0.19887733718177003  0.4438951472892114  1.0000
  H   H45       1.0  0.39338903343768544  0.30607648526710557  0.0322965218795233  1.0000
  H   H46       1.0  0.3753725510457357  0.35450848330454926  0.9828091332675727  1.0000
  H   H47       1.0  0.36179819871030355  0.24459368481210214  0.973295148578643  1.0000
  H   H48       1.0  0.39833845476677243  0.28621620802609726  0.9286953952028655  1.0000
  H   H49       1.0  0.8159761342010653  0.7500936582756877  0.5083400575858404  1.0000
  H   H50       1.0  0.8154035934034524  0.6927668418839302  0.5501328763050495  1.0000
  H   H51       1.0  0.9029582951277317  0.7246669444421413  0.49110367434806795  1.0000
  H   H52       1.0  0.9072504192391051  0.7069603882804145  0.5567870137071793  1.0000
  H   H53       1.0  0.2369797323062244  0.9978182725542837  0.0607627050276562  1.0000
  H   H54       1.0  0.19252646720090638  0.9394089685943641  0.05931790749745151  1.0000
  H   H55       1.0  0.24724559399896148  0.9800088194976198  0.1455123416992663  1.0000
  H   H56       1.0  0.18024323767306777  0.9581227637628018  0.1436004316373172  1.0000
  H   H57       1.0  0.7518768282893615  0.5256751051659095  0.6840846569190546  1.0000
  H   H58       1.0  0.8128288578393067  0.5674397576999723  0.6823818151523184  1.0000
  H   H59       1.0  0.7753299592764263  0.5010880351470064  0.6033984185299985  1.0000
  H   H60       1.0  0.7966525935216423  0.5688834039522989  0.5965953989143243  1.0000
  H   H61       1.0  0.7513924868455033  0.0229858571547013  0.31308114436369294  1.0000
  H   H62       1.0  0.6909927582319993  0.0646448585007633  0.31351500997723747  1.0000
  H   H63       1.0  0.7244766587206897  0.999377666279152  0.3926600145216881  1.0000
  H   H64       1.0  0.7055890835354574  0.06788392143223383  0.3995288324903611  1.0000
  H   H65       1.0  0.26483860778827756  0.49438044642838  0.9406514043513282  1.0000
  H   H66       1.0  0.3096496938968087  0.43659169227613864  0.9408180146954379  1.0000
  H   H67       1.0  0.24840328634098086  0.4701046834629281  0.8576048470412304  1.0000
  H   H68       1.0  0.31669352511084975  0.45322706283445774  0.8558989743548082  1.0000
  H   H69       1.0  0.9984188702785275  0.9321961068987719  0.2280783771778374  1.0000
  H   H70       1.0  0.0565986285691267  0.9344706290432114  0.1872830860369845  1.0000
  H   H71       1.0  0.0259947567515013  0.846951990778443  0.2468420716043696  1.0000
  H   H72       1.0  0.04737455795247309  0.842952262045003  0.18272963356371716  1.0000
  H   H73       1.0  0.48192418799176545  0.30827730195422726  0.754007587017945  1.0000
  H   H74       1.0  0.44347265048327955  0.3081221075837703  0.812644280264287  1.0000
  H   H75       1.0  0.5038270253266716  0.3945415073437958  0.7783758203112114  1.0000
  H   H76       1.0  0.4353585633129668  0.39828022618829817  0.7984442188361669  1.0000
  H   H77       1.0  0.0010273760306702979  0.5701825184302861  0.7280202167700267  1.0000
  H   H78       1.0  0.940954967658399  0.5712779219179964  0.6874482820444356  1.0000
  H   H79       1.0  0.9824628450590681  0.6588893795725427  0.7431343706737721  1.0000
  H   H80       1.0  0.9601640013832478  0.6608195951972533  0.678455525272831  1.0000
  H   H81       1.0  0.460336250308444  0.12247671006564789  0.3035807120842549  1.0000
  H   H82       1.0  0.5115130117770333  0.13836535011049023  0.3544040747753385  1.0000
  H   H83       1.0  0.5244754128638717  0.16218848012474749  0.2540803015686564  1.0000
  H   H84       1.0  0.5704145812591151  0.11792562982705589  0.291005892367366  1.0000
  C   C1        1.0  0.6504328762630179  0.303563990538393  0.5428518974099744  1.0000
  C   C2        1.0  0.623876176960607  0.2704656707515553  0.5386876578266495  1.0000
  C   C3        1.0  0.5974301033802049  0.274867926320475  0.5692217160859272  1.0000
  C   C4        1.0  0.6951651873403718  0.46556698175439243  0.6574408098061966  1.0000
  C   C5        1.0  0.7255638982822816  0.47129053329744147  0.6304847817119708  1.0000
  C   C6        1.0  0.7184771978940745  0.43993091763703523  0.6042011802141047  1.0000
  C   C7        1.0  0.5362529464590934  0.340498556893067  0.6995004472520066  1.0000
  C   C8        1.0  0.5322823794486381  0.3677729219727581  0.7298705828056455  1.0000
  C   C9        1.0  0.5632925025541766  0.3960906729749568  0.7239326391398961  1.0000
  C   C10       1.0  0.14554617761653788  0.6857645997536608  0.968793208628405  1.0000
  C   C11       1.0  0.1276170633607094  0.7237724602986971  0.967903402468771  1.0000
  C   C12       1.0  0.1067384972351348  0.7239283059292774  0.9328230797333035  1.0000
  C   C13       1.0  0.18694332576151848  0.5259208687929091  0.8535206272270557  1.0000
  C   C14       1.0  0.21497404178607837  0.5183327268646707  0.8829596278573958  1.0000
  C   C15       1.0  0.20628019737974057  0.5477635621472885  0.9104082325487256  1.0000
  C   C16       1.0  0.038116687087850196  0.6584823125516125  0.8029976136148775  1.0000
  C   C17       1.0  0.0300238971165925  0.6294820389236621  0.7746132532216592  1.0000
  C   C18       1.0  0.05853829430541419  0.5994221764034294  0.7822395770147991  1.0000
  C   C19       1.0  0.8472478212374311  0.8042954035450907  0.4546764599647873  1.0000
  C   C20       1.0  0.8751405015292802  0.7732558958786057  0.46058286891508265  1.0000
  C   C21       1.0  0.9032211901976837  0.7785816486664673  0.4315165360701201  1.0000
  C   C22       1.0  0.8069322440188671  0.9649186376467681  0.3414291925058137  1.0000
  C   C23       1.0  0.7749074545271453  0.9696062853983347  0.3668645997251616  1.0000
  C   C24       1.0  0.7801799042882108  0.9377750914975564  0.392177679191029  1.0000
  C   C25       1.0  0.9701263732487461  0.8455569791381663  0.3049457677044458  1.0000
  C   C26       1.0  0.9753499984026136  0.8732116348202721  0.2756302678924101  1.0000
  C   C27       1.0  0.9430165607266544  0.8998906467496466  0.2803166514419004  1.0000
  C   C28       1.0  0.3588426678248239  0.1876396597503955  0.0298445722649561  1.0000
  C   C29       1.0  0.3778383770304997  0.225533047687442  0.0297338647998089  1.0000
  C   C30       1.0  0.3992431165758177  0.22714796001271503  0.0645385918189234  1.0000
  C   C31       1.0  0.30790650038082384  0.03796133607890079  0.15082848951675493  1.0000
  C   C32       1.0  0.2824622538244554  0.026956840889660303  0.1200065707744429  1.0000
  C   C33       1.0  0.29388569918730667  0.053631619610833105  0.0914111575767222  1.0000
  C   C34       1.0  0.46403738966337454  0.16813240587384834  0.1971594302214683  1.0000
  C   C35       1.0  0.46627810183114343  0.144365271587894  0.22971192032613888  1.0000
  C   C36       1.0  0.4336098015459982  0.11729078429308973  0.2249257901627004  1.0000
  C   C37       1.0  0.11862257750038907  0.8465437521802457  0.0895989574520542  1.0000
  C   C38       1.0  0.09251891641008568  0.8438831973063544  0.12049754989750738  1.0000
  C   C39       1.0  0.09171641879843408  0.8739739061463253  0.1485564821294076  1.0000
  C   C40       1.0  0.12003121797626189  0.9056285335724753  0.146720685813186  1.0000
  C   C41       1.0  0.147402618383758  0.9085525216433012  0.11686941459408469  1.0000
  C   C42       1.0  0.14614548935330865  0.8787480969205248  0.08838736740226949  1.0000
  C   C43       1.0  0.621708415911783  0.1555857551749966  0.4081209511483905  1.0000
  C   C44       1.0  0.6534627205224338  0.1279754334792358  0.4054015540397629  1.0000
  C   C45       1.0  0.6565213928034481  0.10182488507680182  0.3742196218444107  1.0000
  C   C46       1.0  0.6263103362963347  0.10307221507294174  0.34570187700744975  1.0000
  C   C47       1.0  0.5930788296703041  0.1286640539131696  0.348577852926546  1.0000
  C   C48       1.0  0.5911552557782968  0.15476773278334832  0.3799732651976981  1.0000
  C   C49       1.0  0.3827659982133298  0.3450566427354362  0.9068455443894123  1.0000
  C   C50       1.0  0.4073541603924794  0.3425723869987038  0.8749064511613298  1.0000
  C   C51       1.0  0.4053305215906916  0.3713108646350279  0.8462016069732243  1.0000
  C   C52       1.0  0.3774443013380164  0.4025736426837199  0.8498790380940235  1.0000
  C   C53       1.0  0.3515579113769078  0.40533732102183256  0.8809488246547659  1.0000
  C   C54       1.0  0.3545584770123752  0.37613299681630963  0.9091694866360456  1.0000
  C   C55       1.0  0.8780177028790915  0.6613707169195208  0.5906300405031786  1.0000
  C   C56       1.0  0.909001416811243  0.6612500731396622  0.6183856563046533  1.0000
  C   C57       1.0  0.9096396516617417  0.6328303729296891  0.6474387618014177  1.0000
  C   C58       1.0  0.8777566383207825  0.6047862883757136  0.6489542542112474  1.0000
  C   C59       1.0  0.8463441477773513  0.603955998511573  0.6216291294265162  1.0000
  C   C60       1.0  0.8474471383513488  0.6318165205307056  0.5921696232747918  1.0000
  C   C61       1.0  0.13087224031442446  0.7545202937757977  0.9968434470531023  1.0000
  C   C62       1.0  0.12181385268666386  0.7937388681380924  0.9923979831880417  1.0000
  C   C63       1.0  0.12337113443991396  0.8235621203315235  0.022418321080216703  1.0000
  C   C64       1.0  0.11595032121390858  0.8164527425858027  0.059358154556335294  1.0000
  C   C65       1.0  0.6235481736402163  0.238860389608611  0.5104492407127879  1.0000
  C   C66       1.0  0.6541112875734568  0.231195068384757  0.4863128938393757  1.0000
  C   C67       1.0  0.653816145700894  0.20096724218841192  0.4567369270765411  1.0000
  C   C68       1.0  0.6206633685488968  0.1859045183110197  0.4381263336536847  1.0000
  C   C69       1.0  0.3745421664621417  0.25515759549422523  0.00043201306550599936  1.0000
  C   C70       1.0  0.384186283038197  0.29459607848843217  0.004283116080898701  1.0000
  C   C71       1.0  0.381508848315164  0.32357949898173644  0.9742284778644787  1.0000
  C   C72       1.0  0.3874385950989064  0.3158248656562464  0.9370176159492587  1.0000
  C   C73       1.0  0.8755361233588629  0.7426911102914532  0.48914905594127595  1.0000
  C   C74       1.0  0.8444992715369465  0.7342013904956275  0.5125190300762128  1.0000
  C   C75       1.0  0.8449822040930498  0.7047173211641322  0.5421340180872107  1.0000
  C   C76       1.0  0.8781361809959163  0.6920753267270074  0.5615958917575696  1.0000
  C   C77       1.0  0.2520641246439652  0.9956599250485212  0.11892335903702643  1.0000
  C   C78       1.0  0.23006241777586917  0.9839856561847072  0.0878433104766714  1.0000
  C   C79       1.0  0.19883938278464086  0.9533789734352283  0.0869649733495166  1.0000
  C   C80       1.0  0.17672800347719428  0.9414560225879924  0.1168904365706354  1.0000
  C   C81       1.0  0.7574182812473251  0.5011266311174508  0.6291499976988247  1.0000
  C   C82       1.0  0.7676850589947718  0.527613499384117  0.6571915503715076  1.0000
  C   C83       1.0  0.7994430958684687  0.557639045927168  0.6552411019524059  1.0000
  C   C84       1.0  0.8128369158159855  0.5752045533312256  0.6233118726488128  1.0000
  C   C85       1.0  0.7433906916522373  0.9992101975458995  0.367552796627578  1.0000
  C   C86       1.0  0.7347569761034478  0.0254008119031042  0.3395081865325622  1.0000
  C   C87       1.0  0.7036852973962552  0.05553900023203791  0.3408575319822802  1.0000
  C   C88       1.0  0.6900102980450455  0.07373101059987162  0.3726008797851676  1.0000
  C   C89       1.0  0.24544884174521533  0.48773002395751774  0.883663059509459  1.0000
  C   C90       1.0  0.26981904497096554  0.4789259600444566  0.9136921930254474  1.0000
  C   C91       1.0  0.3015022282719784  0.44942570916575164  0.9134134302840238  1.0000
  C   C92       1.0  0.32200919382804466  0.4373868401415208  0.8824341271301464  1.0000
  C   C93       1.0  0.007028212307680801  0.8735921169093431  0.2480100872591322  1.0000
  C   C94       1.0  0.015428989454939306  0.9044763649299769  0.2246633885488052  1.0000
  C   C95       1.0  0.045975340337960795  0.9048473895806098  0.1958891193044749  1.0000
  C   C96       1.0  0.060897192197394596  0.8724091165560566  0.17757162403702154  1.0000
  C   C97       1.0  0.5040342567026668  0.367544869461888  0.7605559260438497  1.0000
  C   C98       1.0  0.4792956313402214  0.3365501536075968  0.769689917217498  1.0000
  C   C99       1.0  0.4506297336237138  0.3371205677126314  0.8001173589374346  1.0000
  C   C100      1.0  0.4316251743677312  0.37004321301451165  0.813498994595392  1.0000
  C   C101      1.0  0.9986463157504061  0.6306056255550986  0.7457560684980464  1.0000
  C   C102      1.0  0.986868511956196  0.599235199585337  0.7232867840505578  1.0000
  C   C103      1.0  0.9554241451546799  0.60012366523609  0.6944038721085874  1.0000
  C   C104      1.0  0.9431892333952446  0.6326788057078546  0.6748308014957303  1.0000
  C   C105      1.0  0.4957931957305064  0.1471865567716009  0.2603288437951575  1.0000
  C   C106      1.0  0.4903567789833331  0.1336161572687686  0.2959050334229616  1.0000
  C   C107      1.0  0.5214462425964681  0.13388674662571282  0.3252861428236997  1.0000
  C   C108      1.0  0.5612233455231177  0.12714125726836306  0.3193765449192156  1.0000
  N   N1        1.0  0.6077011263092159  0.307663215379236  0.589969748730951  1.0000
  N   N2        1.0  0.6406037718194496  0.32549474336298095  0.5734491224377933  1.0000
  N   N3        1.0  0.6867038116825269  0.4173342370989133  0.614783525867935  1.0000
  N   N4        1.0  0.6722301784218699  0.433341195165994  0.6478662260728143  1.0000
  N   N5        1.0  0.5841279367352498  0.38627107864643767  0.6927973349107077  1.0000
  N   N6        1.0  0.5672232084919385  0.3517292780495964  0.6775922279978842  1.0000
  N   N7        1.0  0.11210795786939799  0.6888805720182775  0.9144741859526064  1.0000
  N   N8        1.0  0.13634147195065074  0.6651770399232719  0.9367596562683004  1.0000
  N   N9        1.0  0.17561434323587827  0.5707283518703578  0.898168769612596  1.0000
  N   N10       1.0  0.16353824170508346  0.5572296536529678  0.8627948742212794  1.0000
  N   N11       1.0  0.08136860959916699  0.6097676635885136  0.8127672567641467  1.0000
  N   N12       1.0  0.0686943753636342  0.646472804128173  0.8257692766940963  1.0000
  N   N13       1.0  0.8926964189010532  0.8100229171173865  0.4100164770599051  1.0000
  N   N14       1.0  0.8579307964131573  0.8259993495259436  0.4245223762029582  1.0000
  N   N15       1.0  0.8124814992929287  0.9158732483201462  0.38242271591747823  1.0000
  N   N16       1.0  0.8291066047349956  0.9328295193123424  0.3509015188642692  1.0000
  N   N17       1.0  0.9207226235988839  0.8889644077664229  0.31006484723537403  1.0000
  N   N18       1.0  0.9375633558181063  0.8552115929932141  0.3254812835361278  1.0000
  N   N19       1.0  0.3931379649038859  0.193037866027133  0.08367749922952332  1.0000
  N   N20       1.0  0.3679016936339962  0.16851351104753579  0.06219288889401041  1.0000
  N   N21       1.0  0.3236298814271165  0.07825304943538211  0.10433168643884021  1.0000
  N   N22       1.0  0.3323878970561723  0.0686200367209508  0.1412916897422249  1.0000
  N   N23       1.0  0.4135881627278479  0.1245946156094035  0.192263288609972  1.0000
  N   N24       1.0  0.4323536291361734  0.1563593939535295  0.1750670056803543  1.0000
