data_image0
_chemical_formula_structural       Cd2H44C44N8O10
_chemical_formula_sum              "Cd2 H44 C44 N8 O10"
_cell_length_a       9.278468215994772
_cell_length_b       10.423580722051488
_cell_length_c       11.405676843248834
_cell_angle_alpha    91.0576435006908
_cell_angle_beta     103.40430321581877
_cell_angle_gamma    102.74930073617217

_space_group_name_H-M_alt    "P 1"
_space_group_IT_number       1

loop_
  _space_group_symop_operation_xyz
  'x, y, z'

loop_
  _atom_site_type_symbol
  _atom_site_label
  _atom_site_symmetry_multiplicity
  _atom_site_fract_x
  _atom_site_fract_y
  _atom_site_fract_z
  _atom_site_occupancy
  Cd  Cd1       1.0  0.6722227892868132  0.8172688279585284  0.9760901687930283  1.0000
  Cd  Cd2       1.0  0.32777737852452304  0.18273004761432074  0.023909173396042104  1.0000
  H   H1        1.0  0.5217059050021289  0.5619303394647445  0.14336484256668305  1.0000
  H   H2        1.0  0.4782937127248914  0.43807053359053305  0.8566361702745976  1.0000
  H   H3        1.0  0.5585142874140628  0.9725785162154919  0.1976212394186376  1.0000
  H   H4        1.0  0.4414872750336443  0.02742136124724939  0.8023801215104313  1.0000
  H   H5        1.0  0.38985876347889087  0.8393871995982845  0.3489514135732462  1.0000
  H   H6        1.0  0.610145568861711  0.16061466127179355  0.6510522274528583  1.0000
  H   H7        1.0  0.26997447086769444  0.4367054793134741  0.15760477395532746  1.0000
  H   H8        1.0  0.7300359351626682  0.5632943504294728  0.8423973334684688  1.0000
  H   H9        1.0  0.1184747887000768  0.2638465346659018  0.2521113115007552  1.0000
  H   H10       1.0  0.8815269938954698  0.7361542780748848  0.7478857141796523  1.0000
  H   H11       1.0  0.267401095409987  0.5026955176953789  0.589909488039396  1.0000
  H   H12       1.0  0.7325943674776808  0.4973023802488966  0.41008810465632445  1.0000
  H   H13       1.0  0.4234410038567233  0.6740264458317782  0.49587557020092987  1.0000
  H   H14       1.0  0.5765608691476202  0.3259704784980569  0.5041266979416292  1.0000
  H   H15       1.0  0.9055427633367046  0.2020117767938103  0.31864712926383015  1.0000
  H   H16       1.0  0.09444827940511397  0.7979901301903993  0.6813531952914857  1.0000
  H   H17       1.0  0.7405663562630237  0.044562712123259  0.4123824367112547  1.0000
  H   H18       1.0  0.25943108041510493  0.9554342207871398  0.5876181401467235  1.0000
  H   H19       1.0  0.07580957479724759  0.1378074389842041  0.7546397158340383  1.0000
  H   H20       1.0  0.9241928160221563  0.8621914373914805  0.24536091134306295  1.0000
  H   H21       1.0  0.2351495619883011  0.30229000864348166  0.6615778551908065  1.0000
  H   H22       1.0  0.7648491886073289  0.6977118247539806  0.33842037663650604  1.0000
  H   H23       1.0  0.9130554638781945  0.027799524238652392  0.8381647455327225  1.0000
  H   H24       1.0  0.0869444256457682  0.9721983549388395  0.16183365975610534  1.0000
  H   H25       1.0  0.48394828041425336  0.7859153876396688  0.6731878674963312  1.0000
  H   H26       1.0  0.5160549613561898  0.21407852793446114  0.32681111755056946  1.0000
  H   H27       1.0  0.6099372800025192  0.9077965315858872  0.493326195175598  1.0000
  H   H28       1.0  0.39006096566746606  0.09219937986501488  0.5066718905474374  1.0000
  H   H29       1.0  0.07803189132149406  0.576443409062783  0.054837013991857475  1.0000
  H   H30       1.0  0.9219696485468774  0.4235604281144488  0.9451652553154586  1.0000
  H   H31       1.0  0.10081394987231104  0.6737262287008077  0.18849951769124115  1.0000
  H   H32       1.0  0.899186761624364  0.32627860956348786  0.8115034853680427  1.0000
  H   H33       1.0  0.19628895686665257  0.7400746014318641  0.07597526670787857  1.0000
  H   H34       1.0  0.803708981537632  0.2599322335120248  0.9240281220155778  1.0000
  H   H35       1.0  0.11639137801867604  0.658626743033217  0.8381855036329212  1.0000
  H   H36       1.0  0.8836096666139712  0.3413711823836749  0.1618174982616054  1.0000
  H   H37       1.0  0.19157657650355733  0.513599839638907  0.8571594599302443  1.0000
  H   H38       1.0  0.8084329979556203  0.4864049712780342  0.14284604700672793  1.0000
  H   H39       1.0  0.17287329556818773  0.589518198549001  0.7179468526626848  1.0000
  H   H40       1.0  0.8271244097073949  0.4104797205705423  0.28205378240404844  1.0000
  H   H41       1.0  0.7300366835097238  0.08760599650445039  0.09312043577089212  1.0000
  H   H42       1.0  0.2699643320531564  0.9123918983537822  0.9068799300491788  1.0000
  H   H43       1.0  0.8765142334789076  0.0726713570974482  0.04707682564366413  1.0000
  H   H44       1.0  0.1234831741294542  0.9273255452542912  0.9529211151398512  1.0000
  C   C1        1.0  0.5105000637022457  0.6573182917128689  0.1763792340359913  1.0000
  C   C2        1.0  0.4894990168298606  0.34268060892411956  0.8236216623877721  1.0000
  C   C3        1.0  0.5292466412146551  0.8680053424505442  0.21053062915184026  1.0000
  C   C4        1.0  0.470754901853205  0.1319945146397572  0.7894689743942677  1.0000
  C   C5        1.0  0.447521740558507  0.8042761679418077  0.287071238372384  1.0000
  C   C6        1.0  0.5524809479281174  0.19572372520167386  0.712932083087935  1.0000
  C   C7        1.0  0.35377969623743866  0.5676566542161438  0.3204509719093664  1.0000
  C   C8        1.0  0.6462270986389171  0.43234616310724033  0.6795513762390896  1.0000
  C   C9        1.0  0.26950282143685195  0.4511950823204457  0.2523919091707469  1.0000
  C   C10       1.0  0.7305004074441757  0.5488028031543876  0.7476088629458743  1.0000
  C   C11       1.0  0.18284099940144216  0.3544136696648862  0.3062292808567335  1.0000
  C   C12       1.0  0.8171619092330148  0.6455871587566477  0.6937697053549171  1.0000
  C   C13       1.0  0.1782276941536338  0.37052886118328837  0.42783524165474757  1.0000
  C   C14       1.0  0.8217694319678586  0.6294710248600165  0.5721644279897333  1.0000
  C   C15       1.0  0.2668515097743551  0.4873375970517627  0.49502609808363457  1.0000
  C   C16       1.0  0.733146454408761  0.5126612980907054  0.5049737165003734  1.0000
  C   C17       1.0  0.3536909331198501  0.5850924164191724  0.4422156584133744  1.0000
  C   C18       1.0  0.646313671017694  0.41490645057311326  0.5577853750602841  1.0000
  C   C19       1.0  0.08212768353476457  0.26901441224460837  0.4830956588304644  1.0000
  C   C20       1.0  0.9178655240755803  0.7309874344251098  0.516900678563978  1.0000
  C   C21       1.0  0.9431181784507174  0.1912817268933864  0.4149904061518228  1.0000
  C   C22       1.0  0.05687670208337168  0.8087221180615811  0.5850088868828678  1.0000
  C   C23       1.0  0.8482741312295163  0.1010569466561222  0.4685288321344956  1.0000
  C   C24       1.0  0.15172106955113654  0.898943955352159  0.5314722468051654  1.0000
  C   C25       1.0  0.8924528625777485  0.08369568393865019  0.5920259690235594  1.0000
  C   C26       1.0  0.1075428882872203  0.91630322058721  0.40797343926389124  1.0000
  C   C27       1.0  0.034079780327481  0.1552780932358431  0.6603152168305185  1.0000
  C   C28       1.0  0.9659192582454497  0.8447247467431965  0.3396848305885172  1.0000
  C   C29       1.0  0.125783590748604  0.24757312322063996  0.6063284900834558  1.0000
  C   C30       1.0  0.8742118398698083  0.7524287242519063  0.39366913229902417  1.0000
  C   C31       1.0  0.8134393581719335  0.9786806365501092  0.7691278855094124  1.0000
  C   C32       1.0  0.1865602530646484  0.021316246232018395  0.23086958287917267  1.0000
  C   C33       1.0  0.5914501077017036  0.8557580072937652  0.6799439645233177  1.0000
  C   C34       1.0  0.40855035128642203  0.14423789477374527  0.3200545274962678  1.0000
  C   C35       1.0  0.6515812796817712  0.9162416028098476  0.5905306424223083  1.0000
  C   C36       1.0  0.34841943821388804  0.0837552752805806  0.40946702911455896  1.0000
  C   C37       1.0  0.9537546497561776  0.7309713161447032  0.036572322209387643  1.0000
  C   C38       1.0  0.04624361209415886  0.26902859576556176  0.9634301866578241  1.0000
  C   C39       1.0  0.091506866530345  0.6777043379184133  0.09084538355176618  1.0000
  C   C40       1.0  0.9084938643461768  0.3223005207183148  0.9091593768904856  1.0000
  C   C41       1.0  0.3603933309026957  0.6929200107337363  0.8599674222006538  1.0000
  C   C42       1.0  0.6396073127645182  0.3070847562270131  0.14002943001823806  1.0000
  C   C43       1.0  0.200338685621432  0.6089516695536048  0.8166532767461162  1.0000
  C   C44       1.0  0.7996634140211754  0.3910501803274185  0.18334820060047008  1.0000
  N   N1        1.0  0.5682930785713793  0.7755521156399253  0.14302828437908485  1.0000
  N   N2        1.0  0.4317043064576466  0.22444874642630447  0.856970564782678  1.0000
  N   N3        1.0  0.43626307985238816  0.6706292422147797  0.26501927441541534  1.0000
  N   N4        1.0  0.5637395892543893  0.3293706305562622  0.7349822896619358  1.0000
  N   N5        1.0  0.7931974406892194  0.9950460654335483  0.6480009306715357  1.0000
  N   N6        1.0  0.20680218023728264  0.004950827534798898  0.3519974164085369  1.0000
  N   N7        1.0  0.6932299475584286  0.8954523523535014  0.7902427273527762  1.0000
  N   N8        1.0  0.30677214559375443  0.10454550725437166  0.20975520554112137  1.0000
  O   O1        1.0  0.8219792196052255  0.6620656968992336  0.0372847328359072  1.0000
  O   O2        1.0  0.17801799372558236  0.33793428082004334  0.9627228450319406  1.0000
  O   O3        1.0  0.9717423896657496  0.8450709874837089  0.9957411572561979  1.0000
  O   O4        1.0  0.028250840523931186  0.15492689947151914  0.004254271760011396  1.0000
  O   O5        1.0  0.3826916919273131  0.8167714684105505  0.8863631507251384  1.0000
  O   O6        1.0  0.6173098576309785  0.1832323789529013  0.11363999727365837  1.0000
  O   O7        1.0  0.4711152239718857  0.6368628136697154  0.8688626191319173  1.0000
  O   O8        1.0  0.52888644883501  0.3631418671095829  0.13112740670337078  1.0000
  O   O9        1.0  0.7922281190392156  0.022973185948259794  0.08144058459695458  1.0000
  O   O10       1.0  0.20777316512111801  0.977025695119117  0.9185598394318787  1.0000
