data_image0
_chemical_formula_structural       Zn8H80C128N32O32
_chemical_formula_sum              "Zn8 H80 C128 N32 O32"
_cell_length_a       13.918204570915837
_cell_length_b       13.918224074339046
_cell_length_c       21.359682598986943
_cell_angle_alpha    100.54418533379923
_cell_angle_beta     100.54386725805847
_cell_angle_gamma    111.6157215311228

_space_group_name_H-M_alt    "P 1"
_space_group_IT_number       1

loop_
  _space_group_symop_operation_xyz
  'x, y, z'

loop_
  _atom_site_type_symbol
  _atom_site_label
  _atom_site_symmetry_multiplicity
  _atom_site_fract_x
  _atom_site_fract_y
  _atom_site_fract_z
  _atom_site_occupancy
  Zn  Zn1       1.0  0.9268779560211656  0.892144821327989  0.4195552513431977  1.0000
  Zn  Zn2       1.0  0.10786182257242422  0.07312488749927579  0.08044329303719167  1.0000
  Zn  Zn3       1.0  0.07312166123598018  0.10785564785744836  0.5804437098707494  1.0000
  Zn  Zn4       1.0  0.8921385187986601  0.9268729344800375  0.9195512275738904  1.0000
  Zn  Zn5       1.0  0.43490694362448323  0.40212510118275435  0.6565987575456161  1.0000
  Zn  Zn6       1.0  0.5978761147837021  0.5650968807512554  0.8434003165805632  1.0000
  Zn  Zn7       1.0  0.5650973718798654  0.5978706707365192  0.3434020764733532  1.0000
  Zn  Zn8       1.0  0.40212109908659244  0.4349026331154348  0.15659965264858036  1.0000
  H   H1        1.0  0.936759914263817  0.5786248086135826  0.369754295430674  1.0000
  H   H2        1.0  0.4213791902381558  0.06324249706235455  0.13024655993718426  1.0000
  H   H3        1.0  0.0632470132964968  0.42138151531634793  0.6302504335427983  1.0000
  H   H4        1.0  0.5786131059614306  0.9367506623268084  0.869750205867106  1.0000
  H   H5        1.0  0.9906906291222484  0.4268181902508558  0.3636723923731465  1.0000
  H   H6        1.0  0.573184545115879  0.009312401832467246  0.13632847158193326  1.0000
  H   H7        1.0  0.0093179207013918  0.5731902348670416  0.6363299671232525  1.0000
  H   H8        1.0  0.4268069707695972  0.990680459945416  0.8636728487139961  1.0000
  H   H9        1.0  0.2359144382832099  0.603493972253645  0.5489200376733052  1.0000
  H   H10       1.0  0.39650626591265586  0.7640888618366116  0.9510824146143404  1.0000
  H   H11       1.0  0.7640915634323235  0.3965054091332546  0.4510856350955308  1.0000
  H   H12       1.0  0.6034924886381674  0.23590761656596018  0.04891878266838029  1.0000
  H   H13       1.0  0.1771669083703031  0.7522964005279321  0.5550177971794594  1.0000
  H   H14       1.0  0.2477052947306291  0.8228352235595862  0.9449855443448739  1.0000
  H   H15       1.0  0.8228383091572696  0.24770340151655285  0.4449887690231549  1.0000
  H   H16       1.0  0.7522973923237828  0.17715916312632615  0.05501352937258727  1.0000
  H   H17       1.0  0.046403987057082915  0.0850275712843285  0.3070666111891072  1.0000
  H   H18       1.0  0.9149718114067511  0.9536026556079805  0.19292932038461424  1.0000
  H   H19       1.0  0.9535963451206939  0.9149680750600951  0.6929346741089759  1.0000
  H   H20       1.0  0.085029532072447  0.046404351662694396  0.8070710846453009  1.0000
  H   H21       1.0  0.056290506836688806  0.20455789810154806  0.41390160015640726  1.0000
  H   H22       1.0  0.7954366320863996  0.9437089106713471  0.08609451454002937  1.0000
  H   H23       1.0  0.9437082677195648  0.7954400446098191  0.5860978996593643  1.0000
  H   H24       1.0  0.20456712403068883  0.056299061175096206  0.9139067573576153  1.0000
  H   H25       1.0  0.20440474804060932  0.48252172126871057  0.3454795713039615  1.0000
  H   H26       1.0  0.5174794503161309  0.7955939476194872  0.15451888883031017  1.0000
  H   H27       1.0  0.7956018861456259  0.5174713104834578  0.6545174675562179  1.0000
  H   H28       1.0  0.4825239392857128  0.20439704813461643  0.8454742494140958  1.0000
  H   H29       1.0  0.18394090931338522  0.3622184983523765  0.23698488662930825  1.0000
  H   H30       1.0  0.6377831969689113  0.8160571916428623  0.2630152516822051  1.0000
  H   H31       1.0  0.8160481215447036  0.6377704378325577  0.7630123996425481  1.0000
  H   H32       1.0  0.3622171120812681  0.18393843155899248  0.7369813464085623  1.0000
  H   H33       1.0  0.36362652789675565  0.5227269626590639  0.45026780595086535  1.0000
  H   H34       1.0  0.47726986460448734  0.6363720655350491  0.04973505727670608  1.0000
  H   H35       1.0  0.6363762046034368  0.47726891379247155  0.5497347262276833  1.0000
  H   H36       1.0  0.5227265127515112  0.36362420590297256  0.9502695803328506  1.0000
  H   H37       1.0  0.1820698120978363  0.35277677563882276  0.5669900174451215  1.0000
  H   H38       1.0  0.6472200150958827  0.817926235405906  0.933012209124392  1.0000
  H   H39       1.0  0.8179313620291567  0.6472206742822876  0.4330134528675201  1.0000
  H   H40       1.0  0.3527746683589683  0.18206569672433656  0.0669889071895042  1.0000
  H   H41       1.0  0.569361156676834  0.5949250092548863  0.5989988325060834  1.0000
  H   H42       1.0  0.40507865529679776  0.4306373327059275  0.9009962642444405  1.0000
  H   H43       1.0  0.4306352183086801  0.40507342624674425  0.40099669681282524  1.0000
  H   H44       1.0  0.5949232968315529  0.5693604125122035  0.09900218285583415  1.0000
  H   H45       1.0  0.5923035633043128  0.7202784927290222  0.5284146509752359  1.0000
  H   H46       1.0  0.27972984451884036  0.40769620206573615  0.9715836798485924  1.0000
  H   H47       1.0  0.4076952558883207  0.27972238322846715  0.47158239134810737  1.0000
  H   H48       1.0  0.720274568757624  0.592304722705414  0.02841683768483699  1.0000
  H   H49       1.0  0.6772794035035619  0.9825810155817791  0.7012996148370475  1.0000
  H   H50       1.0  0.0174211075652337  0.32271950733431953  0.7986991484681237  1.0000
  H   H51       1.0  0.3227209147976567  0.017414616877104556  0.298698858136646  1.0000
  H   H52       1.0  0.9825768797386303  0.6772781308230051  0.20130349967710257  1.0000
  H   H53       1.0  0.6522590489812643  0.8549021881600111  0.7715203388902764  1.0000
  H   H54       1.0  0.1450988711263363  0.3477411869975525  0.7284768593412848  1.0000
  H   H55       1.0  0.347743675019565  0.14509440193187118  0.22847759478894855  1.0000
  H   H56       1.0  0.8548950635258947  0.6522540897793686  0.2715208180310426  1.0000
  H   H57       1.0  0.6953364674200343  0.2703500874338685  0.5594378406554268  1.0000
  H   H58       1.0  0.729657497341755  0.30466975219370346  0.940567623138314  1.0000
  H   H59       1.0  0.30466069025008125  0.7296464816154328  0.4405622424624838  1.0000
  H   H60       1.0  0.27034709766011394  0.6953392980177924  0.05943808866956598  1.0000
  H   H61       1.0  0.7518355586058902  0.12129889338709882  0.541411141168723  1.0000
  H   H62       1.0  0.878702765621888  0.24816497934326504  0.9585897600408797  1.0000
  H   H63       1.0  0.2481624772081901  0.8787009597474763  0.45859271054192857  1.0000
  H   H64       1.0  0.1213001870534853  0.7518426717493368  0.0414113791411026  1.0000
  H   H65       1.0  0.4853934335910211  0.9294175103804319  0.6062086493983684  1.0000
  H   H66       1.0  0.07058799078404118  0.5146077428510265  0.8937910387952781  1.0000
  H   H67       1.0  0.5146108865388399  0.07057826616734524  0.39379312206206407  1.0000
  H   H68       1.0  0.929410083479816  0.48539575948427677  0.1062062256443497  1.0000
  H   H69       1.0  0.4320313703608464  0.08143347410146617  0.6252156468425338  1.0000
  H   H70       1.0  0.9185763237776853  0.5679692055327121  0.8747839325416675  1.0000
  H   H71       1.0  0.5679649307318257  0.9185605545882324  0.3747821625528259  1.0000
  H   H72       1.0  0.08141933247107862  0.432032604700936  0.12521425120516477  1.0000
  H   H73       1.0  0.8740917034968376  0.042386989424827055  0.6428150344233216  1.0000
  H   H74       1.0  0.9576119586572248  0.12590166201110262  0.8571824522500862  1.0000
  H   H75       1.0  0.12590628224594266  0.9576113693156215  0.35718442138477247  1.0000
  H   H76       1.0  0.0423836529551664  0.8740972149764303  0.14281818898918164  1.0000
  H   H77       1.0  0.6889002307565733  0.8512906552019498  0.44610846490374456  1.0000
  H   H78       1.0  0.14870977327311152  0.3110990950235005  0.0538888297820108  1.0000
  H   H79       1.0  0.31110580940873694  0.14871237538567775  0.5538906205940748  1.0000
  H   H80       1.0  0.8512883102417845  0.6889044165688244  0.9461103095405433  1.0000
  C   C1        1.0  0.0235286448502876  0.7685558507735449  0.4675225707013622  1.0000
  C   C2        1.0  0.23144785339125212  0.97647990024042  0.03247868987649837  1.0000
  C   C3        1.0  0.9764814148363358  0.2314487858975269  0.5324776470955185  1.0000
  C   C4        1.0  0.768553325303529  0.023519720687076588  0.9675170783076865  1.0000
  C   C5        1.0  0.05426302316626419  0.6759986075933141  0.4627802335829543  1.0000
  C   C6        1.0  0.3240054584092533  0.9457412019745915  0.03722079802659549  1.0000
  C   C7        1.0  0.945743054754871  0.32400518291978375  0.5372236278301584  1.0000
  C   C8        1.0  0.6759900684981659  0.05425397952708976  0.962777056069072  1.0000
  C   C9        1.0  0.0020316573388825974  0.583459946157582  0.40899582810472157  1.0000
  C   C10       1.0  0.41654318793352735  0.9979701487538504  0.09100707363134565  1.0000
  C   C11       1.0  0.9979736902817109  0.41654720751624535  0.5910083441326676  1.0000
  C   C12       1.0  0.5834498940151037  0.0020218693946035446  0.9089919910762841  1.0000
  C   C13       1.0  0.03242301883670961  0.4986938560414273  0.4052292270100678  1.0000
  C   C14       1.0  0.5013094747597364  0.9675802255425977  0.09477271669569376  1.0000
  C   C15       1.0  0.9675855140459433  0.5013138299793026  0.594772575057611  1.0000
  C   C16       1.0  0.49868854411334956  0.03241888849481714  0.9052305775862377  1.0000
  C   C17       1.0  0.11819848408431713  0.50556361614138  0.4549990537129672  1.0000
  C   C18       1.0  0.49443751885342374  0.881803957322006  0.04500145251363815  1.0000
  C   C19       1.0  0.8818091352690302  0.49443786180497523  0.5450033121373323  1.0000
  C   C20       1.0  0.505561243387355  0.11819325092070444  0.9549984273148835  1.0000
  C   C21       1.0  0.1703090598709665  0.5972874288668847  0.5094557901185367  1.0000
  C   C22       1.0  0.40270939661424177  0.8296938914389855  0.9905477333786405  1.0000
  C   C23       1.0  0.8296952933892001  0.4027091029778588  0.490549819815726  1.0000
  C   C24       1.0  0.5972877025429425  0.1702997304786605  0.009451994907323078  1.0000
  C   C25       1.0  0.1376547172763125  0.6807968858821949  0.5130025835056244  1.0000
  C   C26       1.0  0.3192026141372679  0.862346167834147  0.9870016965557368  1.0000
  C   C27       1.0  0.8623497483842114  0.3192055355973408  0.4870027986510903  1.0000
  C   C28       1.0  0.6807929027674431  0.13764828151313666  0.012997006273408742  1.0000
  C   C29       1.0  0.10972060619881321  0.14502191628742617  0.2032568451652779  1.0000
  C   C30       1.0  0.854975906634408  0.8902808475216017  0.29674109254324316  1.0000
  C   C31       1.0  0.8902723294674786  0.8549627340319005  0.7967413324624671  1.0000
  C   C32       1.0  0.14502529825240632  0.10971952176008408  0.7032571079525878  1.0000
  C   C33       1.0  0.11498114482314752  0.21686353000210798  0.2662441590043727  1.0000
  C   C34       1.0  0.7831386566707152  0.8850239579056872  0.23375484877868044  1.0000
  C   C35       1.0  0.8850159081365803  0.7831278792525393  0.7337548344368939  1.0000
  C   C36       1.0  0.216866601619401  0.1149794956537846  0.7662455988736524  1.0000
  C   C37       1.0  0.0801137627092956  0.1721457842697092  0.31604944790937844  1.0000
  C   C38       1.0  0.8278559885631296  0.919890667375121  0.18395315864007955  1.0000
  C   C39       1.0  0.919878592812637  0.8278488787706094  0.6839535886803886  1.0000
  C   C40       1.0  0.1721494622067823  0.08012236667647697  0.8160489109368355  1.0000
  C   C41       1.0  0.08674162969912662  0.23841824506898482  0.37560338507341123  1.0000
  C   C42       1.0  0.761584477144531  0.9132645814651495  0.1243963778000392  1.0000
  C   C43       1.0  0.9132563783618436  0.7615815802945247  0.6243948419884758  1.0000
  C   C44       1.0  0.23842344784064548  0.0867530895054998  0.8756046585808974  1.0000
  C   C45       1.0  0.13158453309283402  0.3496337937329982  0.3854971468814624  1.0000
  C   C46       1.0  0.6503676765365256  0.8684106558343457  0.11450222705793314  1.0000
  C   C47       1.0  0.8684071175111754  0.6503664243027386  0.6145027168906977  1.0000
  C   C48       1.0  0.3496352006849222  0.13159330902944077  0.8854979998633681  1.0000
  C   C49       1.0  0.16715887832909002  0.395425006764242  0.33626581736169203  1.0000
  C   C50       1.0  0.6045753018855322  0.8328395866307402  0.16373288889683826  1.0000
  C   C51       1.0  0.8328366070063923  0.6045679667029589  0.6637322393307483  1.0000
  C   C52       1.0  0.395430020294711  0.16716754158626657  0.8362661274125145  1.0000
  C   C53       1.0  0.15682864598824858  0.32853885141502553  0.27609326899872844  1.0000
  C   C54       1.0  0.671459719580689  0.8431709624103971  0.22390666619279634  1.0000
  C   C55       1.0  0.8431571464720521  0.6714473328172372  0.7239042464359499  1.0000
  C   C56       1.0  0.3285480244884837  0.15683713963940693  0.776095091867205  1.0000
  C   C57       1.0  0.34367454391191643  0.4818079045282813  0.48813834317503063  1.0000
  C   C58       1.0  0.5181861801713978  0.6563205469025772  0.01186140281764376  1.0000
  C   C59       1.0  0.6563266232767972  0.5181895384500592  0.5118637209754197  1.0000
  C   C60       1.0  0.4818093259789222  0.3436724473929259  0.9881408723613703  1.0000
  C   C61       1.0  0.24933641189554123  0.39608263914273295  0.5488106929440447  1.0000
  C   C62       1.0  0.603914411950278  0.7506614993744093  0.951192676065304  1.0000
  C   C63       1.0  0.7506647399132617  0.6039133441553162  0.45119400611481086  1.0000
  C   C64       1.0  0.3960810772590478  0.24933075582392664  0.04880904168499002  1.0000
  C   C65       1.0  0.5903944786396877  0.6364773159599578  0.7285649785097446  1.0000
  C   C66       1.0  0.36352486719637517  0.409609303547711  0.771430606456171  1.0000
  C   C67       1.0  0.40960753431435387  0.3635233787040803  0.27143429214321196  1.0000
  C   C68       1.0  0.6364756004516182  0.5903944219519346  0.22856649870174547  1.0000
  C   C69       1.0  0.6074763647322214  0.7164224429292714  0.689054486022897  1.0000
  C   C70       1.0  0.2835791921022448  0.3925224986921521  0.8109429116247283  1.0000
  C   C71       1.0  0.3925232086402204  0.2835758159074259  0.31094420906708103  1.0000
  C   C72       1.0  0.7164211970273797  0.6074768153670362  0.1890555361681763  1.0000
  C   C73       1.0  0.5939840761614477  0.6798555032338384  0.6211734363354393  1.0000
  C   C74       1.0  0.32015179950221306  0.406019373745991  0.8788213834455263  1.0000
  C   C75       1.0  0.4060163945509886  0.3201489474774348  0.37882141392680774  1.0000
  C   C76       1.0  0.6798502165162646  0.593982046129682  0.12117563231176831  1.0000
  C   C77       1.0  0.6067566884175051  0.7499747951857002  0.5817030652484475  1.0000
  C   C78       1.0  0.2500317080854018  0.3932462822573369  0.9182949877163081  1.0000
  C   C79       1.0  0.39324376385057747  0.25002747063365394  0.4182966748178741  1.0000
  C   C80       1.0  0.7499703341251094  0.6067558859725252  0.0817044603526256  1.0000
  C   C81       1.0  0.6362590301729725  0.8585314613990178  0.6108927828391584  1.0000
  C   C82       1.0  0.1414741313996686  0.36374240979882444  0.8891065338470128  1.0000
  C   C83       1.0  0.3637390510291638  0.14147204787904843  0.38910588776266747  1.0000
  C   C84       1.0  0.8585263493732073  0.6362606066889781  0.11089610725168345  1.0000
  C   C85       1.0  0.652595772648759  0.8972338706801466  0.6791033009179087  1.0000
  C   C86       1.0  0.1027676073611588  0.34740548601362764  0.8208964866505679  1.0000
  C   C87       1.0  0.34740698754682614  0.10276419992032973  0.3208962163394915  1.0000
  C   C88       1.0  0.8972319945160762  0.6525935234915178  0.17910510947178432  1.0000
  C   C89       1.0  0.6375735383490522  0.8258517834069677  0.7181758712403123  1.0000
  C   C90       1.0  0.17414866755506614  0.36243035853055255  0.7818225969319171  1.0000
  C   C91       1.0  0.36242753719641735  0.17414195714275843  0.2818219996043467  1.0000
  C   C92       1.0  0.8258493520696959  0.6375694784042308  0.21817797373361708  1.0000
  C   C93       1.0  0.5342862542055898  0.2813132249498622  0.6085561670960898  1.0000
  C   C94       1.0  0.718696625327816  0.4657225973277973  0.8914431729459263  1.0000
  C   C95       1.0  0.46571580338483193  0.7186904029602841  0.3914406460644385  1.0000
  C   C96       1.0  0.2813038092475963  0.5342782064970137  0.10855873330806526  1.0000
  C   C97       1.0  0.5616332167256743  0.1869039804335131  0.5946866924842027  1.0000
  C   C98       1.0  0.8131060041487925  0.43837692992339305  0.9053153983514117  1.0000
  C   C99       1.0  0.43836231324618785  0.8130919262798029  0.4053089067158026  1.0000
  C   C100      1.0  0.1868928966843697  0.561626916308306  0.09468668601120099  1.0000
  C   C101      1.0  0.6503232954890592  0.1956330148320475  0.5701711674801188  1.0000
  C   C102      1.0  0.8043736885514436  0.34968285422908  0.9298327241070082  1.0000
  C   C103      1.0  0.3496787120877869  0.804366952306104  0.42982988934777194  1.0000
  C   C104      1.0  0.19562921948755732  0.6503218636174067  0.07017087256740234  1.0000
  C   C105      1.0  0.6825184601288897  0.11179477385248768  0.5606229898372276  1.0000
  C   C106      1.0  0.8882090758274899  0.3174877697155408  0.9393775489389851  1.0000
  C   C107      1.0  0.31748352975528604  0.8882037312911137  0.43938023317834046  1.0000
  C   C108      1.0  0.11179306340346072  0.6825188284688224  0.060624306260805796  1.0000
  C   C109      1.0  0.6249539033998631  0.01662777085951457  0.5757816956187154  1.0000
  C   C110      1.0  0.9833773766736088  0.37504800144547784  0.9242198202017133  1.0000
  C   C111      1.0  0.3750424431385894  0.9833677475957998  0.4242195722377388  1.0000
  C   C112      1.0  0.016623949112918996  0.6249575438306535  0.07578275101588619  1.0000
  C   C113      1.0  0.5323858091773418  0.004833093468313629  0.5970153630039617  1.0000
  C   C114      1.0  0.9951732283601374  0.46761626344593304  0.9029873981968988  1.0000
  C   C115      1.0  0.46761375881791173  0.9951644378424972  0.40298511826095046  1.0000
  C   C116      1.0  0.004828920873528399  0.5323910668928348  0.09701360826941398  1.0000
  C   C117      1.0  0.5020853858916823  0.08966188365871366  0.6069781323257644  1.0000
  C   C118      1.0  0.9103457641875821  0.4979173532602701  0.8930241424023817  1.0000
  C   C119      1.0  0.49791418748075966  0.9103363751779837  0.3930205627642137  1.0000
  C   C120      1.0  0.08965388695155237  0.5020845941195018  0.10697593366900546  1.0000
  C   C121      1.0  0.8513687446214888  0.9992323909976191  0.5909516495653689  1.0000
  C   C122      1.0  0.0007675486787519986  0.1486266079413028  0.9090438014991801  1.0000
  C   C123      1.0  0.14863165219809824  0.0007676529017147196  0.4090454807733364  1.0000
  C   C124      1.0  0.9992305294589487  0.8513761761251358  0.09095712399830798  1.0000
  C   C125      1.0  0.7568320654910394  0.9006558099886346  0.48957866596621347  1.0000
  C   C126      1.0  0.09934371580293089  0.24316303469413464  0.010419861383176987  1.0000
  C   C127      1.0  0.24316758333533534  0.0993461350768854  0.5104209413844386  1.0000
  C   C128      1.0  0.9006551072635389  0.7568371229944901  0.9895808419980269  1.0000
  N   N1        1.0  0.3520663881772633  0.4198330858280029  0.5738439778687974  1.0000
  N   N2        1.0  0.5801693626001311  0.6479303280337874  0.9261578672828888  1.0000
  N   N3        1.0  0.6479356455916161  0.5801676296643377  0.42615951127073964  1.0000
  N   N4        1.0  0.4198252939110176  0.3520601328448833  0.07384354033576557  1.0000
  N   N5        1.0  0.41143592701892123  0.47256753839748444  0.5355267000516406  1.0000
  N   N6        1.0  0.5274305078021229  0.5885629597863229  0.964475805630606  1.0000
  N   N7        1.0  0.5885676258639806  0.5274293979050526  0.46447652227129765  1.0000
  N   N8        1.0  0.47256342765952297  0.4114308735101061  0.03552778769524419  1.0000
  N   N9        1.0  0.2412554927996453  0.4341373035875832  0.49454422909202117  1.0000
  N   N10       1.0  0.565858892250688  0.7587429944286368  0.005457205514694923  1.0000
  N   N11       1.0  0.7587464362588392  0.5658582521101037  0.5054581703708649  1.0000
  N   N12       1.0  0.4341390388529972  0.2412516989112915  0.9945455565193057  1.0000
  N   N13       1.0  0.14641185609426094  0.41763590255301597  0.4496587158409895  1.0000
  N   N14       1.0  0.5823617630441832  0.853589795458319  0.0503424755539115  1.0000
  N   N15       1.0  0.8535925618077229  0.582365026846645  0.550342739133903  1.0000
  N   N16       1.0  0.41763625426781914  0.1464100391622125  0.9496576263908946  1.0000
  N   N17       1.0  0.8594153981204045  0.9280173345842683  0.4934675966703848  1.0000
  N   N18       1.0  0.0719796635413203  0.14058096489655716  0.006528300246579001  1.0000
  N   N19       1.0  0.14058504489664614  0.07198492197806419  0.5065302685130104  1.0000
  N   N20       1.0  0.9280191725923005  0.8594206501580998  0.9934692995054845  1.0000
  N   N21       1.0  0.9186703493240955  0.9902934888917866  0.5567765571796242  1.0000
  N   N22       1.0  0.0097075248401097  0.08132337505802668  0.9432186863218915  1.0000
  N   N23       1.0  0.08133011832390481  0.009710236607858703  0.44322054797829213  1.0000
  N   N24       1.0  0.9902888347654938  0.91867360076332  0.056779477905422523  1.0000
  N   N25       1.0  0.7490991758056113  0.9445807270683771  0.550198011291087  1.0000
  N   N26       1.0  0.05542010066898229  0.25089895051296196  0.9497993653712624  1.0000
  N   N27       1.0  0.2509044586600879  0.05542134588624488  0.4498016135011936  1.0000
  N   N28       1.0  0.9445755309488391  0.749101390783366  0.050199578401055975  1.0000
  N   N29       1.0  0.6549322450208949  0.9294925343211343  0.5687393697460478  1.0000
  N   N30       1.0  0.0705099176057828  0.3450626260015496  0.9312570254389169  1.0000
  N   N31       1.0  0.3450673629852118  0.07050792560728064  0.43125771658497297  1.0000
  N   N32       1.0  0.9294897289078322  0.6549393167497185  0.06874211319100708  1.0000
  O   O1        1.0  0.946573426116494  0.7584112421259873  0.4172677445214318  1.0000
  O   O2        1.0  0.24159690472410494  0.05343308035865141  0.08273580540825519  1.0000
  O   O3        1.0  0.0534294711681085  0.241592020668726  0.5827394245028471  1.0000
  O   O4        1.0  0.7584050820379102  0.9465668659511901  0.917261032933055  1.0000
  O   O5        1.0  0.06932565820707029  0.849323995569648  0.5164775091972585  1.0000
  O   O6        1.0  0.15067987503254443  0.9306926593723188  0.983520422927711  1.0000
  O   O7        1.0  0.9306956326647864  0.15068655893585262  0.4835153696203065  1.0000
  O   O8        1.0  0.8493182408032497  0.06931305099747227  0.016476638915158014  1.0000
  O   O9        1.0  0.12016636286321612  0.18746728186680878  0.1541664197694459  1.0000
  O   O10       1.0  0.812525210486598  0.8798293071311746  0.34583120185784105  1.0000
  O   O11       1.0  0.8798224770761536  0.8125113532428755  0.8458324369149606  1.0000
  O   O12       1.0  0.18747751120147885  0.12016728064645582  0.6541662631006558  1.0000
  O   O13       1.0  0.09657485607940691  0.04962269772605049  0.19945820459989247  1.0000
  O   O14       1.0  0.950381517976112  0.9034340138738981  0.30054495536457887  1.0000
  O   O15       1.0  0.9034326593729533  0.9503721769451586  0.8005489875272784  1.0000
  O   O16       1.0  0.0496180068861136  0.0965620299855487  0.699452536159974  1.0000
  O   O17       1.0  0.45172401270199464  0.2674910353929859  0.6329939198010308  1.0000
  O   O18       1.0  0.7325194283817709  0.5482848800318577  0.8670018802941114  1.0000
  O   O19       1.0  0.5482755136635831  0.7325064542612124  0.36699812449073477  1.0000
  O   O20       1.0  0.2674770528752219  0.45171799468131  0.13299793103857377  1.0000
  O   O21       1.0  0.5884176187834528  0.36735849379827096  0.597506700956984  1.0000
  O   O22       1.0  0.632656123792593  0.4115997450570034  0.902490520909481  1.0000
  O   O23       1.0  0.4115876564476508  0.6326456988583685  0.4024943041240617  1.0000
  O   O24       1.0  0.3673411093314485  0.5884005102211133  0.09751047446911085  1.0000
  O   O25       1.0  0.6069119034275446  0.6711223364083451  0.7910082638597868  1.0000
  O   O26       1.0  0.32886947563108043  0.39308248823439124  0.7089836174340431  1.0000
  O   O27       1.0  0.39308435684485943  0.3288702071442415  0.20898702451594175  1.0000
  O   O28       1.0  0.671120478759022  0.6069133881793076  0.2910122563217286  1.0000
  O   O29       1.0  0.5635232769219415  0.5385597920906305  0.6988004521292623  1.0000
  O   O30       1.0  0.4614403672149763  0.43648561189635865  0.8011944279701949  1.0000
  O   O31       1.0  0.43648503884996603  0.46143684450066047  0.3012004880393205  1.0000
  O   O32       1.0  0.5385568774151395  0.5635168213309142  0.19880027144213122  1.0000
