data_image0
_chemical_formula_structural       Zn16H128C192N64O40
_chemical_formula_sum              "Zn16 H128 C192 N64 O40"
_cell_length_a       9.897316255024165
_cell_length_b       18.865234534017997
_cell_length_c       32.850019642048444
_cell_angle_alpha    89.9999986576405
_cell_angle_beta     90.00019646471205
_cell_angle_gamma    89.99984077671617

_space_group_name_H-M_alt    "P 1"
_space_group_IT_number       1

loop_
  _space_group_symop_operation_xyz
  'x, y, z'

loop_
  _atom_site_type_symbol
  _atom_site_label
  _atom_site_symmetry_multiplicity
  _atom_site_fract_x
  _atom_site_fract_y
  _atom_site_fract_z
  _atom_site_occupancy
  Zn  Zn1       1.0  0.7246307074779281  0.9143628486297218  0.9413206574570837  1.0000
  Zn  Zn2       1.0  0.27536855116766656  0.5856357623997397  0.441319813567688  1.0000
  Zn  Zn3       1.0  0.7753700412929234  0.4143653361597615  0.05867920538302231  1.0000
  Zn  Zn4       1.0  0.22463456051242048  0.08563300179895353  0.5586807553747875  1.0000
  Zn  Zn5       1.0  0.27537071756634657  0.08563456571358333  0.05868016726159202  1.0000
  Zn  Zn6       1.0  0.72462883236129  0.4143669527022595  0.5586807067350466  1.0000
  Zn  Zn7       1.0  0.2246303733586785  0.5856368488644536  0.9413207060936417  1.0000
  Zn  Zn8       1.0  0.7753709060304317  0.9143654726925236  0.4413203737597869  1.0000
  Zn  Zn9       1.0  0.9702448028972769  0.9358476951316778  0.7807080946269096  1.0000
  Zn  Zn10      1.0  0.029756666204122005  0.5641541033478888  0.280705475623904  1.0000
  Zn  Zn11      1.0  0.5297578535187242  0.4358447050515936  0.21929329001385875  1.0000
  Zn  Zn12      1.0  0.4702455482032448  0.0641546860608386  0.7192950935875049  1.0000
  Zn  Zn13      1.0  0.029758642888786803  0.06415342973915021  0.21929303450660606  1.0000
  Zn  Zn14      1.0  0.9702457691952234  0.435847551599288  0.7192938270261637  1.0000
  Zn  Zn15      1.0  0.4702455922645827  0.564154829592539  0.7807066214643827  1.0000
  Zn  Zn16      1.0  0.5297589079636467  0.9358448485825192  0.2807063399603607  1.0000
  H   H1        1.0  0.6612581339897903  0.0502771630135115  0.925063105670205  1.0000
  H   H2        1.0  0.3387425616793607  0.44972168905951554  0.4250632358162606  1.0000
  H   H3        1.0  0.8387435214857247  0.550280376706347  0.07493676173667303  1.0000
  H   H4        1.0  0.1612576225417257  0.9497187803614365  0.5749370241445675  1.0000
  H   H5        1.0  0.33874329104928347  0.9497202513298076  0.07493680580700612  1.0000
  H   H6        1.0  0.6612558322165115  0.5502820861929082  0.5749363712455278  1.0000
  H   H7        1.0  0.16125689316309183  0.4497228684690172  0.9250631497399838  1.0000
  H   H8        1.0  0.8387438024931555  0.050280224208599116  0.4250628873326364  1.0000
  H   H9        1.0  0.5232350401749457  0.0270641942887693  0.9460706324294395  1.0000
  H   H10       1.0  0.47676589497727656  0.472936777171036  0.4460702958075019  1.0000
  H   H11       1.0  0.9767657271575133  0.5270656162444072  0.05392923526812152  1.0000
  H   H12       1.0  0.023236187746455503  0.9729346018893139  0.553928746207859  1.0000
  H   H13       1.0  0.4767653744850335  0.9729348102820056  0.0539292790472459  1.0000
  H   H14       1.0  0.5232345196677315  0.5270659379287679  0.5539287024276903  1.0000
  H   H15       1.0  0.0232346874972222  0.4729360387042265  0.9460709806223593  1.0000
  H   H16       1.0  0.9767652372856405  0.027065462831870897  0.4460711652693378  1.0000
  H   H17       1.0  0.9203139773913735  0.834571509741487  0.0041578489049812  1.0000
  H   H18       1.0  0.07969141161616732  0.6654260601804652  0.5041580307525919  1.0000
  H   H19       1.0  0.579685170762879  0.3345747735056791  0.9958414061073815  1.0000
  H   H20       1.0  0.4203072384338569  0.1654235454138515  0.4958431460145009  1.0000
  H   H21       1.0  0.07969249951910481  0.1654264346737122  0.9958417581610138  1.0000
  H   H22       1.0  0.920304961545199  0.33457453461997494  0.49584279396345476  1.0000
  H   H23       1.0  0.42031221275287584  0.6654290017475051  0.004157287712423901  1.0000
  H   H24       1.0  0.5796921658633921  0.8345728087797827  0.5041576787031377  1.0000
  H   H25       1.0  0.9810803720930892  0.7071704513070642  0.020223320444380008  1.0000
  H   H26       1.0  0.018919137818734597  0.7928244675413441  0.5202228291918305  1.0000
  H   H27       1.0  0.5189174261400495  0.20717539511973376  0.9797771538204005  1.0000
  H   H28       1.0  0.48106974804094454  0.292823454579171  0.47977834597240593  1.0000
  H   H29       1.0  0.0189281255748668  0.29282590287991894  0.979776895450307  1.0000
  H   H30       1.0  0.9810721834746872  0.20717559718721656  0.4797789087630805  1.0000
  H   H31       1.0  0.4810759158750173  0.792829440287548  0.020221844411132405  1.0000
  H   H32       1.0  0.5189246043751652  0.7071734296937607  0.5202215655011602  1.0000
  H   H33       1.0  0.8574374452404286  0.610722740460986  0.9833739751522047  1.0000
  H   H34       1.0  0.14255724095773561  0.8892737484371764  0.48337359930913254  1.0000
  H   H35       1.0  0.6425588400869771  0.11072701482946459  0.016626500321436307  1.0000
  H   H36       1.0  0.3574281059314046  0.38927026482340216  0.5166272702298188  1.0000
  H   H37       1.0  0.1425700420522844  0.38927308365117613  0.0166259363281469  1.0000
  H   H38       1.0  0.8574361010931284  0.11072737644100533  0.5166299651297381  1.0000
  H   H39       1.0  0.3574334915538913  0.8892762303518609  0.9833718890819445  1.0000
  H   H40       1.0  0.6425712983623768  0.610726089370246  0.4833729456601788  1.0000
  H   H41       1.0  0.6811993969105002  0.6428995182176394  0.9326427119668923  1.0000
  H   H42       1.0  0.3187987524333806  0.8570996232663007  0.4326428227067894  1.0000
  H   H43       1.0  0.8188007604890188  0.1429024717486485  0.06735684986373512  1.0000
  H   H44       1.0  0.18118373273943433  0.35709480569559565  0.567356829578934  1.0000
  H   H45       1.0  0.3188091007574557  0.35709683596934383  0.06735750392779491  1.0000
  H   H46       1.0  0.681191558477444  0.14290468206755952  0.5673595240752151  1.0000
  H   H47       1.0  0.18119460228076184  0.8570991832037294  0.9326415395412158  1.0000
  H   H48       1.0  0.8188146611731854  0.6429026086499547  0.4326427774828901  1.0000
  H   H49       1.0  0.5431616402490606  0.6782609618286133  0.8898995915381605  1.0000
  H   H50       1.0  0.45683905294311705  0.8217387115914223  0.3899010627439453  1.0000
  H   H51       1.0  0.9568403517000448  0.1782621208212021  0.11009814336699723  1.0000
  H   H52       1.0  0.043158774067798306  0.3217325043720366  0.6101019385452207  1.0000
  H   H53       1.0  0.45683776404540316  0.3217364525161771  0.11010123317947063  1.0000
  H   H54       1.0  0.5431552994687294  0.17826506366390057  0.6101012840401481  1.0000
  H   H55       1.0  0.04316208368854999  0.8217390040504428  0.8898990283863243  1.0000
  H   H56       1.0  0.9568416406123604  0.678262789669695  0.3898997994144083  1.0000
  H   H57       1.0  0.372528113245842  0.728196327241932  0.8424079030149729  1.0000
  H   H58       1.0  0.6274710281453367  0.7718049384752917  0.3424086375883419  1.0000
  H   H59       1.0  0.12747525814745592  0.22819478676392183  0.157590837656727  1.0000
  H   H60       1.0  0.8725223882956431  0.2717966559076572  0.6575924446912753  1.0000
  H   H61       1.0  0.6274723014245467  0.2718026773288074  0.1575938349446346  1.0000
  H   H62       1.0  0.3725172620024679  0.2282004270112381  0.6575918827096887  1.0000
  H   H63       1.0  0.8725241461310133  0.771804747883195  0.8424081605779679  1.0000
  H   H64       1.0  0.1274739848772626  0.7281975779859382  0.3424074667833495  1.0000
  H   H65       1.0  0.3527860096602994  0.8589378916705784  0.8346797383401638  1.0000
  H   H66       1.0  0.6472170851271954  0.6410628443049122  0.33468019050259573  1.0000
  H   H67       1.0  0.1472197044467833  0.35893791212677684  0.1653205227620944  1.0000
  H   H68       1.0  0.8527699470948277  0.1410535302139451  0.6653181536890929  1.0000
  H   H69       1.0  0.6472194568839525  0.1410600527453241  0.16532139079441074  1.0000
  H   H70       1.0  0.35276615312800164  0.35894411141209304  0.6653178944822571  1.0000
  H   H71       1.0  0.8527786894644009  0.6410626826721854  0.8346803019549969  1.0000
  H   H72       1.0  0.1472213741959223  0.858939643532239  0.3346799313000092  1.0000
  H   H73       1.0  0.5044261507644308  0.9369134864928554  0.8783778112291574  1.0000
  H   H74       1.0  0.49557845256970984  0.563086717501932  0.3783784123894805  1.0000
  H   H75       1.0  0.9955785207714387  0.4369140580958587  0.12162205133014942  1.0000
  H   H76       1.0  0.004414674085204201  0.06307950644861651  0.6216188082786476  1.0000
  H   H77       1.0  0.4955813365240899  0.06308392784602292  0.12162210025118013  1.0000
  H   H78       1.0  0.5044098375652766  0.43691758783351287  0.6216193681841702  1.0000
  H   H79       1.0  0.004416842018145  0.5630860066297458  0.8783790777992027  1.0000
  H   H80       1.0  0.9955827094487334  0.9369147274442893  0.378378667885933  1.0000
  H   H81       1.0  0.025845302335916608  0.987065875555267  0.9722578732844698  1.0000
  H   H82       1.0  0.9741603712479546  0.5129343243482085  0.4722571421776963  1.0000
  H   H83       1.0  0.4741556956269974  0.48706436236281564  0.027743299449873908  1.0000
  H   H84       1.0  0.5258465327546418  0.012931326567738204  0.5277442477693699  1.0000
  H   H85       1.0  0.9741530915679846  0.012934189168156304  0.027741429363523206  1.0000
  H   H86       1.0  0.025839033030138108  0.4870673306011779  0.527742769298442  1.0000
  H   H87       1.0  0.5258416879068619  0.512935172285765  0.9722566120252412  1.0000
  H   H88       1.0  0.4741538819216728  0.9870660877762775  0.4722577946040688  1.0000
  H   H89       1.0  0.36492008084908173  0.040492185898649814  0.8951905202457413  1.0000
  H   H90       1.0  0.6350812846309993  0.4595066674755374  0.3951891294159396  1.0000
  H   H91       1.0  0.135080237398121  0.5404919864551161  0.10480944043381873  1.0000
  H   H92       1.0  0.8649262990804021  0.9595023986269099  0.6048110372753612  1.0000
  H   H93       1.0  0.635078313069421  0.9595062885980145  0.10481060888518813  1.0000
  H   H94       1.0  0.3649241818962352  0.5404918070159965  0.6048092599942408  1.0000
  H   H95       1.0  0.8649171461294713  0.4595086083446205  0.8951898622136485  1.0000
  H   H96       1.0  0.1350791674614342  0.0404944856378648  0.39518917861776265  1.0000
  H   H97       1.0  0.24159791501487154  0.998972807963462  0.8331268652238182  1.0000
  H   H98       1.0  0.7584021309472107  0.5010226273262434  0.3331253029185462  1.0000
  H   H99       1.0  0.25839998911787626  0.4989737254389439  0.166873698531937  1.0000
  H   H100      1.0  0.7416068565218411  0.0010198371236925003  0.6668754783513509  1.0000
  H   H101      1.0  0.7584004789032905  0.0010251364576348  0.1668739594932944  1.0000
  H   H102      1.0  0.24160636670961108  0.4989753170874849  0.6668736953208453  1.0000
  H   H103      1.0  0.7415973944103982  0.5010279295119205  0.8331262129431708  1.0000
  H   H104      1.0  0.2584006307732807  0.9989770471395903  0.33312534637045144  1.0000
  H   H105      1.0  0.8848684225447486  0.7335767509133861  0.7398042711512575  1.0000
  H   H106      1.0  0.1151335906270816  0.7664261094991432  0.23980386856169394  1.0000
  H   H107      1.0  0.6151312574099067  0.23357469399027764  0.2601952895418975  1.0000
  H   H108      1.0  0.38487261059081124  0.26642681564194254  0.760195480459622  1.0000
  H   H109      1.0  0.11513906474267797  0.26642437395446456  0.260197162398164  1.0000
  H   H110      1.0  0.8848688447694785  0.23357660559917556  0.7601954340883667  1.0000
  H   H111      1.0  0.3848752194943117  0.7664243105760705  0.7398037086964495  1.0000
  H   H112      1.0  0.6151278040479725  0.7335743092311946  0.23980169129266227  1.0000
  H   H113      1.0  0.858725234084794  0.6039526199102456  0.725947950177215  1.0000
  H   H114      1.0  0.1412796522514128  0.8960502411039076  0.22594848616775925  1.0000
  H   H115      1.0  0.6412781595263796  0.10395052403872282  0.2740516121435732  1.0000
  H   H116      1.0  0.35872788719456145  0.3960504549125617  0.7740523832976296  1.0000
  H   H117      1.0  0.14128023244968094  0.3960490350346717  0.27405317895733833  1.0000
  H   H118      1.0  0.8587248039050265  0.10395194391732333  0.7740523385524514  1.0000
  H   H119      1.0  0.3587262966349627  0.8960484805290893  0.7259486037490108  1.0000
  H   H120      1.0  0.6412745481971598  0.6039501398835085  0.22594509286951595  1.0000
  H   H121      1.0  0.2857659617568729  0.7035346260397901  0.7875500525689249  1.0000
  H   H122      1.0  0.7142365957252894  0.7964671721408296  0.28754844100667043  1.0000
  H   H123      1.0  0.2142365291186508  0.20353242585006373  0.2124486884116266  1.0000
  H   H124      1.0  0.7857688153118544  0.2964685557859141  0.7124492924177235  1.0000
  H   H125      1.0  0.7142395048016326  0.2964611980737927  0.21245259863476926  1.0000
  H   H126      1.0  0.2857648292932637  0.20353342265597263  0.7124493395737731  1.0000
  H   H127      1.0  0.785768937416549  0.7964676388681443  0.7875518318952928  1.0000
  H   H128      1.0  0.21423564083662677  0.7035320390086428  0.28754940140574803  1.0000
  C   C1        1.0  0.8703051407641952  0.790081221985183  0.9891456667096892  1.0000
  C   C2        1.0  0.12969870460754857  0.709916326805903  0.48914588867731373  1.0000
  C   C3        1.0  0.6296942416592658  0.2900844553236652  0.010854806516071801  1.0000
  C   C4        1.0  0.3702997111791646  0.20991494487783774  0.510855591945486  1.0000
  C   C5        1.0  0.12970032577798207  0.20991619235515915  0.0108548535972517  1.0000
  C   C6        1.0  0.8702966581806423  0.2900842679952761  0.5108552404520383  1.0000
  C   C7        1.0  0.3703021314895807  0.7099182597790944  0.989144800544679  1.0000
  C   C8        1.0  0.6296996931104317  0.7900829995425271  0.48914462394450453  1.0000
  C   C9        1.0  0.9026828404866337  0.7198636771569867  0.9980811427350251  1.0000
  C   C10       1.0  0.0973170652531081  0.7801328110965147  0.49808102601328136  1.0000
  C   C11       1.0  0.5973159012903579  0.21986748844639697  0.0019196357848728005  1.0000
  C   C12       1.0  0.4026759289365458  0.2801313820704152  0.5019204537260791  1.0000
  C   C13       1.0  0.0973246468078131  0.280132146955161  0.0019190731591436003  1.0000
  C   C14       1.0  0.902674256032661  0.2198688438587767  0.5019201031139817  1.0000
  C   C15       1.0  0.4026794614835795  0.7801352266571017  0.9980799712753523  1.0000
  C   C16       1.0  0.5973224649802162  0.7198670924262558  0.4980803709910263  1.0000
  C   C17       1.0  0.833542909069216  0.6662264412557095  0.9774360664893467  1.0000
  C   C18       1.0  0.16645373018725712  0.833770577975301  0.477436324814768  1.0000
  C   C19       1.0  0.6664530840035924  0.16623068032164673  0.022564103874202608  1.0000
  C   C20       1.0  0.33353392970384027  0.3337676592235966  0.5225651542491292  1.0000
  C   C21       1.0  0.1664635678503146  0.33376938285717733  0.022564149404303208  1.0000
  C   C22       1.0  0.8335396118493463  0.1662326672052004  0.5225657175549829  1.0000
  C   C23       1.0  0.3335382372644489  0.8337730949359783  0.9774348943562929  1.0000
  C   C24       1.0  0.6664624434613701  0.6662308152745597  0.47743536605311493  1.0000
  C   C25       1.0  0.735280707773761  0.6843768316187564  0.9489124406738298  1.0000
  C   C26       1.0  0.2647176270521072  0.8156217790805655  0.44891280057087374  1.0000
  C   C27       1.0  0.7647172104751405  0.1843803952522549  0.051086816221612714  1.0000
  C   C28       1.0  0.23526810765248748  0.3156163528247121  0.5510877654782007  1.0000
  C   C29       1.0  0.264725769144377  0.3156195225697047  0.05108777521981271  1.0000
  C   C30       1.0  0.7352706631022983  0.18438305633037547  0.5510886329686218  1.0000
  C   C31       1.0  0.2352741107939593  0.8156223198542282  0.9489118775950731  1.0000
  C   C32       1.0  0.7647272551385313  0.6843805314474808  0.448912145995891  1.0000
  C   C33       1.0  0.7089066591285232  0.7562179934944241  0.9413188238573371  1.0000
  C   C34       1.0  0.2910946202526646  0.7437800874580419  0.4413189074440852  1.0000
  C   C35       1.0  0.791093911969945  0.2562220481901464  0.058681040966092717  1.0000
  C   C36       1.0  0.2088965446106812  0.24377310932545274  0.558681659508828  1.0000
  C   C37       1.0  0.2910998177924001  0.24377730054289518  0.058681392036312716  1.0000
  C   C38       1.0  0.7088946802672568  0.2562263381788982  0.5586816128544572  1.0000
  C   C39       1.0  0.20890145080711872  0.7437801368377777  0.9413188705079634  1.0000
  C   C40       1.0  0.7911008389336303  0.7562237749452481  0.4413188607939418  1.0000
  C   C41       1.0  0.6081215242278333  0.781281101286716  0.9111705401346415  1.0000
  C   C42       1.0  0.39188244258100713  0.7187180411285329  0.4111713368099004  1.0000
  C   C43       1.0  0.8918809356483879  0.2812850068546383  0.08882871554778402  1.0000
  C   C44       1.0  0.10810784387356877  0.2187106794241558  0.5888295348707049  1.0000
  C   C45       1.0  0.3918829319453537  0.21871472282764168  0.08883028458560463  1.0000
  C   C46       1.0  0.6081088786939332  0.28128838450690113  0.588830096731151  1.0000
  C   C47       1.0  0.1081174582454025  0.718718238322225  0.9111702826863637  1.0000
  C   C48       1.0  0.8918834774112201  0.7812867349265957  0.4111694633598334  1.0000
  C   C49       1.0  0.5303357773009196  0.7353034638171536  0.8874980639323767  1.0000
  C   C50       1.0  0.4696658988850757  0.7646967397823802  0.3874992446682697  1.0000
  C   C51       1.0  0.9696669246645514  0.23530513396958236  0.11249936584390242  1.0000
  C   C52       1.0  0.030326166219659  0.2646894911234839  0.6125016264365968  1.0000
  C   C53       1.0  0.46966665811132907  0.2646939505254339  0.1125015431315362  1.0000
  C   C54       1.0  0.5303254223891898  0.2353086257019186  0.612501580045148  1.0000
  C   C55       1.0  0.030331469224748303  0.7646965209805928  0.887498110321147  1.0000
  C   C56       1.0  0.9696681861995841  0.7353068630738736  0.387498589450793  1.0000
  C   C57       1.0  0.4364292840575744  0.7633005347952563  0.8603336480121373  1.0000
  C   C58       1.0  0.56357208244264  0.7367002000637016  0.3603343171221952  1.0000
  C   C59       1.0  0.06357390248773949  0.2633006790434678  0.13966448339154172  1.0000
  C   C60       1.0  0.9364205084557682  0.23669394486501014  0.6396658523557905  1.0000
  C   C61       1.0  0.5635711306076061  0.2366984697755043  0.13966717670600565  1.0000
  C   C62       1.0  0.43641721807313877  0.2633051654221177  0.6396649855210728  1.0000
  C   C63       1.0  0.9364244914095609  0.736699915755544  0.8603339060149795  1.0000
  C   C64       1.0  0.0635748543335239  0.7633029394071968  0.36033375470447754  1.0000
  C   C65       1.0  0.4250148620624046  0.8365262430226821  0.8561449074894725  1.0000
  C   C66       1.0  0.5749884774366977  0.6634744920173292  0.3561458937050688  1.0000
  C   C67       1.0  0.0749879389160242  0.33652743049925976  0.1438538318232574  1.0000
  C   C68       1.0  0.9250034886436183  0.16346772330450682  0.6438521457942417  1.0000
  C   C69       1.0  0.5749895941020782  0.163472231469548  0.14385561281694245  1.0000
  C   C70       1.0  0.4249988023209283  0.3365314035455641  0.6438521912818731  1.0000
  C   C71       1.0  0.9250074238610396  0.6634747545286575  0.8561460796507989  1.0000
  C   C72       1.0  0.07499187413665  0.8365286308921612  0.3561456347831041  1.0000
  C   C73       1.0  0.5073129539061655  0.8793032808670491  0.8801948591767899  1.0000
  C   C74       1.0  0.4926916701427757  0.6206969230485556  0.3801954566372673  1.0000
  C   C75       1.0  0.9926910105897377  0.3793049169347357  0.1198037864494026  1.0000
  C   C76       1.0  0.0073011531671199  0.12068917776527142  0.619801458894351  1.0000
  C   C77       1.0  0.49269352300918007  0.12069413347256129  0.11980535671684583  1.0000
  C   C78       1.0  0.507298640736103  0.3793089725121349  0.6198020195235971  1.0000
  C   C79       1.0  0.007305362561894  0.620696738016875  0.8801958206113556  1.0000
  C   C80       1.0  0.9926952199856417  0.8793061162795301  0.380195408442063  1.0000
  C   C81       1.0  0.0031681310033632995  0.9674472665714619  0.9076015837827642  1.0000
  C   C82       1.0  0.9968297328513742  0.5325539963061134  0.40760026698645657  1.0000
  C   C83       1.0  0.4968309495089117  0.4674451872290038  0.0923989803690048  1.0000
  C   C84       1.0  0.5031750470956381  0.03254996880600201  0.5924008182996376  1.0000
  C   C85       1.0  0.9968252110197042  0.032556508684656614  0.09239832769024053  1.0000
  C   C86       1.0  0.0031716921758615994  0.4674465984906605  0.5923990356630926  1.0000
  C   C87       1.0  0.5031674443921972  0.5325559376455616  0.907600322278981  1.0000
  C   C88       1.0  0.4968283987109814  0.9674453252334987  0.40760122407537847  1.0000
  C   C89       1.0  0.0725234352341033  0.9897989116296062  0.9423851602532454  1.0000
  C   C90       1.0  0.9274798770380457  0.5102018196527994  0.44238377221021363  1.0000
  C   C91       1.0  0.42747754833305157  0.48979799566989624  0.057615403619166713  1.0000
  C   C92       1.0  0.5725250205983059  0.010199812261085104  0.5576173133562677  1.0000
  C   C93       1.0  0.9274739482945125  0.010203273396825802  0.05761505563567231  1.0000
  C   C94       1.0  0.0725225583609586  0.4897993052188099  0.5576152260260374  1.0000
  C   C95       1.0  0.5725188248154537  0.5102041893572962  0.9423838990277746  1.0000
  C   C96       1.0  0.42747640445117707  0.9897976020821988  0.44238442460387273  1.0000
  C   C97       1.0  0.2034836934271311  0.015687416939741204  0.9372403359058625  1.0000
  C   C98       1.0  0.7965191618035448  0.48431302482786265  0.43723911126379283  1.0000
  C   C99       1.0  0.2965187761840866  0.515686452486527  0.06276023391355073  1.0000
  C   C100      1.0  0.7034842497939948  0.9843089945813975  0.5627616639418846  1.0000
  C   C101      1.0  0.7965157108558286  0.9843137079340637  0.06276018439793063  1.0000
  C   C102      1.0  0.2034822632230018  0.5156865098177765  0.5627595825581224  1.0000
  C   C103      1.0  0.7034796177177043  0.484315732539173  0.9372396775620688  1.0000
  C   C104      1.0  0.2965181856342483  0.015686299458856502  0.4372397696049647  1.0000
  C   C105      1.0  0.2786345116538627  0.04143737219700231  0.9742117374753578  1.0000
  C   C106      1.0  0.7213667443063868  0.45856518826312975  0.4742107400621266  1.0000
  C   C107      1.0  0.22136782237949157  0.5414354594208248  0.02578974526250021  1.0000
  C   C108      1.0  0.7786347821129028  0.9585615794850431  0.525789731051681  1.0000
  C   C109      1.0  0.7213638822615067  0.9585616323752366  0.025789087241740605  1.0000
  C   C110      1.0  0.27863164960272263  0.5414348764602721  0.525789475827324  1.0000
  C   C111      1.0  0.7786305715348191  0.45856460530255566  0.974211383868422  1.0000
  C   C112      1.0  0.22136664293345382  0.04143636493381561  0.4742117024946354  1.0000
  C   C113      1.0  0.2631188182326554  0.01900988775726381  0.8978309533674605  1.0000
  C   C114      1.0  0.7368825773510536  0.48098843542627623  0.397829667261398  1.0000
  C   C115      1.0  0.236881613127899  0.5190100692012083  0.10216900758157983  1.0000
  C   C116      1.0  0.7631238828707013  0.9809853761477855  0.6021704991598967  1.0000
  C   C117      1.0  0.7368785653015449  0.9809901769668842  0.1021692625214712  1.0000
  C   C118      1.0  0.263120868424636  0.5190100390667498  0.6021684177339213  1.0000
  C   C119      1.0  0.7631177911470672  0.48099211582376006  0.8978305994807417  1.0000
  C   C120      1.0  0.23688057330421944  0.019010447966572003  0.3978306299741733  1.0000
  C   C121      1.0  0.1953693993701862  0.9965207116085186  0.8632029269175804  1.0000
  C   C122      1.0  0.8046289687128124  0.5034757825230827  0.36320110784483023  1.0000
  C   C123      1.0  0.3046285176724339  0.4965215625951345  0.13679733245511022  1.0000
  C   C124      1.0  0.6953769747122465  0.0034725313545607016  0.6367990645650964  1.0000
  C   C125      1.0  0.8046249530410208  0.0034793531178394007  0.13679759338361214  1.0000
  C   C126      1.0  0.19537649781442212  0.4965226919684512  0.6367972815653575  1.0000
  C   C127      1.0  0.695370886604259  0.5034806224298195  0.8632025790210278  1.0000
  C   C128      1.0  0.3046274814654666  0.9965222326086476  0.3632020645689807  1.0000
  C   C129      1.0  0.06330036298045631  0.9705036390792405  0.8685459303624159  1.0000
  C   C130      1.0  0.936698066010777  0.5294944450462253  0.3685442471733111  1.0000
  C   C131      1.0  0.4367007221857194  0.470503236451002  0.1314549381658665  1.0000
  C   C132      1.0  0.5633087507809407  0.029493508106440903  0.631455620496901  1.0000
  C   C133      1.0  0.9366939894206469  0.0294996061005577  0.13145428552493857  1.0000
  C   C134      1.0  0.06330436940007901  0.47050349937192965  0.6314553598905945  1.0000
  C   C135      1.0  0.5633007028393991  0.5294994786480417  0.8685449733113162  1.0000
  C   C136      1.0  0.4366967157671553  0.9705023160071776  0.3685452042238637  1.0000
  C   C137      1.0  0.09058444993605258  0.8018902919114056  0.7771493486923476  1.0000
  C   C138      1.0  0.909416978613784  0.6981088563453428  0.2771488529057963  1.0000
  C   C139      1.0  0.4094134815596178  0.3018888651671859  0.22285121753520806  1.0000
  C   C140      1.0  0.5905869295826207  0.1981110558680399  0.722850403820523  1.0000
  C   C141      1.0  0.9094200062510183  0.19810553220290225  0.22285391133846846  1.0000
  C   C142      1.0  0.09058343604585421  0.3018896181498718  0.7228507541570652  1.0000
  C   C143      1.0  0.5905869331027774  0.6981111995547241  0.7771496071829276  1.0000
  C   C144      1.0  0.4094165161881662  0.8018905990784123  0.2771482900024226  1.0000
  C   C145      1.0  0.08555897760096091  0.7251645070898718  0.7649493538767089  1.0000
  C   C146      1.0  0.9144423118549695  0.7748367620008665  0.2649479490693665  1.0000
  C   C147      1.0  0.4144383475117691  0.22516307244411154  0.23505030007135738  1.0000
  C   C148      1.0  0.5855632130801567  0.2748373781342865  0.7350500890402004  1.0000
  C   C149      1.0  0.9144434578119629  0.27483396740385063  0.23505086201483755  1.0000
  C   C150      1.0  0.0855591131681095  0.2251627726447866  0.7350501359249011  1.0000
  C   C151      1.0  0.5855620671520185  0.7748364622022167  0.7649505246467855  1.0000
  C   C152      1.0  0.41444225344602614  0.7251621565083897  0.2649486047838039  1.0000
  C   C153      1.0  0.9671524779008254  0.6970984797443194  0.7463288152380585  1.0000
  C   C154      1.0  0.032849609653432296  0.8029038503082904  0.2463283273270349  1.0000
  C   C155      1.0  0.5328463837520374  0.19709654378498706  0.2536704414983576  1.0000
  C   C156      1.0  0.46715639948753557  0.3029049661323386  0.7536704124090364  1.0000
  C   C157      1.0  0.032850967889423495  0.30290105489978464  0.2536723138954714  1.0000
  C   C158      1.0  0.9671528257424457  0.19709780463889365  0.753670366495385  1.0000
  C   C159      1.0  0.46715807240444474  0.8029029908584066  0.7463291655665857  1.0000
  C   C160      1.0  0.5328450255247504  0.6970966888156271  0.24632675934376652  1.0000
  C   C161      1.0  0.9529184546740765  0.6257291152608531  0.7376587983088072  1.0000
  C   C162      1.0  0.04708656516451271  0.8742732151673779  0.2376583241845154  1.0000
  C   C163      1.0  0.5470817931485782  0.1257271580469208  0.2623407637372424  1.0000
  C   C164      1.0  0.4529190681815651  0.3742743514940372  0.7623401102424339  1.0000
  C   C165      1.0  0.0470860014813468  0.37427147953368234  0.2623411131699457  1.0000
  C   C166      1.0  0.9529178909815175  0.12572896985388843  0.7623406740527657  1.0000
  C   C167      1.0  0.45291963188977746  0.8742718465231083  0.7376597565676022  1.0000
  C   C168      1.0  0.5470813464575528  0.6257273034546531  0.23765736592365985  1.0000
  C   C169      1.0  0.0646535801588257  0.58224501683614  0.7462671633823279  1.0000
  C   C170      1.0  0.9353485066926694  0.917757313219163  0.24626669158524808  1.0000
  C   C171      1.0  0.4353465182459715  0.08224196048747963  0.25373249235965295  1.0000
  C   C172      1.0  0.5646532345747631  0.41775901935380233  0.7537319535575193  1.0000
  C   C173      1.0  0.9353468344983612  0.41775504788578394  0.2537327480943432  1.0000
  C   C174      1.0  0.06465190795859141  0.08224434172949201  0.7537329154775991  1.0000
  C   C175      1.0  0.5646538964209425  0.9177570440832739  0.7462686367723139  1.0000
  C   C176      1.0  0.4353471800740891  0.5822415754437243  0.2462667402638701  1.0000
  C   C177      1.0  0.1847396897710709  0.6104354075216065  0.7629153125892856  1.0000
  C   C178      1.0  0.815263597250315  0.8895679819585497  0.26291563053654704  1.0000
  C   C179      1.0  0.31526127056702796  0.11043199794202253  0.23708312514429516  1.0000
  C   C180      1.0  0.6847403132022832  0.3895689826233453  0.7370836237885285  1.0000
  C   C181      1.0  0.8152637560084274  0.3895635970469727  0.23708368564749097  1.0000
  C   C182      1.0  0.18473883815043024  0.11043314291305253  0.7370836721135208  1.0000
  C   C183      1.0  0.6847391440981526  0.889567006628738  0.7629176995738478  1.0000
  C   C184      1.0  0.3152611118280788  0.6104310820978469  0.2629159832748443  1.0000
  C   C185      1.0  0.1952909078424696  0.6819420642341358  0.7736459047730622  1.0000
  C   C186      1.0  0.8047104807547215  0.8180602646287412  0.2736446906650229  1.0000
  C   C187      1.0  0.30470866560848725  0.1819392006732343  0.22635344530444004  1.0000
  C   C188      1.0  0.6952938062090936  0.3180612502834493  0.726352738074155  1.0000
  C   C189      1.0  0.8047115275822635  0.31805588018396963  0.22635613760141382  1.0000
  C   C190      1.0  0.19529094426696503  0.18193980009248634  0.7263533943292446  1.0000
  C   C191      1.0  0.6952937698065114  0.8180598038960416  0.7736473794147403  1.0000
  C   C192      1.0  0.3047096395606701  0.6819388144363007  0.2736450425073329  1.0000
  N   N1        1.0  0.5944064868627095  0.8525047157515004  0.9075123917282043  1.0000
  N   N2        1.0  0.4055974382437668  0.6474938967476049  0.4075132034417806  1.0000
  N   N3        1.0  0.9055955979844442  0.3525086010456634  0.0924862542331084  1.0000
  N   N4        1.0  0.09439827509778101  0.14748602491893345  0.5924846249967006  1.0000
  N   N5        1.0  0.4055989796801853  0.1474911083621393  0.0924875197511028  1.0000
  N   N6        1.0  0.5943969141448093  0.3525114687345123  0.5924857947902711  1.0000
  N   N7        1.0  0.09439976478982712  0.6474946441334029  0.9075136572409408  1.0000
  N   N8        1.0  0.9056001188054739  0.8525103292755176  0.40751285116838437  1.0000
  N   N9        1.0  0.7764906164156997  0.8075271386324375  0.9614549194064852  1.0000
  N   N10       1.0  0.2235149340228944  0.6924704113639494  0.4614549339359614  1.0000
  N   N11       1.0  0.7235106948907628  0.30753129332450163  0.03854494477381821  1.0000
  N   N12       1.0  0.27648458400557274  0.19246545529163941  0.538545938078592  1.0000
  N   N13       1.0  0.2235148501292628  0.19246921555676272  0.0385456009004628  1.0000
  N   N14       1.0  0.77648244950327  0.30753336388919195  0.538545586366773  1.0000
  N   N15       1.0  0.27648870938107  0.6924714217760412  0.9614543578746793  1.0000
  N   N16       1.0  0.7235127995356054  0.8075319590546359  0.46145427781036125  1.0000
  N   N17       1.0  0.8756420608561302  0.9400613325854866  0.9021846855102709  1.0000
  N   N18       1.0  0.124356751617448  0.5599394004518531  0.40218277295530674  1.0000
  N   N19       1.0  0.624358552613522  0.44006138950773294  0.09781639466275753  1.0000
  N   N20       1.0  0.3756505368620395  0.05993800689355313  0.5978177963115884  1.0000
  N   N21       1.0  0.1243522915522917  0.059939792292013315  0.09781583479091442  1.0000
  N   N22       1.0  0.8756436630355541  0.4400622544967876  0.5978171385213572  1.0000
  N   N23       1.0  0.3756398412882688  0.5599407955179673  0.902183516812862  1.0000
  N   N24       1.0  0.6243549296814949  0.9400615277490588  0.4021839416506198  1.0000
  N   N25       1.0  0.8579491939845667  0.9272181453710148  0.8625941369734635  1.0000
  N   N26       1.0  0.14204916714474078  0.5727825893917143  0.3625919380909863  1.0000
  N   N27       1.0  0.6420514871112248  0.4272192347706963  0.13740755218830716  1.0000
  N   N28       1.0  0.3579590640827989  0.07278175013116343  0.6374086310153191  1.0000
  N   N29       1.0  0.14204919992801024  0.07278191935237292  0.1374066877436277  1.0000
  N   N30       1.0  0.8579532682552866  0.4272201257065902  0.6374079733867151  1.0000
  N   N31       1.0  0.35794690679090013  0.5727834803305641  0.862592663701129  1.0000
  N   N32       1.0  0.6420504439575793  0.9272188446596275  0.3625931069489711  1.0000
  N   N33       1.0  0.9686638912266758  0.9449093368729468  0.8419202337143903  1.0000
  N   N34       1.0  0.0313352445948922  0.5550898085633024  0.3419182252819725  1.0000
  N   N35       1.0  0.5313377070953892  0.44490899752005947  0.1580814552259824  1.0000
  N   N36       1.0  0.4686740901676957  0.055089866177787924  0.6580826484606136  1.0000
  N   N37       1.0  0.0313345026845084  0.05509125792601572  0.15808059100270105  1.0000
  N   N38       1.0  0.9686682011890895  0.44491078623195784  0.6580822950239026  1.0000
  N   N39       1.0  0.4686616971847784  0.5550931875048877  0.8419190650777963  1.0000
  N   N40       1.0  0.5313344075016175  0.944908608311458  0.34191878508934087  1.0000
  N   N41       1.0  0.27413782375006684  0.5550493355368361  0.765776240127174  1.0000
  N   N42       1.0  0.7258634751342257  0.9449535237445589  0.26577585634999684  1.0000
  N   N43       1.0  0.2258634282247414  0.05504605719415424  0.23422280712884466  1.0000
  N   N44       1.0  0.7741401436875891  0.4449538633432369  0.7342230928664721  1.0000
  N   N45       1.0  0.7258625909147796  0.4449491389583572  0.23422428017715197  1.0000
  N   N46       1.0  0.2741379498905516  0.0550486612789243  0.7342237507133618  1.0000
  N   N47       1.0  0.7741369864390464  0.9449534774521741  0.7657780175892912  1.0000
  N   N48       1.0  0.22586229171594846  0.5550462013772163  0.2657762097836028  1.0000
  N   N49       1.0  0.21444798518322022  0.49631806628789843  0.7526617578911756  1.0000
  N   N50       1.0  0.7855537761777568  0.0036845038252764  0.2526614412099236  1.0000
  N   N51       1.0  0.285557005553123  0.9963160497195963  0.24733758824626056  1.0000
  N   N52       1.0  0.7144501453859532  0.5036846900586056  0.7473381223686744  1.0000
  N   N53       1.0  0.7855534398547946  0.5036804082065628  0.24733845799985235  1.0000
  N   N54       1.0  0.21444663847245243  0.9963182112745131  0.7473384702667334  1.0000
  N   N55       1.0  0.7144464402346742  0.0036850751512176013  0.752663845301072  1.0000
  N   N56       1.0  0.2855543107694701  0.49631590473592985  0.2526617891100784  1.0000
  N   N57       1.0  0.08805098863201978  0.5112291850909756  0.7409627650617949  1.0000
  N   N58       1.0  0.9119500273742958  0.9887726151206666  0.24096226824247685  1.0000
  N   N59       1.0  0.4119515044526949  0.011226692899946001  0.2590368915720873  1.0000
  N   N60       1.0  0.5880523503459544  0.48877375663160194  0.7590372892514168  1.0000
  N   N61       1.0  0.9119504363980011  0.48877034955464893  0.259036537587761  1.0000
  N   N62       1.0  0.0880513976518813  0.0112290398272492  0.7590373388208891  1.0000
  N   N63       1.0  0.5880519413396286  0.9887733718197113  0.7409648463890763  1.0000
  N   N64       1.0  0.41195109543595987  0.5112263080880981  0.2409626222268244  1.0000
  O   O1        1.0  0.0008942730483739  0.8414202138335867  0.759147486473104  1.0000
  O   O2        1.0  0.9991069502642345  0.658579465283296  0.2591452572016237  1.0000
  O   O3        1.0  0.49910648142294894  0.3414175946110164  0.24085155719103576  1.0000
  O   O4        1.0  0.500897166068036  0.15858285571302844  0.7408536956067453  1.0000
  O   O5        1.0  0.9991142246261476  0.15857826065564506  0.24085486031831493  1.0000
  O   O6        1.0  0.0008964955124711001  0.3414205994364253  0.7408537410351528  1.0000
  O   O7        1.0  0.5008999954826693  0.6585808798797644  0.7591474410473114  1.0000
  O   O8        1.0  0.4991072900863287  0.8414187992326491  0.2591465202858245  1.0000
  O   O9        1.0  0.6018259887408917  0.009830850090018804  0.9287650517535443  1.0000
  O   O10       1.0  0.3981717179959078  0.49016959205064153  0.4287640250310788  1.0000
  O   O11       1.0  0.8981728485848067  0.5098323865555374  0.07123512057297891  1.0000
  O   O12       1.0  0.1018292636161249  0.9901673007483964  0.5712353211814047  1.0000
  O   O13       1.0  0.39817240517587044  0.9901676244066451  0.07123577296356133  1.0000
  O   O14       1.0  0.6018286966511681  0.50983365312473  0.5712355820317541  1.0000
  O   O15       1.0  0.1018265556901525  0.4901697984694241  0.9287644864893424  1.0000
  O   O16       1.0  0.8981721614173709  0.009832233897213898  0.4287645902957992  1.0000
  O   O17       1.0  0.1725128139378569  0.8230778819778949  0.8033983857674871  1.0000
  O   O18       1.0  0.8274879034727293  0.6769249756646476  0.3033978057491283  1.0000
  O   O19       1.0  0.32747995413044617  0.32307604646280214  0.19660370226078783  1.0000
  O   O20       1.0  0.6725151058991017  0.17692440579561017  0.6966014512424296  1.0000
  O   O21       1.0  0.8274916422318198  0.17692059251431402  0.19660304778038556  1.0000
  O   O22       1.0  0.1725104904290617  0.32307720936105266  0.6966021057264912  1.0000
  O   O23       1.0  0.6725133879159273  0.6769234881886917  0.8033983401089914  1.0000
  O   O24       1.0  0.3274873294981688  0.8230767190759993  0.3033972425799974  1.0000
  O   O25       1.0  0.40189110290288  0.058734707933844305  0.9727019083751929  1.0000
  O   O26       1.0  0.5981101358494031  0.4412678525920699  0.47270169729917205  1.0000
  O   O27       1.0  0.09811012966437722  0.5587329758624692  0.027297443248407702  1.0000
  O   O28       1.0  0.9018945127579983  0.9412667133540823  0.5272972519640647  1.0000
  O   O29       1.0  0.5981052702501444  0.9412664169421915  0.0272976986855724  1.0000
  O   O30       1.0  0.4018892684242061  0.5587322121306286  0.5272966921078748  1.0000
  O   O31       1.0  0.9018882642426506  0.44126655878537246  0.9727021638134092  1.0000
  O   O32       1.0  0.0981089330225231  0.0587338814411922  0.4727026595141696  1.0000
  O   O33       1.0  0.2066640250264626  0.045041959942388105  0.006875292437307202  1.0000
  O   O34       1.0  0.7933369550538956  0.45496009080525823  0.5068746846080288  1.0000
  O   O35       1.0  0.2933372796420812  0.5450425498429966  0.993125581427158  1.0000
  O   O36       1.0  0.7066635799671417  0.9549587093058778  0.49312578655046496  1.0000
  O   O37       1.0  0.7933363896429101  0.9549554544016559  0.9931255322808498  1.0000
  O   O38       1.0  0.20666143885592453  0.5450383836914412  0.4931249224537953  1.0000
  O   O39       1.0  0.7066590935091739  0.45496122541089073  0.006874938875050402  1.0000
  O   O40       1.0  0.29333986582415866  0.04503976518708441  0.5068750381692411  1.0000
