data_image0
_chemical_formula_structural       Hg4H24C32S8N16O4
_chemical_formula_sum              "Hg4 H24 C32 S8 N16 O4"
_cell_length_a       5.833866662086929
_cell_length_b       13.229198913801332
_cell_length_c       15.118242809038918
_cell_angle_alpha    96.48651251737361
_cell_angle_beta     89.9991129489731
_cell_angle_gamma    90.00028975012658

_space_group_name_H-M_alt    "P 1"
_space_group_IT_number       1

loop_
  _space_group_symop_operation_xyz
  'x, y, z'

loop_
  _atom_site_type_symbol
  _atom_site_label
  _atom_site_symmetry_multiplicity
  _atom_site_fract_x
  _atom_site_fract_y
  _atom_site_fract_z
  _atom_site_occupancy
  Hg  Hg1       1.0  0.8340051926571233  0.4588582209696456  0.12035304152088604  1.0000
  Hg  Hg2       1.0  0.3339993784431812  0.04113858788576151  0.8796399352443917  1.0000
  Hg  Hg3       1.0  0.1659987430258667  0.5411405388999101  0.8796426062912632  1.0000
  Hg  Hg4       1.0  0.665997700187873  0.9588632472091094  0.12036659276948575  1.0000
  H   H1        1.0  0.005739067558010899  0.29344723134922657  0.24365086892823487  1.0000
  H   H2        1.0  0.5057369569267535  0.2065507628317533  0.7563448562652086  1.0000
  H   H3        1.0  0.9942700103068629  0.706552301339414  0.7563488222454284  1.0000
  H   H4        1.0  0.494261836547011  0.7934479869983732  0.24364748329290364  1.0000
  H   H5        1.0  0.8951302872390767  0.214962302096076  0.3803263682416188  1.0000
  H   H6        1.0  0.3951328200639209  0.2850382498670002  0.6196725101475666  1.0000
  H   H7        1.0  0.10486850590912407  0.7850326599466516  0.6196708972132259  1.0000
  H   H8        1.0  0.6048505461340028  0.714959745227283  0.3803217408677569  1.0000
  H   H9        1.0  0.5551720168658106  0.2857307673249778  0.4690192813854851  1.0000
  H   H10       1.0  0.055168111332179096  0.2142709826540924  0.5309816376403946  1.0000
  H   H11       1.0  0.444835346880943  0.71426648104282  0.5309795277599181  1.0000
  H   H12       1.0  0.9448032556727597  0.7857232226518109  0.46901687759920935  1.0000
  H   H13       1.0  0.4737577979183953  0.5020165869533528  0.27746516019023915  1.0000
  H   H14       1.0  0.9737515136142463  0.9979806941174375  0.722534078845193  1.0000
  H   H15       1.0  0.526254708070482  0.4979837145383927  0.7225372510439956  1.0000
  H   H16       1.0  0.02626099240724499  0.0020127544085469006  0.2774656863144146  1.0000
  H   H17       1.0  0.0355393814803477  0.5526376745636199  0.4449066618283269  1.0000
  H   H18       1.0  0.5355357745141021  0.9473609380356935  0.5550975384931506  1.0000
  H   H19       1.0  0.9644731244291904  0.4473618701740564  0.5550969992447677  1.0000
  H   H20       1.0  0.4644647324322335  0.052636326404666506  0.4449065638289583  1.0000
  H   H21       1.0  0.23576468263495792  0.5617742927447296  0.35931464756673404  1.0000
  H   H22       1.0  0.7357652894830622  0.9382278580408615  0.6406860783555219  1.0000
  H   H23       1.0  0.7642461092193428  0.43822220288391395  0.6406867347218466  1.0000
  H   H24       1.0  0.2642335033592644  0.06178158476422619  0.35932118424873494  1.0000
  C   C1        1.0  0.3574135200874266  0.37177059689680897  0.0697964680007601  1.0000
  C   C2        1.0  0.8574039140492643  0.1282231274099175  0.9301923373697679  1.0000
  C   C3        1.0  0.6425818453528436  0.628235752612639  0.9301939595424716  1.0000
  C   C4        1.0  0.1425674530952463  0.871774114954903  0.06980448675830796  1.0000
  C   C5        1.0  0.12114008018619418  0.6422262405321391  0.20684593755819247  1.0000
  C   C6        1.0  0.6211542790090618  0.8577707268779733  0.7931531603648452  1.0000
  C   C7        1.0  0.8788587127871778  0.3577755825104703  0.7931566205664  1.0000
  C   C8        1.0  0.378849656569912  0.142224993924124  0.20684351691006245  1.0000
  C   C9        1.0  0.8601637977144351  0.3219198541146824  0.28416035952868424  1.0000
  C   C10       1.0  0.36016284659142167  0.1780776966971018  0.7158374254357087  1.0000
  C   C11       1.0  0.13984185188422055  0.6780789178049819  0.7158392581795144  1.0000
  C   C12       1.0  0.6398273759776244  0.8219233515200488  0.2841604276718287  1.0000
  C   C13       1.0  0.7980835359574525  0.2789373117855832  0.3605076468348615  1.0000
  C   C14       1.0  0.2980887452420689  0.2210610778047268  0.6394899667087518  1.0000
  C   C15       1.0  0.20192211366030213  0.7210599365832948  0.6394911623071594  1.0000
  C   C16       1.0  0.7018997632088498  0.7789376860915811  0.3605070043705255  1.0000
  C   C17       1.0  0.6098187460916474  0.31814229571931213  0.4094053700868444  1.0000
  C   C18       1.0  0.1098193892750885  0.18185786002743504  0.590594294301191  1.0000
  C   C19       1.0  0.39018861765510576  0.681854952648486  0.5905934390585587  1.0000
  C   C20       1.0  0.8901588341776686  0.8181432002484358  0.40940752867534513  1.0000
  C   C21       1.0  0.48828124891536356  0.40008087927062524  0.3813754944983146  1.0000
  C   C22       1.0  0.988278539917502  0.09991879687784429  0.6186243395286369  1.0000
  C   C23       1.0  0.5117278289330542  0.5999171318757563  0.6186240497579478  1.0000
  C   C24       1.0  0.011704825744473596  0.9000822734374623  0.3813807917019361  1.0000
  C   C25       1.0  0.5606428561158409  0.4387457001615261  0.30374811807210034  1.0000
  C   C26       1.0  0.060635129202481194  0.0612529978521295  0.696251867043813  1.0000
  C   C27       1.0  0.4393679358069205  0.561253836543095  0.6962528964025056  1.0000
  C   C28       1.0  0.9393585213236688  0.938746544888858  0.3037511323433152  1.0000
  C   C29       1.0  0.28442110653065095  0.4411892338162603  0.4346869757969572  1.0000
  C   C30       1.0  0.7844176736393746  0.05881222205806579  0.5653128626157697  1.0000
  C   C31       1.0  0.7155913994062145  0.5588095481417525  0.5653159501686604  1.0000
  C   C32       1.0  0.21556912048304602  0.9411911205258152  0.4346891807537788  1.0000
  S   S1        1.0  0.5836561704087231  0.3611462740568643  0.004629125224660418  1.0000
  S   S2        1.0  0.0836461788735861  0.13885084738607392  0.9953622023172246  1.0000
  S   S3        1.0  0.4163460514928801  0.6388616010075979  0.9953627725470542  1.0000
  S   S4        1.0  0.9163337585439135  0.8611448935164175  0.004641091398134702  1.0000
  S   S5        1.0  0.9171239797306612  0.6440188463753316  0.13109687593446756  1.0000
  S   S6        1.0  0.4171294007015831  0.8559823197535509  0.8689058152547207  1.0000
  S   S7        1.0  0.08288338401344218  0.3559814470855117  0.8689028886945142  1.0000
  S   S8        1.0  0.5828676784627759  0.14401948521335584  0.13109078802748544  1.0000
  N   N1        1.0  0.19417287029797586  0.3765135361695472  0.11641571611550462  1.0000
  N   N2        1.0  0.6941561283079667  0.1234803912645006  0.8835717836472627  1.0000
  N   N3        1.0  0.8058464931697741  0.6234935620447645  0.8835708150410897  1.0000
  N   N4        1.0  0.30582895175920294  0.8765199022103473  0.11642798093777172  1.0000
  N   N5        1.0  0.2670524147294699  0.6428784741242595  0.26088855770714764  1.0000
  N   N6        1.0  0.7670604069990857  0.8571137412896448  0.7391093517427836  1.0000
  N   N7        1.0  0.732944664032928  0.35712563725841306  0.7391162057364938  1.0000
  N   N8        1.0  0.23293324350767358  0.1428774289518557  0.26089151630109353  1.0000
  N   N9        1.0  0.7421967447178942  0.4001020562782573  0.25662105847319344  1.0000
  N   N10       1.0  0.24218861406666287  0.0998964035488612  0.7433763345842338  1.0000
  N   N11       1.0  0.2578140472841994  0.5998982371804332  0.7433787061625524  1.0000
  N   N12       1.0  0.7578050365908311  0.9001054154799207  0.2566249002326587  1.0000
  N   N13       1.0  0.18023038844052044  0.5240384830161491  0.4107647287739199  1.0000
  N   N14       1.0  0.6802257388095965  0.9759629828126822  0.5892376895562352  1.0000
  N   N15       1.0  0.8197786892465828  0.47596105971514663  0.5892382706436337  1.0000
  N   N16       1.0  0.3197644833848088  0.024039609040571012  0.41076758860526763  1.0000
  O   O1        1.0  0.21886862311710323  0.39667752243806825  0.4993547985641627  1.0000
  O   O2        1.0  0.7188718573354578  0.1033232570439893  0.5006453694630937  1.0000
  O   O3        1.0  0.7811421687618818  0.603321255503957  0.5006468041005194  1.0000
  O   O4        1.0  0.2811217932700245  0.8966770424510673  0.4993563800851747  1.0000
