data_image0
_chemical_formula_structural       Cu4H80C72N16O20
_chemical_formula_sum              "Cu4 H80 C72 N16 O20"
_cell_length_a       9.02509752641669
_cell_length_b       15.310882429366528
_cell_length_c       16.83985900553262
_cell_angle_alpha    89.99966061900022
_cell_angle_beta     90.0008364264319
_cell_angle_gamma    89.99927816464808

_space_group_name_H-M_alt    "P 1"
_space_group_IT_number       1

loop_
  _space_group_symop_operation_xyz
  'x, y, z'

loop_
  _atom_site_type_symbol
  _atom_site_label
  _atom_site_symmetry_multiplicity
  _atom_site_fract_x
  _atom_site_fract_y
  _atom_site_fract_z
  _atom_site_occupancy
  Cu  Cu1       1.0  0.4332326707093941  0.723159777623259  0.21539706731378772  1.0000
  Cu  Cu2       1.0  0.9332487011336212  0.2768545084499224  0.7845925980165521  1.0000
  Cu  Cu3       1.0  0.933242421628094  0.7768370249447116  0.7153988964666171  1.0000
  Cu  Cu4       1.0  0.4332245463254196  0.22315701410377642  0.2846032392743397  1.0000
  H   H1        1.0  0.7375135971102935  0.31434769040617994  0.34219076696366113  1.0000
  H   H2        1.0  0.23752491369630493  0.6856464993832319  0.6578098492826074  1.0000
  H   H3        1.0  0.23751615351793728  0.1856635995925657  0.8421767241030552  1.0000
  H   H4        1.0  0.7375267889099959  0.8143534497913978  0.15780785871180575  1.0000
  H   H5        1.0  0.6019894317813622  0.22145226999890616  0.11817495200535433  1.0000
  H   H6        1.0  0.10200713281394509  0.7785279066702419  0.881829362748036  1.0000
  H   H7        1.0  0.1020077360129505  0.2785458450154935  0.6181538877373571  1.0000
  H   H8        1.0  0.6019910439876455  0.721455885041472  0.3818207355078657  1.0000
  H   H9        1.0  0.890859702643702  0.28407728217937495  0.10519242679215073  1.0000
  H   H10       1.0  0.3908946071858281  0.7159255628950092  0.8948064109317715  1.0000
  H   H11       1.0  0.3908848822544542  0.2159253000058214  0.6051811937208742  1.0000
  H   H12       1.0  0.8908661035282746  0.7840644825061958  0.3948087365865548  1.0000
  H   H13       1.0  0.03865624279886501  0.32606496036218874  0.30463129544081374  1.0000
  H   H14       1.0  0.5386668980848981  0.6739307098519092  0.6953612447807632  1.0000
  H   H15       1.0  0.5386537833749826  0.17393303804085752  0.8046312913407123  1.0000
  H   H16       1.0  0.0386627095046066  0.8260632852965771  0.19537075012053157  1.0000
  H   H17       1.0  0.06993078031143798  0.34217529519903433  0.20210498155388026  1.0000
  H   H18       1.0  0.569963429528329  0.6578260202768291  0.7978889892071594  1.0000
  H   H19       1.0  0.569949716738904  0.15782641846365664  0.7021056562270476  1.0000
  H   H20       1.0  0.06994449332415088  0.8421677125442174  0.29789900347851983  1.0000
  H   H21       1.0  0.9214664458997888  0.4680495220442111  0.3194877982240173  1.0000
  H   H22       1.0  0.4214860945722235  0.5319524421077232  0.6805100894105183  1.0000
  H   H23       1.0  0.4214678474006064  0.0319527120640259  0.819481691049241  1.0000
  H   H24       1.0  0.9214791530173655  0.9680466395817292  0.18051797805826916  1.0000
  H   H25       1.0  0.08723633731467119  0.4820559203304455  0.2650588890825532  1.0000
  H   H26       1.0  0.5872547287716188  0.5179361225218599  0.7349417481263674  1.0000
  H   H27       1.0  0.5872405277538418  0.017938061048859304  0.7650573314774578  1.0000
  H   H28       1.0  0.08724721434436589  0.9820552880545111  0.23494983783631807  1.0000
  H   H29       1.0  0.9302891957718131  0.48078417633286114  0.13704981063713725  1.0000
  H   H30       1.0  0.43030193524631244  0.5192196815522153  0.8629487392932237  1.0000
  H   H31       1.0  0.4302941928239079  0.019219206565907105  0.6370431767314744  1.0000
  H   H32       1.0  0.9302936142441924  0.9807755075045107  0.3629565608684687  1.0000
  H   H33       1.0  0.7707527830240792  0.4717276133551636  0.19715541914411017  1.0000
  H   H34       1.0  0.27077143566299355  0.5282800447189473  0.8028371415501429  1.0000
  H   H35       1.0  0.27076312712994616  0.028274597676613705  0.6971505190390419  1.0000
  H   H36       1.0  0.7707633078435093  0.9717147727312465  0.30284560468717814  1.0000
  H   H37       1.0  0.8524388245111254  0.6161204598016566  0.2648352574804208  1.0000
  H   H38       1.0  0.35244096970404826  0.3838852839509884  0.7351603126690878  1.0000
  H   H39       1.0  0.35244823509568585  0.883884452705267  0.7648332346254636  1.0000
  H   H40       1.0  0.8524326673080154  0.11611018781766091  0.23516589853279166  1.0000
  H   H41       1.0  0.7795185612640765  0.6209529116724539  0.16777001597582605  1.0000
  H   H42       1.0  0.2795345539334022  0.3790546811405876  0.8322267695687773  1.0000
  H   H43       1.0  0.27952807491448783  0.8790486179378759  0.6677680185880066  1.0000
  H   H44       1.0  0.7795172843163272  0.12094264664657571  0.3322293607986993  1.0000
  H   H45       1.0  0.15050291965730622  0.6333486844043678  0.2782310554790044  1.0000
  H   H46       1.0  0.6505075547019245  0.36664941883478974  0.7217629469018905  1.0000
  H   H47       1.0  0.6505174038494063  0.8666432733695972  0.7782252855790761  1.0000
  H   H48       1.0  0.1505030428431837  0.13335221728388552  0.22177703045620945  1.0000
  H   H49       1.0  0.9410548720538187  0.6751572651115655  0.056142487265866216  1.0000
  H   H50       1.0  0.44106400416291797  0.3248412876155414  0.9438513956138695  1.0000
  H   H51       1.0  0.4410511371165597  0.8248444582114305  0.556143150696663  1.0000
  H   H52       1.0  0.9410400387766558  0.17514756328299094  0.44386082718914843  1.0000
  H   H53       1.0  0.2302761861259839  0.7446510141263191  0.05393050040560611  1.0000
  H   H54       1.0  0.730290458784836  0.2553491077170591  0.9460659028419943  1.0000
  H   H55       1.0  0.7302697748332392  0.75534314927787  0.5539235352825573  1.0000
  H   H56       1.0  0.2302547654728357  0.2446478288734681  0.44608058760528746  1.0000
  H   H57       1.0  0.1798093798879492  0.7788589822912115  0.4208204596230304  1.0000
  H   H58       1.0  0.6797589105614392  0.22114608736507077  0.5791880219571228  1.0000
  H   H59       1.0  0.6798358306792309  0.7211396455739633  0.9208273328982559  1.0000
  H   H60       1.0  0.1798089131933054  0.2788634644228978  0.07917639835024201  1.0000
  H   H61       1.0  0.12089370764557121  0.9890098292655056  0.5865770034357569  1.0000
  H   H62       1.0  0.620910758187371  0.011002210080945896  0.4134191443921865  1.0000
  H   H63       1.0  0.6209474797656399  0.510992768370329  0.08659383225349164  1.0000
  H   H64       1.0  0.12095116804721331  0.48901535181261124  0.9134118172175791  1.0000
  H   H65       1.0  0.27396310816288155  0.08595643436141392  0.5008838906530289  1.0000
  H   H66       1.0  0.7739643656240317  0.9140505467023916  0.49912235297153285  1.0000
  H   H67       1.0  0.7739894506420271  0.4140405279364218  0.0008926577630035004  1.0000
  H   H68       1.0  0.27398788429039905  0.5859625341248959  0.999124274991033  1.0000
  H   H69       1.0  0.3767475512172497  0.029979949908849307  0.3736214950894451  1.0000
  H   H70       1.0  0.8767267319369623  0.9700269191691862  0.6263902970854576  1.0000
  H   H71       1.0  0.8767565076075884  0.47001180660291203  0.8736240880501359  1.0000
  H   H72       1.0  0.376739936210214  0.5299826528927695  0.12639542402308027  1.0000
  H   H73       1.0  0.46074823919835955  0.5687657971071333  0.3432430692627834  1.0000
  H   H74       1.0  0.9607840615977922  0.43123064951014806  0.6567545295974997  1.0000
  H   H75       1.0  0.9607314299499238  0.9312214589831387  0.8432381466832839  1.0000
  H   H76       1.0  0.4607432537573217  0.06876192527387565  0.15675054454973755  1.0000
  H   H77       1.0  0.4139814550690986  0.5194170143158915  0.2662566249081948  1.0000
  H   H78       1.0  0.913986205940091  0.48056998361873593  0.7337412045956457  1.0000
  H   H79       1.0  0.9139879699999511  0.980586124331282  0.766252630061665  1.0000
  H   H80       1.0  0.4140040672453154  0.0194302643527067  0.23375113775138356  1.0000
  C   C1        1.0  0.7383816110987027  0.29721433005873626  0.27972117128828705  1.0000
  C   C2        1.0  0.2383953850755631  0.7027792001313317  0.7202788578791728  1.0000
  C   C3        1.0  0.23838934237993206  0.20279540991644757  0.7797100073376629  1.0000
  C   C4        1.0  0.7383898694021694  0.7972190204837802  0.2202745822241568  1.0000
  C   C5        1.0  0.6737839829321784  0.2496514042652365  0.16289465198794062  1.0000
  C   C6        1.0  0.1738054896613477  0.7503373817496239  0.8371060633546823  1.0000
  C   C7        1.0  0.17380732040732738  0.2503582880156614  0.6628784868983362  1.0000
  C   C8        1.0  0.6737910158274116  0.7496533575930613  0.33710144439647394  1.0000
  C   C9        1.0  0.8156457206517658  0.2817097971590741  0.15564802668458816  1.0000
  C   C10       1.0  0.31567032569070363  0.7182890359732356  0.8443508208896733  1.0000
  C   C11       1.0  0.3156664176494175  0.2182969278761604  0.6556361872836549  1.0000
  C   C12       1.0  0.815651844536596  0.7817045178102832  0.3443501898791227  1.0000
  C   C13       1.0  0.9930714628185129  0.3559847483114211  0.2506956338770793  1.0000
  C   C14       1.0  0.4930961505422856  0.644014723372976  0.7493004343968013  1.0000
  C   C15       1.0  0.49307933929589615  0.14401610438321202  0.7506930931674491  1.0000
  C   C16       1.0  0.9930838420565776  0.8559807547849446  0.24930653807130917  1.0000
  C   C17       1.0  0.9746618995201574  0.45454082365731824  0.2618195052135874  1.0000
  C   C18       1.0  0.4746828431093205  0.5454574788213266  0.7381793892659021  1.0000
  C   C19       1.0  0.47466744513833703  0.04545813266440751  0.7618139207276118  1.0000
  C   C20       1.0  0.9746750815090551  0.9545375572937047  0.23818734906696198  1.0000
  C   C21       1.0  0.884587270376322  0.49748077194109913  0.19576563904846725  1.0000
  C   C22       1.0  0.38460429428979376  0.5025227730313234  0.8042313684184353  1.0000
  C   C23       1.0  0.3845970555129483  0.0025206009080989008  0.6957590931259576  1.0000
  C   C24       1.0  0.8845956173091025  0.9974718408425217  0.3042391020328879  1.0000
  C   C25       1.0  0.8730507020782099  0.596662533611955  0.20293641443332436  1.0000
  C   C26       1.0  0.37306188758887515  0.4033410972705413  0.7970593157841963  1.0000
  C   C27       1.0  0.37306191387614973  0.9033380655960884  0.7029325076028957  1.0000
  C   C28       1.0  0.8730517839619765  0.09665380893240183  0.29706500413749387  1.0000
  C   C29       1.0  0.1330383394849832  0.6543372910971217  0.217517241167073  1.0000
  C   C30       1.0  0.6330484125643422  0.34566486090297144  0.7824813762656293  1.0000
  C   C31       1.0  0.6330488390589792  0.8456571602649136  0.7175121756443092  1.0000
  C   C32       1.0  0.13303237296177883  0.15433846045162627  0.2824870356132864  1.0000
  C   C33       1.0  0.026763950651592  0.6784091880933191  0.10119393855280383  1.0000
  C   C34       1.0  0.526779945781648  0.3215898362825982  0.8987991031799896  1.0000
  C   C35       1.0  0.5267672073243331  0.8215874819343298  0.6011925627843554  1.0000
  C   C36       1.0  0.026752312877036395  0.17840239867565091  0.39881057397429504  1.0000
  C   C37       1.0  0.1683509719971426  0.7119926194485728  0.10044379961331633  1.0000
  C   C38       1.0  0.6683621636431454  0.2880079634106778  0.8995521228435452  1.0000
  C   C39       1.0  0.6683527286144225  0.7880010421550665  0.6004384439633271  1.0000
  C   C40       1.0  0.1683382468399302  0.21198778441505084  0.3995657920472838  1.0000
  C   C41       1.0  0.2863106568645292  0.9004506370982099  0.3894105510727855  1.0000
  C   C42       1.0  0.786293558610346  0.0995588646172294  0.6106005389718947  1.0000
  C   C43       1.0  0.7863408080853915  0.5995493663767776  0.8894210340613076  1.0000
  C   C44       1.0  0.2863154845493625  0.4004496850494519  0.11059361918825063  1.0000
  C   C45       1.0  0.1994031403441667  0.8465087745871358  0.4378359393866519  1.0000
  C   C46       1.0  0.6993735907292448  0.15349614911298912  0.5621762573731461  1.0000
  C   C47       1.0  0.6994365736311323  0.6534856753262519  0.9378449505732154  1.0000
  C   C48       1.0  0.1994143948519351  0.34651532933006735  0.06216308968068772  1.0000
  C   C49       1.0  0.1380426564005077  0.8783338451230309  0.5081574650471412  1.0000
  C   C50       1.0  0.6380229352745843  0.12167284161108681  0.4918512862070802  1.0000
  C   C51       1.0  0.6380752324139677  0.6216671875992505  0.008165990955369304  1.0000
  C   C52       1.0  0.1380623805910588  0.37833753949391286  0.9918374161207953  1.0000
  C   C53       1.0  0.1669137592502139  0.964777405385597  0.5310506527419678  1.0000
  C   C54       1.0  0.6669096569825825  0.0352284132440417  0.4689535720922395  1.0000
  C   C55       1.0  0.6669592585749057  0.5352199942937902  0.031063197078140113  1.0000
  C   C56       1.0  0.16695390744101962  0.46478321147299806  0.9689434034281564  1.0000
  C   C57       1.0  0.2525444165202586  0.018842219142705105  0.4828155432229338  1.0000
  C   C58       1.0  0.7525325507988612  0.9811636151616979  0.5171905340623655  1.0000
  C   C59       1.0  0.752577511946093  0.48115757254480235  0.9828263911903296  1.0000
  C   C60       1.0  0.25256372074034766  0.518845648973823  0.017187406130929603  1.0000
  C   C61       1.0  0.3107596303307361  0.9874180269056654  0.4115079890935435  1.0000
  C   C62       1.0  0.810742671743789  0.012586067760224803  0.5885021031254782  1.0000
  C   C63       1.0  0.8107938518208114  0.5125744630156818  0.9115165549534513  1.0000
  C   C64       1.0  0.31076828356958686  0.48742310010158013  0.08850066346544593  1.0000
  C   C65       1.0  0.3514849285780599  0.8642365338376977  0.31411810754536174  1.0000
  C   C66       1.0  0.8514857450246183  0.13577313578473138  0.6858827996455477  1.0000
  C   C67       1.0  0.851512091638199  0.6357530356258394  0.8141188985031821  1.0000
  C   C68       1.0  0.3514896068467833  0.3642350805700261  0.18588616566933072  1.0000
  C   C69       1.0  0.0444871014488299  0.8183707938049666  0.5584035237409639  1.0000
  C   C70       1.0  0.5444846671026581  0.18162483303005678  0.44159499999177154  1.0000
  C   C71       1.0  0.5445095349903539  0.6816168852124209  0.05841113992466521  1.0000
  C   C72       1.0  0.04451209445210941  0.3183872321239249  0.9415891654668659  1.0000
  N   N1        1.0  0.6278707583228069  0.2593705478398434  0.24044379103398242  1.0000
  N   N2        1.0  0.12788037154683002  0.7406185800119972  0.7595595369445578  1.0000
  N   N3        1.0  0.127884330750021  0.2406428888260024  0.7404253017812013  1.0000
  N   N4        1.0  0.6278745546059312  0.7593762830700754  0.2595530853219118  1.0000
  N   N5        1.0  0.8545900502685768  0.31159272373881913  0.23031202594606986  1.0000
  N   N6        1.0  0.3546110269948102  0.6884077788752379  0.769687123967316  1.0000
  N   N7        1.0  0.3546025202354173  0.18841256123732117  0.7303009377723344  1.0000
  N   N8        1.0  0.8545996649061037  0.8115899007929173  0.26968930470219743  1.0000
  N   N9        1.0  0.0063744428943551  0.6422660959589591  0.17568685859115626  1.0000
  N   N10       1.0  0.5063842987407128  0.35773308022032774  0.8243089939624897  1.0000
  N   N11       1.0  0.506382469075774  0.857730229948679  0.6756841047784408  1.0000
  N   N12       1.0  0.006365192489596399  0.14226241495186542  0.32431709221220484  1.0000
  N   N13       1.0  0.2330749878487595  0.696026367942743  0.17326180473584435  1.0000
  N   N14       1.0  0.7330871644228337  0.3039783049822163  0.8267352140502882  1.0000
  N   N15       1.0  0.7330819441770656  0.8039669801846756  0.6732569588243111  1.0000
  N   N16       1.0  0.23306691207177013  0.19602658954837443  0.3267483735482558  1.0000
  O   O1        1.0  0.3398515133353612  0.7803100180822611  0.3078076605441141  1.0000
  O   O2        1.0  0.8398418495381249  0.21969712565575608  0.6921955316095707  1.0000
  O   O3        1.0  0.8398613746825845  0.7196875176193063  0.8078091969392179  1.0000
  O   O4        1.0  0.3398264482621869  0.28030525726857286  0.19219577671840682  1.0000
  O   O5        1.0  0.4099683936892403  0.9133557966729741  0.2632703922879927  1.0000
  O   O6        1.0  0.9100071097289657  0.08665343742619312  0.736730969107555  1.0000
  O   O7        1.0  0.9099722275597912  0.5866395541355516  0.7632785678554301  1.0000
  O   O8        1.0  0.40999219609997073  0.41334159536786796  0.23673407632588098  1.0000
  O   O9        1.0  0.0375549677337474  0.842537045179057  0.6322140274113368  1.0000
  O   O10       1.0  0.5375476986825447  0.1574664708055522  0.3677957252166666  1.0000
  O   O11       1.0  0.5375557558154539  0.657461297422195  0.13221048803826113  1.0000
  O   O12       1.0  0.0375801511047555  0.34253568718590083  0.8677844190059862  1.0000
  O   O13       1.0  0.9843941286890047  0.7526847019149231  0.528261606071162  1.0000
  O   O14       1.0  0.484376442621901  0.24733442841273498  0.4717403329089935  1.0000
  O   O15       1.0  0.48439161882395604  0.7473162312722439  0.02825133609000121  1.0000
  O   O16       1.0  0.984386708650618  0.25269310209499457  0.9717440708248762  1.0000
  O   O17       1.0  0.41439890501155213  0.5782352222020254  0.2919734327604076  1.0000
  O   O18       1.0  0.9144097439920245  0.4217556914092243  0.7080166802181724  1.0000
  O   O19       1.0  0.9143989177505462  0.9217638234110908  0.7919614341506007  1.0000
  O   O20       1.0  0.4144285674172536  0.0782440715197055  0.20802749119796726  1.0000
