data_image0
_chemical_formula_structural       Zn2H24C70N4Cl8O40
_chemical_formula_sum              "Zn2 H24 C70 N4 Cl8 O40"
_cell_length_a       16.752323266039554
_cell_length_b       16.837532793961877
_cell_length_c       23.201528886082947
_cell_angle_alpha    86.04285373944761
_cell_angle_beta     85.93132345936918
_cell_angle_gamma    80.30780084663128

_space_group_name_H-M_alt    "P 1"
_space_group_IT_number       1

loop_
  _space_group_symop_operation_xyz
  'x, y, z'

loop_
  _atom_site_type_symbol
  _atom_site_label
  _atom_site_symmetry_multiplicity
  _atom_site_fract_x
  _atom_site_fract_y
  _atom_site_fract_z
  _atom_site_occupancy
  Zn  Zn1       1.0  0.5969845771676107  0.4952390532587214  0.4927476775814271  1.0000
  Zn  Zn2       1.0  0.41235669389510576  0.5036378081174818  0.4989400375457791  1.0000
  H   H1        1.0  0.4218763358945877  0.297047420607008  0.06955849948607101  1.0000
  H   H2        1.0  0.39802558606903915  0.695475879822311  0.9324457337241088  1.0000
  H   H3        1.0  0.40643295080596425  0.29348951763874714  0.9621319987420025  1.0000
  H   H4        1.0  0.37959987514019394  0.70226697787826  0.041331872732854394  1.0000
  H   H5        1.0  0.37820915353524504  0.5589884062985958  0.6582697328968622  1.0000
  H   H6        1.0  0.39100963984819964  0.4525209683306386  0.3488587222180827  1.0000
  H   H7        1.0  0.46399633522032974  0.9009542246020389  0.4305135957150199  1.0000
  H   H8        1.0  0.42963879000124894  0.12028483082669078  0.4365832792843207  1.0000
  H   H9        1.0  0.9991994975475365  0.593877613875989  0.4838149446610345  1.0000
  H   H10       1.0  0.010421334575333712  0.4131196428525215  0.5219401923797164  1.0000
  H   H11       1.0  0.32341718718760853  0.6767022876420371  0.4224801144690957  1.0000
  H   H12       1.0  0.6725789949159233  0.36266173243880934  0.6135506575476343  1.0000
  H   H13       1.0  0.6225324813707045  0.6541250751940667  0.37468049686966515  1.0000
  H   H14       1.0  0.3268308130624932  0.3537146508874899  0.6579468351365422  1.0000
  H   H15       1.0  0.15871045224211847  0.25077344638737753  0.6103816924258609  1.0000
  H   H16       1.0  0.949604937730072  0.6474499877692496  0.3515445030499222  1.0000
  H   H17       1.0  0.9341748326994476  0.38355929654058946  0.6499762536722072  1.0000
  H   H18       1.0  0.05421222235023042  0.5219626535744553  0.3478592281732702  1.0000
  H   H19       1.0  0.2547098768460856  0.6834263602973465  0.7441338786461957  1.0000
  H   H20       1.0  0.266404589013824  0.3578662607823376  0.2839407289057192  1.0000
  H   H21       1.0  0.44861852773546934  0.7155928593794769  0.7092459012154749  1.0000
  H   H22       1.0  0.7612419442006341  0.2717157610109808  0.523624429896131  1.0000
  H   H23       1.0  0.44029670428799506  0.13827830816135386  0.5920749427901697  1.0000
  H   H24       1.0  0.6861576735443434  0.8566528010520429  0.436699216463559  1.0000
  C   C1        1.0  0.5337752620351991  0.3550376432328051  0.46456642188806546  1.0000
  C   C2        1.0  0.48193418013879363  0.6452514737162006  0.5222756777116189  1.0000
  C   C3        1.0  0.4925849322073363  0.46174949602904275  0.6057353431640851  1.0000
  C   C4        1.0  0.4980975074950891  0.531301154681678  0.38540585737462146  1.0000
  C   C5        1.0  0.39030232791755987  0.57793750555674  0.1199056988927083  1.0000
  C   C6        1.0  0.4024529326528495  0.417397718651273  0.8830558173328457  1.0000
  C   C7        1.0  0.42766845217411736  0.4267983306902536  0.1286978798366007  1.0000
  C   C8        1.0  0.42101684695803243  0.5631410994575603  0.8721438678383323  1.0000
  C   C9        1.0  0.41232426507792747  0.42546508749365597  0.0666427137667043  1.0000
  C   C10       1.0  0.40489549184216145  0.5673366909196387  0.935379368410928  1.0000
  C   C11       1.0  0.4025474346625729  0.49838633271988886  0.031721855272067515  1.0000
  C   C12       1.0  0.4035132094302015  0.49539132096241195  0.9705977536588223  1.0000
  C   C13       1.0  0.393076479885451  0.5741920523139185  0.056289295919071905  1.0000
  C   C14       1.0  0.4041693544985138  0.4204451461740319  0.9463987054150637  1.0000
  C   C15       1.0  0.4140721969681351  0.35237597705698676  0.041809204117008406  1.0000
  C   C16       1.0  0.39666232248355743  0.6410552135172338  0.9605444493116622  1.0000
  C   C17       1.0  0.4070814105748751  0.3502225224776581  0.9819203248499591  1.0000
  C   C18       1.0  0.3878905349855162  0.6447476278366294  0.021028291240156698  1.0000
  C   C19       1.0  0.39253098105596246  0.5276076741763873  0.7489014066525856  1.0000
  C   C20       1.0  0.3979947387845826  0.47415648055267917  0.25649527560226204  1.0000
  C   C21       1.0  0.4135302548978074  0.5205281761597007  0.6901335455656934  1.0000
  C   C22       1.0  0.42168121988859747  0.48084432235879154  0.3121777822593614  1.0000
  C   C23       1.0  0.47805581951303827  0.4630243935029482  0.6704634181077296  1.0000
  C   C24       1.0  0.4819677297749648  0.5253471848787328  0.3226941263550245  1.0000
  C   C25       1.0  0.5230840104317592  0.41246093619675855  0.7108963586377045  1.0000
  C   C26       1.0  0.5213070888398832  0.5619175963014628  0.2753844877655638  1.0000
  C   C27       1.0  0.5068542986822847  0.42289912419712306  0.7705761520588297  1.0000
  C   C28       1.0  0.5020688115122098  0.5514155749313971  0.21855790586114668  1.0000
  C   C29       1.0  0.43978113186595646  0.47878616539271246  0.7895873632962633  1.0000
  C   C30       1.0  0.4385949024338274  0.5098948790248058  0.2091176544796198  1.0000
  C   C31       1.0  0.5423564159932609  0.2676277531196262  0.45195898325115286  1.0000
  C   C32       1.0  0.47678102595912003  0.7355584484168247  0.524963132501192  1.0000
  C   C33       1.0  0.4762661418222011  0.23099996020415853  0.4390407645227654  1.0000
  C   C34       1.0  0.4668312981670583  0.7834573501744018  0.4734834456942636  1.0000
  C   C35       1.0  0.4826210715451537  0.14727406400295004  0.443494751525094  1.0000
  C   C36       1.0  0.4715323710542023  0.8650702782408218  0.4712419480185801  1.0000
  C   C37       1.0  0.554625986344945  0.09769682168040107  0.4581413710370654  1.0000
  C   C38       1.0  0.48837176768194007  0.9009795574080712  0.5205814889038152  1.0000
  C   C39       1.0  0.6238786902764062  0.13334503135431666  0.4618632075941634  1.0000
  C   C40       1.0  0.49336863953454474  0.8546992543797883  0.5734483644580806  1.0000
  C   C41       1.0  0.6176933636756419  0.21722262432156467  0.45979409672368377  1.0000
  C   C42       1.0  0.48580922013556455  0.7724668042304615  0.5763031720933327  1.0000
  C   C43       1.0  0.5545228779225012  0.01094824804747672  0.47263459449371936  1.0000
  C   C44       1.0  0.5016914410151828  0.9857646397978282  0.5144088411545198  1.0000
  C   C45       1.0  0.23657873764112483  0.5250646945490373  0.4625996412659036  1.0000
  C   C46       1.0  0.7703557096620273  0.4893642156169379  0.5437539045660742  1.0000
  C   C47       1.0  0.15607164341334823  0.5153154694365298  0.4592521441620648  1.0000
  C   C48       1.0  0.8512425919491022  0.49839441319451083  0.5469351454546754  1.0000
  C   C49       1.0  0.12011010517156959  0.4676264296764003  0.5025143705044713  1.0000
  C   C50       1.0  0.8906257512753228  0.5369447344942059  0.5001133161344455  1.0000
  C   C51       1.0  0.17328803550497443  0.41923821361007185  0.5403283685335367  1.0000
  C   C52       1.0  0.841723200959038  0.5737293011143905  0.4558717738629454  1.0000
  C   C53       1.0  0.25572863683800057  0.4270539379634072  0.537404251813264  1.0000
  C   C54       1.0  0.7609512313453023  0.5613115768420655  0.45586412725366204  1.0000
  C   C55       1.0  0.032272240361699324  0.46917555686272294  0.507581627223999  1.0000
  C   C56       1.0  0.9783980329725495  0.5369049241882068  0.49698283337294674  1.0000
  C   C57       1.0  0.26858844924398545  0.5860529183659651  0.4199862000287311  1.0000
  C   C58       1.0  0.730435823035144  0.4497670729807623  0.5956178816265948  1.0000
  C   C59       1.0  0.7184621448404229  0.5915992717208097  0.4014583007907363  1.0000
  C   C60       1.0  0.31119764589352883  0.37163363076398065  0.5775604213110627  1.0000
  C   C61       1.0  0.13961584700703605  0.3610510287543462  0.5836143489251101  1.0000
  C   C62       1.0  0.8696555338748979  0.6327338352262899  0.41063697813410743  1.0000
  C   C63       1.0  0.8947794837108561  0.4745304425018092  0.6016729639053936  1.0000
  C   C64       1.0  0.1095702963346241  0.5543345559116376  0.4087097404005249  1.0000
  C   C65       1.0  0.3181179821597482  0.5840646324581513  0.767356998682054  1.0000
  C   C66       1.0  0.3269724423476319  0.4342230956717188  0.2483927170567313  1.0000
  C   C67       1.0  0.48860413579522816  0.719424570963582  0.6310652081171854  1.0000
  C   C68       1.0  0.6941451102288025  0.2514288699495211  0.4659923547291245  1.0000
  C   C69       1.0  0.445474246036305  0.0440331113533503  0.5511689833636026  1.0000
  C   C70       1.0  0.609490317116311  0.9532711765331568  0.43472265739151084  1.0000
  N   N1        1.0  0.41903051759283017  0.5041945366192734  0.15079952420070702  1.0000
  N   N2        1.0  0.4225237778380659  0.4865512026657867  0.8501648927921581  1.0000
  N   N3        1.0  0.286228224013378  0.4828624914349646  0.5014145740930971  1.0000
  N   N4        1.0  0.7255813603132993  0.5170797958063814  0.4978269386609143  1.0000
  Cl  Cl1       1.0  0.7157495119215582  0.07234857515728521  0.4734106642109169  1.0000
  Cl  Cl2       1.0  0.5175658278184444  0.8998481213143066  0.632886282095285  1.0000
  Cl  Cl3       1.0  0.5947383849941731  0.33192966536545754  0.6894486460720444  1.0000
  Cl  Cl4       1.0  0.5921010609850297  0.6225394534286864  0.28418208031909137  1.0000
  Cl  Cl5       1.0  0.5694820938639965  0.3679611850383324  0.8194421253608795  1.0000
  Cl  Cl6       1.0  0.5570485041834913  0.5892424276472499  0.1608881714627515  1.0000
  Cl  Cl7       1.0  0.38486278983420874  0.2832042545420634  0.4169737649017833  1.0000
  Cl  Cl8       1.0  0.4505516994980782  0.7419222172868131  0.4095898631439071  1.0000
  O   O1        1.0  0.5978198215058727  0.3793592312541278  0.4784246099363474  1.0000
  O   O2        1.0  0.41732894537096854  0.6156956414816931  0.530985860357653  1.0000
  O   O3        1.0  0.4638536379044494  0.39698361209986627  0.46345900913952687  1.0000
  O   O4        1.0  0.552465298168194  0.6100838609423533  0.5071171477465484  1.0000
  O   O5        1.0  0.5618356960737289  0.46793103487423343  0.5829387945381654  1.0000
  O   O6        1.0  0.43368212565457037  0.5500516438151735  0.41779267018102934  1.0000
  O   O7        1.0  0.42871442634124424  0.4587030578059199  0.5797811329261151  1.0000
  O   O8        1.0  0.5698288564778695  0.5155986538110113  0.40137068968218875  1.0000
  O   O9        1.0  0.3684337399513709  0.6403308180339026  0.1449601169640076  1.0000
  O   O10       1.0  0.3880159010629213  0.35927875629479183  0.8590100069224819  1.0000
  O   O11       1.0  0.4492671355121871  0.36540876614773055  0.15904056868330946  1.0000
  O   O12       1.0  0.4342518217706938  0.6212839843733563  0.8399728082741476  1.0000
  O   O13       1.0  0.2692766354546166  0.5808863113620858  0.3679444266497711  1.0000
  O   O14       1.0  0.2906620155974835  0.6444091916615093  0.4485519958512896  1.0000
  O   O15       1.0  0.721040047340317  0.47945277823746585  0.6424021681681324  1.0000
  O   O16       1.0  0.7108140314542695  0.37968661887062183  0.5824288613224908  1.0000
  O   O17       1.0  0.7476775661952714  0.5667487199812624  0.3551405815055375  1.0000
  O   O18       1.0  0.6525886893966161  0.646940112073814  0.4103092008623008  1.0000
  O   O19       1.0  0.36266425673449737  0.31650848569613294  0.5619732644570234  1.0000
  O   O20       1.0  0.2894609084759737  0.38945061873743464  0.6331189121895449  1.0000
  O   O21       1.0  0.07904180654659139  0.378503539017764  0.6154896121132651  1.0000
  O   O22       1.0  0.1830675572004736  0.2858189765318073  0.5810963684230971  1.0000
  O   O23       1.0  0.8384849897326347  0.7036467837772733  0.40843026016020195  1.0000
  O   O24       1.0  0.9322969601601514  0.6015024799393912  0.37470214699973076  1.0000
  O   O25       1.0  0.9216786334586331  0.5225382452593054  0.628428625615726  1.0000
  O   O26       1.0  0.9013526711834243  0.3943870751818467  0.6159967448320813  1.0000
  O   O27       1.0  0.09041958206315573  0.6267828481700303  0.398680473223834  1.0000
  O   O28       1.0  0.0915760556665717  0.4962718519099808  0.3769121677508238  1.0000
  O   O29       1.0  0.27199331567656065  0.5728224414179265  0.8091027664529236  1.0000
  O   O30       1.0  0.30561160876440135  0.6508087608682019  0.7302438937626052  1.0000
  O   O31       1.0  0.2830099328282003  0.4481100521298487  0.2078097038542595  1.0000
  O   O32       1.0  0.31418212173316107  0.3800240496511336  0.293035988198028  1.0000
  O   O33       1.0  0.5221415182587137  0.649163799500009  0.6337039169975469  1.0000
  O   O34       1.0  0.4462338807562389  0.7560246787408217  0.6765178518032187  1.0000
  O   O35       1.0  0.7355471427404652  0.2755103257500267  0.42544274686100186  1.0000
  O   O36       1.0  0.7143311681049911  0.24434565631013067  0.521821638793945  1.0000
  O   O37       1.0  0.37330638767691227  0.040881846991133806  0.5601632664603785  1.0000
  O   O38       1.0  0.48285419852086153  0.09967720672491247  0.5731505871485822  1.0000
  O   O39       1.0  0.6140170119437868  0.9629392681154697  0.38204937810051837  1.0000
  O   O40       1.0  0.6528246908800882  0.8908427701131388  0.46492864353587754  1.0000
