data_image0
_chemical_formula_structural       Zn4H27C40N17O2
_chemical_formula_sum              "Zn4 H27 C40 N17 O2"
_cell_length_a       12.610022329184261
_cell_length_b       12.669753748255463
_cell_length_c       14.654285026809585
_cell_angle_alpha    124.91450263662772
_cell_angle_beta     82.35559804518803
_cell_angle_gamma    119.05057822837082

_space_group_name_H-M_alt    "P 1"
_space_group_IT_number       1

loop_
  _space_group_symop_operation_xyz
  'x, y, z'

loop_
  _atom_site_type_symbol
  _atom_site_label
  _atom_site_symmetry_multiplicity
  _atom_site_fract_x
  _atom_site_fract_y
  _atom_site_fract_z
  _atom_site_occupancy
  Zn  Zn1       1.0  0.8145645160223297  0.3237982388382719  0.005412374861919068  1.0000
  Zn  Zn2       1.0  0.20679470200971647  0.7062470506933779  0.9959772254314246  1.0000
  Zn  Zn3       1.0  0.016880515560650566  0.33471047614678184  0.8401606776268339  1.0000
  Zn  Zn4       1.0  0.9896299835617839  0.6858636299283136  0.15959121153541395  1.0000
  H   H1        1.0  0.930966833756017  0.27058442571863855  0.15171868153099416  1.0000
  H   H2        1.0  0.21793648302702454  0.22488518581580763  0.7297469700896926  1.0000
  H   H3        1.0  0.9578951372586959  0.7584066644895561  0.41057497575297935  1.0000
  H   H4        1.0  0.46454174570449414  0.7021803306164572  0.9362432545024648  1.0000
  H   H5        1.0  0.7087121746647114  0.28134178376048163  0.20845054811933744  1.0000
  H   H6        1.0  0.11632203627174686  0.647504265260004  0.3188664466155374  1.0000
  H   H7        1.0  0.21421108940494094  0.3233769217897304  0.9531101801768997  1.0000
  H   H8        1.0  0.6158152902161547  0.28176587419249444  0.8489648059936528  1.0000
  H   H9        1.0  0.08800025932664822  0.7714876286502631  0.8586883144474414  1.0000
  H   H10       1.0  0.833839997649143  0.05029360696919131  0.5973163769290722  1.0000
  H   H11       1.0  0.9958462484192125  0.9894478628585048  0.25948098614856  1.0000
  H   H12       1.0  0.26457794326284306  0.021602674712106303  0.04632158556002959  1.0000
  H   H13       1.0  0.5626941098465251  0.022290229487396104  0.8089890607138344  1.0000
  H   H14       1.0  0.8539817556908886  0.7615233775822504  0.04621075427421318  1.0000
  H   H15       1.0  0.8328261651772664  0.29697750412853463  0.6771396919747446  1.0000
  H   H16       1.0  0.764857879320296  0.28585167481695367  0.3577680894713354  1.0000
  H   H17       1.0  0.8102754137593353  0.2916762115237291  0.5179744712583556  1.0000
  H   H18       1.0  0.9594668398336097  0.7669797646363822  0.7400842982083944  1.0000
  H   H19       1.0  0.913865838315779  0.7612233014153631  0.5789280579618037  1.0000
  H   H20       1.0  0.2911081406625015  0.8790233524955369  0.4967045136432305  1.0000
  H   H21       1.0  0.4390468365539136  0.9892922186909988  0.6615782394496535  1.0000
  H   H22       1.0  0.6516057740128647  0.8023530808066043  0.4361366648898868  1.0000
  H   H23       1.0  0.5057841554595655  0.69627818844819  0.2713108906078433  1.0000
  H   H24       1.0  0.6264898827885191  0.6579999545780739  0.9400394966855218  1.0000
  H   H25       1.0  0.4654287224168813  0.31589513361876714  0.7871237851622511  1.0000
  H   H26       1.0  0.22362085395086947  0.2007575355090339  0.056334002700801  1.0000
  H   H27       1.0  0.021142553738492612  0.16637914141461613  0.1964433623947741  1.0000
  C   C1        1.0  0.9910264082494751  0.28946480320341555  0.09608586725962454  1.0000
  C   C2        1.0  0.32948207019241244  0.746792222466965  0.1870211693861208  1.0000
  C   C3        1.0  0.26185103954491495  0.34559807384240326  0.7816353898372698  1.0000
  C   C4        1.0  0.8964867144593287  0.6407905361670816  0.34518643797753873  1.0000
  C   C5        1.0  0.38754834757740747  0.5886313938414889  0.8870149325264053  1.0000
  C   C6        1.0  0.7708826710558582  0.39776908238616937  0.24212909920649392  1.0000
  C   C7        1.0  0.17690676050646917  0.6765317288464063  0.2674483627425844  1.0000
  C   C8        1.0  0.13565584397322544  0.31702610435927175  0.9948859265761101  1.0000
  C   C9        1.0  0.0978808830746019  0.27671473353667864  0.07043116284067003  1.0000
  C   C10       1.0  0.3052664381873386  0.7330188193721983  0.27825913451441414  1.0000
  C   C11       1.0  0.3881498584995172  0.4538776197465354  0.8274111644943858  1.0000
  C   C12       1.0  0.8316010143915379  0.5218453809128081  0.35481665725518513  1.0000
  C   C13       1.0  0.6871512470339312  0.3978836715134976  0.9053143320282403  1.0000
  C   C14       1.0  0.034959740412645594  0.6547956105581605  0.826122157448232  1.0000
  C   C15       1.0  0.783321905062877  0.058366233849064024  0.6650676150533101  1.0000
  C   C16       1.0  0.0641149932258927  0.9794351228142664  0.20611132604158672  1.0000
  C   C17       1.0  0.2006356823051405  0.9959477778203837  0.09742865112050939  1.0000
  C   C18       1.0  0.6450853615954558  0.046228569111512706  0.7730203606711967  1.0000
  C   C19       1.0  0.8091787546736742  0.6427572714343416  0.006055475965190695  1.0000
  C   C20       1.0  0.9055697928492916  0.41251414116318597  0.7327315641006962  1.0000
  C   C21       1.0  0.6958385073124873  0.5262946234025492  0.9280374799439386  1.0000
  C   C22       1.0  0.9377047567343981  0.5340774158325915  0.7308000428584691  1.0000
  C   C23       1.0  0.6547859846841676  0.9918040664170461  0.659428831152411  1.0000
  C   C24       1.0  0.1246653689293495  0.056240303352233005  0.1572036775620305  1.0000
  C   C25       1.0  0.8066811778752339  0.39221191618850076  0.44161984667301374  1.0000
  C   C26       1.0  0.8324315736400366  0.39551186624020573  0.5327224111038477  1.0000
  C   C27       1.0  0.8930792085320576  0.5306018222223942  0.6414509886962422  1.0000
  C   C28       1.0  0.9178039184214127  0.6609163464404162  0.656043786349919  1.0000
  C   C29       1.0  0.8919671744252328  0.6576504228254835  0.5647086589668434  1.0000
  C   C30       1.0  0.8400122070793686  0.5240053580896387  0.4544525865960766  1.0000
  C   C31       1.0  0.3693796802629877  0.8603766242678363  0.483091684567171  1.0000
  C   C32       1.0  0.45251225933645867  0.9219512609393806  0.5759156469709839  1.0000
  C   C33       1.0  0.5583037917803678  0.9072163899646527  0.5613249691468455  1.0000
  C   C34       1.0  0.5731886933627949  0.8208070633521984  0.4496845768578197  1.0000
  C   C35       1.0  0.49074439763269606  0.7602847545084829  0.356653185965314  1.0000
  C   C36       1.0  0.38900754405979415  0.7825476775632014  0.37174516651820266  1.0000
  C   C37       1.0  0.6038422493525387  0.5428120725231054  0.8966008638651033  1.0000
  C   C38       1.0  0.4893734389781131  0.4316994454332318  0.8312415391578867  1.0000
  C   C39       1.0  0.14694698642831844  0.21290167005857805  0.09685316352608452  1.0000
  C   C40       1.0  0.09718324705314528  0.1532976388978398  0.1552346493156875  1.0000
  N   N1        1.0  0.9672521743232778  0.3304657501935537  0.03806645923107506  1.0000
  N   N2        1.0  0.22379501222960135  0.7002574587093594  0.12845171307733946  1.0000
  N   N3        1.0  0.1922078993880518  0.410689220020629  0.8136498970410885  1.0000
  N   N4        1.0  0.8773073343133362  0.5912544539397687  0.23594701254257444  1.0000
  N   N5        1.0  0.27107413442266204  0.5628683093706288  0.8803327980026837  1.0000
  N   N6        1.0  0.798486365479839  0.4393939716634706  0.17167839502621984  1.0000
  N   N7        1.0  0.13108201377272624  0.6584559364462951  0.17773382220978123  1.0000
  N   N8        1.0  0.05566164166881988  0.34732729701268983  0.9755841845188087  1.0000
  N   N9        1.0  0.7861379645140333  0.43686655261386437  0.9669101077011533  1.0000
  N   N10       1.0  0.05961766427979141  0.6069802443026121  0.8780267139559541  1.0000
  N   N11       1.0  0.8448508305788138  0.1473013258742881  0.7731536208418746  1.0000
  N   N12       1.0  0.09949056607140973  0.8805233975131731  0.17643168830815648  1.0000
  N   N13       1.0  0.1846968261308533  0.8911649490097204  0.1082780188838584  1.0000
  N   N14       1.0  0.7582875528543198  0.1385596587427216  0.840467397982984  1.0000
  N   N15       1.0  0.8613642392539661  0.5872024178173663  0.028863659112268288  1.0000
  N   N16       1.0  0.9796683269129504  0.45781220704609643  0.8206056187416664  1.0000
  N   N17       1.0  0.44282217236040816  0.8249319388165334  0.16362126473836014  1.0000
  O   O1        1.0  0.43754919851275537  0.866403989553881  0.1047172928127652  1.0000
  O   O2        1.0  0.5411927457716175  0.8527610686080893  0.20379632416419474  1.0000
