data_image0
_chemical_formula_structural       NiH16C22N4O10
_chemical_formula_sum              "Ni1 H16 C22 N4 O10"
_cell_length_a       8.758157949446522
_cell_length_b       7.703080306581198
_cell_length_c       8.256351729302464
_cell_angle_alpha    84.01514900517313
_cell_angle_beta     82.24683813564637
_cell_angle_gamma    87.35584997985703

_space_group_name_H-M_alt    "P 1"
_space_group_IT_number       1

loop_
  _space_group_symop_operation_xyz
  'x, y, z'

loop_
  _atom_site_type_symbol
  _atom_site_label
  _atom_site_symmetry_multiplicity
  _atom_site_fract_x
  _atom_site_fract_y
  _atom_site_fract_z
  _atom_site_occupancy
  Ni  Ni1       1.0  0.9999934111671108  0.5000015545637879  6.67727886144088e-06  1.0000
  H   H1        1.0  0.2544089816745442  0.09603926793833041  0.04288728803474126  1.0000
  H   H2        1.0  0.7455903857940385  0.9039761984869515  0.9570941699842093  1.0000
  H   H3        1.0  0.47764318689401375  0.8352295539249325  0.800203451749823  1.0000
  H   H4        1.0  0.5223493476422476  0.16476926879409595  0.19980667420828263  1.0000
  H   H5        1.0  0.42019772876376044  0.6094388617880214  0.3046211329848062  1.0000
  H   H6        1.0  0.5797980475777608  0.3905431316691192  0.6953883635199033  1.0000
  H   H7        1.0  0.5756276518896544  0.7777419016652801  0.07906685245267647  1.0000
  H   H8        1.0  0.42437067298028813  0.22224687224915132  0.9209365707647661  1.0000
  H   H9        1.0  0.22623142273605623  0.7109349523180766  0.7665500986804543  1.0000
  H   H10       1.0  0.7737575504407631  0.28906759936142384  0.23346182674992372  1.0000
  H   H11       1.0  0.24621687108999174  0.4323618427301952  0.47939418806808476  1.0000
  H   H12       1.0  0.7537841200826636  0.5676336876053655  0.5206043520604025  1.0000
  H   H13       1.0  0.07383971430806471  0.3250099395899112  0.49377688985993  1.0000
  H   H14       1.0  0.9261604391452853  0.6749880502635789  0.5062265262506427  1.0000
  H   H15       1.0  0.2495801969553639  0.030532167216129807  0.4548567055860103  1.0000
  H   H16       1.0  0.7504262312628925  0.9694662648068403  0.545139013570022  1.0000
  C   C1        1.0  0.14190323517358652  0.055797502640096794  0.022127484272431292  1.0000
  C   C2        1.0  0.8581008831642337  0.9442101285444906  0.9778619595683081  1.0000
  C   C3        1.0  0.24198464709628095  0.566014597869142  0.15620539713329148  1.0000
  C   C4        1.0  0.7580099044344235  0.43398309962425685  0.843800664144723  1.0000
  C   C5        1.0  0.09943443817365248  0.079094811650485  0.8641057600585353  1.0000
  C   C6        1.0  0.9005699408138241  0.9209194926618165  0.13587819248257915  1.0000
  C   C7        1.0  0.2196794854616044  0.1458492620444645  0.7239242504098512  1.0000
  C   C8        1.0  0.780323830457924  0.85414923090201  0.2760637193456076  1.0000
  C   C9        1.0  0.4142418521593072  0.7576939638908371  0.9034365113794461  1.0000
  C   C10       1.0  0.585747933635723  0.2422994070707247  0.09657840976510808  1.0000
  C   C11       1.0  0.1332068371406763  0.45903726782429294  0.27244766317251384  1.0000
  C   C12       1.0  0.8667878439313129  0.540956539714273  0.7275574716146944  1.0000
  C   C13       1.0  0.047083993005671204  0.976638369507569  0.15703011331808628  1.0000
  C   C14       1.0  0.9529172603837356  0.023378286993086306  0.8429592971927559  1.0000
  C   C15       1.0  0.10879800990814205  0.9424236428686824  0.31749408951150565  1.0000
  C   C16       1.0  0.8912086082882527  0.05757890102698581  0.6824939337532853  1.0000
  C   C17       1.0  0.3795143901613685  0.6315937656873986  0.1849696405307454  1.0000
  C   C18       1.0  0.6204806088977008  0.368398689115196  0.8150379625556067  1.0000
  C   C19       1.0  0.4670293324594398  0.7287649284080828  0.055935113243094664  1.0000
  C   C20       1.0  0.5329703130286916  0.27123030230867334  0.944073530459583  1.0000
  C   C21       1.0  0.2743190151594631  0.6887360256903605  0.8820918400081577  1.0000
  C   C22       1.0  0.7256720927860912  0.3112653767273629  0.11791721094044748  1.0000
  N   N1        1.0  0.19087145690907195  0.5950376893312422  0.0062162858660812816  1.0000
  N   N2        1.0  0.8091234008417133  0.4049625213448635  0.9937943604001942  1.0000
  N   N3        1.0  0.15254090653815666  0.40911383984673944  0.4251850061410493  1.0000
  N   N4        1.0  0.8474590805058071  0.5908851846802392  0.5748293248457015  1.0000
  O   O1        1.0  0.013117301766925507  0.41354707081378445  0.21457067968740512  1.0000
  O   O2        1.0  0.9868800205066748  0.5864467719458943  0.78543744370711  1.0000
  O   O3        1.0  0.2649946978392848  0.2990592791459433  0.7213382905850663  1.0000
  O   O4        1.0  0.7350247392389095  0.700943806990061  0.27864891214428394  1.0000
  O   O5        1.0  0.22413654823797202  0.0420503267451409  0.33276499851949376  1.0000
  O   O6        1.0  0.7758710356866771  0.9579442930239426  0.6672283129535967  1.0000
  O   O7        1.0  0.2713183155914081  0.031958562934768495  0.6262660838355386  1.0000
  O   O8        1.0  0.7286926310469684  0.9680481096110327  0.3737205117464411  1.0000
  O   O9        1.0  0.060182857916721816  0.8252561877293444  0.4238998592051215  1.0000
  O   O10       1.0  0.9398293386335581  0.1747415019802219  0.5760822999072912  1.0000
