data_image0
_chemical_formula_structural       Ag4H24C32S2N8O12
_chemical_formula_sum              "Ag4 H24 C32 S2 N8 O12"
_cell_length_a       7.38403793309566
_cell_length_b       7.384087732819764
_cell_length_c       18.303134090638878
_cell_angle_alpha    86.63933143161658
_cell_angle_beta     86.63930448530496
_cell_angle_gamma    69.29557126099076

_space_group_name_H-M_alt    "P 1"
_space_group_IT_number       1

loop_
  _space_group_symop_operation_xyz
  'x, y, z'

loop_
  _atom_site_type_symbol
  _atom_site_label
  _atom_site_symmetry_multiplicity
  _atom_site_fract_x
  _atom_site_fract_y
  _atom_site_fract_z
  _atom_site_occupancy
  Ag  Ag1       1.0  0.664611306890265  0.636153620771516  0.3160207725320135  1.0000
  Ag  Ag2       1.0  0.36384774518317187  0.3353898349088312  0.1839791558698636  1.0000
  Ag  Ag3       1.0  0.33538971946287427  0.3638471233429145  0.6839779008054239  1.0000
  Ag  Ag4       1.0  0.6361519332150393  0.6646108962981572  0.8160217354779746  1.0000
  H   H1        1.0  0.18442842140768792  0.2096898577647295  0.5156572994718331  1.0000
  H   H2        1.0  0.7903026978912848  0.8155755094826985  0.9843440521249321  1.0000
  H   H3        1.0  0.8155806289436424  0.7903037063117966  0.48434190000813976  1.0000
  H   H4        1.0  0.20969083209342185  0.18443096953026128  0.015656848817187104  1.0000
  H   H5        1.0  0.8359233424206138  0.4115630947316616  0.5240259022502657  1.0000
  H   H6        1.0  0.5884335634707438  0.16407965227755744  0.9759742741484486  1.0000
  H   H7        1.0  0.16408300679684362  0.5884304383055297  0.47597390901756864  1.0000
  H   H8        1.0  0.41156183985977884  0.8359253922644144  0.024025523573506312  1.0000
  H   H9        1.0  0.611687786886847  0.3832430149979871  0.4325145500647026  1.0000
  H   H10       1.0  0.6167561307282341  0.3883160324497653  0.06748427171454101  1.0000
  H   H11       1.0  0.38831721139052194  0.6167505021463596  0.5674852939375583  1.0000
  H   H12       1.0  0.38323979650060364  0.6116875632210894  0.9325155481596709  1.0000
  H   H13       1.0  0.08644539882663335  0.9479623381664626  0.323540583413788  1.0000
  H   H14       1.0  0.05202608172899663  0.9135649185026155  0.176459994820938  1.0000
  H   H15       1.0  0.9135592977998499  0.0520282668354923  0.6764604302654007  1.0000
  H   H16       1.0  0.9479687977032112  0.08644157491048078  0.8235397807487673  1.0000
  H   H17       1.0  0.558258972910778  0.16415936907485926  0.3405211979556739  1.0000
  H   H18       1.0  0.835834300405814  0.44174737842502765  0.15947987730191934  1.0000
  H   H19       1.0  0.4417449783162509  0.8358370465580904  0.6594791480610669  1.0000
  H   H20       1.0  0.16416027662922522  0.5582562020993292  0.8405205216257132  1.0000
  H   H21       1.0  0.7550626305612694  0.0260990117773687  0.2832818088089937  1.0000
  H   H22       1.0  0.9738987986486478  0.2449424537273472  0.21671700724424886  1.0000
  H   H23       1.0  0.2449362193025947  0.9739002531729497  0.716718044787541  1.0000
  H   H24       1.0  0.02609847802769145  0.7550611563436432  0.7832816872575422  1.0000
  C   C1        1.0  0.35048622913923577  0.9393973190522547  0.4151775944370116  1.0000
  C   C2        1.0  0.06060151205681314  0.6495149321603861  0.0848251351197362  1.0000
  C   C3        1.0  0.6495102212416269  0.06060482700112152  0.5848217012704567  1.0000
  C   C4        1.0  0.9393971200373482  0.3504886982815592  0.9151768045615825  1.0000
  C   C5        1.0  0.1555492528764404  0.0685537992917276  0.41848073546979253  1.0000
  C   C6        1.0  0.9314338215519625  0.8444567939533131  0.08151940377748451  1.0000
  C   C7        1.0  0.844454615961986  0.9314353401999043  0.5815197867770863  1.0000
  C   C8        1.0  0.06855992545615659  0.15554531882167305  0.918478864760857  1.0000
  C   C9        1.0  0.08706026540380658  0.20028961752733213  0.474832648198131  1.0000
  C   C10       1.0  0.7997067319025247  0.9129471126433443  0.02517053121885481  1.0000
  C   C11       1.0  0.9129447328735623  0.7997038996170218  0.5251671958041302  1.0000
  C   C12       1.0  0.20029242259737148  0.08705506743477541  0.9748303379767336  1.0000
  C   C13       1.0  0.8911605351898685  0.3142065296409626  0.4789567024636626  1.0000
  C   C14       1.0  0.6857872182019021  0.10884228625933191  0.0210422673284754  1.0000
  C   C15       1.0  0.10884123656272489  0.685788403842473  0.5210426385362155  1.0000
  C   C16       1.0  0.314203085258029  0.8911656090927168  0.978958130611261  1.0000
  C   C17       1.0  0.7662200751469184  0.29797996820052214  0.4275414242828077  1.0000
  C   C18       1.0  0.7020168574884167  0.23378909524102195  0.07246169219389033  1.0000
  C   C19       1.0  0.23378814816264532  0.7020121311120421  0.5724578300838489  1.0000
  C   C20       1.0  0.2979804221730832  0.7662145178153706  0.9275391875838753  1.0000
  C   C21       1.0  0.8347140271472355  0.16864963452353982  0.3702423179618962  1.0000
  C   C22       1.0  0.8313434377901886  0.16529356255855995  0.12975764520322744  1.0000
  C   C23       1.0  0.1652901433420696  0.8313424171104911  0.6297570346080548  1.0000
  C   C24       1.0  0.16864716732062127  0.8347172449358807  0.8702415830595812  1.0000
  C   C25       1.0  0.030232810764424304  0.05373986607632019  0.3658501235762586  1.0000
  C   C26       1.0  0.9462566704265  0.9697771514592191  0.13415189543387385  1.0000
  C   C27       1.0  0.9697740616050506  0.9462522173433997  0.6341491635248319  1.0000
  C   C28       1.0  0.053743006479130884  0.030223578255075295  0.8658479032759773  1.0000
  C   C29       1.0  0.6984229058974663  0.15714691238984096  0.3150203036234416  1.0000
  C   C30       1.0  0.8428514025165156  0.3015816362412238  0.1849796088203775  1.0000
  C   C31       1.0  0.3015802182877962  0.8428480384791401  0.6849800972799899  1.0000
  C   C32       1.0  0.15714670418675067  0.6984234415791448  0.8150212160707042  1.0000
  S   S1        1.0  0.6331893204256429  0.3668107598229541  0.2500013564337848  1.0000
  S   S2        1.0  0.3668108818708831  0.6331885225129099  0.7499995570663103  1.0000
  N   N1        1.0  0.5083853065538619  0.8265614906832823  0.4106350253690962  1.0000
  N   N2        1.0  0.17343208844748395  0.49163274793514233  0.08936742138270402  1.0000
  N   N3        1.0  0.4916328979808995  0.1734292717544079  0.5893645683277882  1.0000
  N   N4        1.0  0.8265633995105119  0.5083795749872024  0.9106338390661011  1.0000
  N   N5        1.0  0.10639876686843769  0.5464803858954639  0.3257642744721139  1.0000
  N   N6        1.0  0.45351842250782676  0.893602678603976  0.17423680755491944  1.0000
  N   N7        1.0  0.8935995598433949  0.45352032867233305  0.6742361032911647  1.0000
  N   N8        1.0  0.5464788556610998  0.10640093295971549  0.8257629795848587  1.0000
  O   O1        1.0  0.9574082034366211  0.6544772601891183  0.3613169851106052  1.0000
  O   O2        1.0  0.3455260569793239  0.0425931532863828  0.13868398005977411  1.0000
  O   O3        1.0  0.04259147421529975  0.3455234702715159  0.6386833599182398  1.0000
  O   O4        1.0  0.6544752740098474  0.9574105059558422  0.8613157088767097  1.0000
  O   O5        1.0  0.27184346085334  0.5026410730175996  0.3508132761635991  1.0000
  O   O6        1.0  0.49735835826620445  0.7281572807657355  0.14918671199446012  1.0000
  O   O7        1.0  0.7281548658584925  0.4973596415501973  0.6491871015996794  1.0000
  O   O8        1.0  0.50264214418862  0.2718449122198193  0.8508119391907202  1.0000
  O   O9        1.0  0.08205801091349232  0.4856952693525828  0.2642941409511366  1.0000
  O   O10       1.0  0.5143003798926742  0.9179430184258878  0.23570757251606275  1.0000
  O   O11       1.0  0.9179421913830266  0.5143040129832813  0.7357067725489588  1.0000
  O   O12       1.0  0.48569419714236517  0.08206056209846928  0.7642928264115698  1.0000
