data_image0
_chemical_formula_structural       Zn2H12C16I2O12
_chemical_formula_sum              "Zn2 H12 C16 I2 O12"
_cell_length_a       7.461539163834409
_cell_length_b       7.461498935540749
_cell_length_c       10.971048388514138
_cell_angle_alpha    82.77189708059005
_cell_angle_beta     82.773688064573
_cell_angle_gamma    83.94580852550772

_space_group_name_H-M_alt    "P 1"
_space_group_IT_number       1

loop_
  _space_group_symop_operation_xyz
  'x, y, z'

loop_
  _atom_site_type_symbol
  _atom_site_label
  _atom_site_symmetry_multiplicity
  _atom_site_fract_x
  _atom_site_fract_y
  _atom_site_fract_z
  _atom_site_occupancy
  Zn  Zn1       1.0  0.5430589411689156  0.45694020776946337  0.5000063070426748  1.0000
  Zn  Zn2       1.0  0.964362422722857  0.03563868552281241  0.4999986543573555  1.0000
  H   H1        1.0  0.7017071691864487  0.8636579290586754  0.43487608500246466  1.0000
  H   H2        1.0  0.13633297297639055  0.2982966247623864  0.5651251512835812  1.0000
  H   H3        1.0  0.7451050107284303  0.0342719101489379  0.3405448273567799  1.0000
  H   H4        1.0  0.965718136584165  0.2548896049734566  0.6594526293339269  1.0000
  H   H5        1.0  0.3266947839019565  0.9298585724990929  0.45275493352400514  1.0000
  H   H6        1.0  0.07013088626820257  0.673297800949925  0.5472528358670558  1.0000
  H   H7        1.0  0.2602816513033659  0.0670319363673073  0.3393096106494937  1.0000
  H   H8        1.0  0.9329466611617079  0.7397082930414458  0.6606920601339467  1.0000
  H   H9        1.0  0.7348302454795643  0.5989922421400352  0.18313006777000132  1.0000
  H   H10       1.0  0.40105188832277616  0.2651638909300687  0.816865989359101  1.0000
  H   H11       1.0  0.3792562074862644  0.7333041531303978  0.14500197909165985  1.0000
  H   H12       1.0  0.2666624659922903  0.6207439814487826  0.8549841444046676  1.0000
  C   C1        1.0  0.9075831811013941  0.42952944535610976  0.37320215969244697  1.0000
  C   C2        1.0  0.5704981278113619  0.09240591223001358  0.6267956330224748  1.0000
  C   C3        1.0  0.2763222305264179  0.5373000122170808  0.36116063244912056  1.0000
  C   C4        1.0  0.4627076178653695  0.7236545830124755  0.6388486539462406  1.0000
  C   C5        1.0  0.1645227087021013  0.6006080759762183  0.2587093442605948  1.0000
  C   C6        1.0  0.39939441427943473  0.8354781888200835  0.74128831361012  1.0000
  C   C7        1.0  0.9834753530946113  0.5598322296527272  0.26811139650400406  1.0000
  C   C8        1.0  0.4401860761570333  0.01651011524575101  0.7318878407845018  1.0000
  C   C9        1.0  0.8758981871257346  0.6293537944925802  0.1745891676210007  1.0000
  C   C10       1.0  0.37067252154785973  0.12408813918494128  0.8254083926813461  1.0000
  C   C11       1.0  0.9510800646211732  0.7352174332113111  0.07022221281753362  1.0000
  C   C12       1.0  0.26481203956178234  0.04891324006383261  0.9297759905809002  1.0000
  C   C13       1.0  0.1338129950237388  0.7724498052826974  0.05707977761726108  1.0000
  C   C14       1.0  0.22755203248416217  0.8661891386771786  0.9429102638656202  1.0000
  C   C15       1.0  0.237606823300645  0.7048294938566286  0.15314014694484968  1.0000
  C   C16       1.0  0.2951601940008218  0.7623859730639283  0.846848940096251  1.0000
  I   I1        1.0  0.785995519778261  0.8395715672866828  0.930709108664587  1.0000
  I   I2        1.0  0.16050427195604294  0.213985135831777  0.0692852594685078  1.0000
  O   O1        1.0  0.8034442127949076  0.4941618516402642  0.46138230328893565  1.0000
  O   O2        1.0  0.5058340530985533  0.19655947845332386  0.5386133703031033  1.0000
  O   O3        1.0  0.9515714414402865  0.2626832828401149  0.3625972967373201  1.0000
  O   O4        1.0  0.7373261290788091  0.048421028940545306  0.6374075829544735  1.0000
  O   O5        1.0  0.19890477253270689  0.5038627093956195  0.47115726083617193  1.0000
  O   O6        1.0  0.4961558860624464  0.8010859198366022  0.5288439878411282  1.0000
  O   O7        1.0  0.44938244243169106  0.5207214279547544  0.3358750988681649  1.0000
  O   O8        1.0  0.4792772905831696  0.5506089839069547  0.6641420469378828  1.0000
  O   O9        1.0  0.8021686339474314  0.9267808093197943  0.3855211035486262  1.0000
  O   O10       1.0  0.07321775528141221  0.1978317012564759  0.614482896394584  1.0000
  O   O11       1.0  0.22343848892352008  0.9710949658914318  0.40329373555784537  1.0000
  O   O12       1.0  0.028896115467794865  0.776550391858983  0.5967181833718485  1.0000
