data_image0
_chemical_formula_structural       Zn4H32C36N8O8
_chemical_formula_sum              "Zn4 H32 C36 N8 O8"
_cell_length_a       8.851135302921687
_cell_length_b       9.797082045008537
_cell_length_c       10.757722746756244
_cell_angle_alpha    90.00013565465392
_cell_angle_beta     99.6210556187701
_cell_angle_gamma    90.00004343929064

_space_group_name_H-M_alt    "P 1"
_space_group_IT_number       1

loop_
  _space_group_symop_operation_xyz
  'x, y, z'

loop_
  _atom_site_type_symbol
  _atom_site_label
  _atom_site_symmetry_multiplicity
  _atom_site_fract_x
  _atom_site_fract_y
  _atom_site_fract_z
  _atom_site_occupancy
  Zn  Zn1       1.0  0.34599938254969953  0.7737640029703599  0.6483721204313112  1.0000
  Zn  Zn2       1.0  0.15400127432391034  0.2737626350484206  0.3516271560523164  1.0000
  Zn  Zn3       1.0  0.6540009089705806  0.22623640990638447  0.35162680927641077  1.0000
  Zn  Zn4       1.0  0.8460001704012188  0.72623675711926  0.6483737883933073  1.0000
  H   H1        1.0  0.5214251992621186  0.8371663028487928  0.4087908234098663  1.0000
  H   H2        1.0  0.9785748765302104  0.3371668006357282  0.5912089486757138  1.0000
  H   H3        1.0  0.47857508860994363  0.16283308931465967  0.5912071762350308  1.0000
  H   H4        1.0  0.021425425932697802  0.6628336122446471  0.40879277121689483  1.0000
  H   H5        1.0  0.5859156525588675  0.8044379333570076  0.1940313155418778  1.0000
  H   H6        1.0  0.9140843838117051  0.304437925098469  0.8059693101628012  1.0000
  H   H7        1.0  0.4140823471412034  0.19556350023063374  0.8059673049353646  1.0000
  H   H8        1.0  0.085915918651196  0.6955624877819134  0.19403240972981445  1.0000
  H   H9        1.0  0.48825258646503755  0.605334569390699  0.0633476343613921  1.0000
  H   H10       1.0  0.0117467065015688  0.1053346262956509  0.936652024177867  1.0000
  H   H11       1.0  0.511745416881901  0.3946658434860737  0.9366519161762952  1.0000
  H   H12       1.0  0.9882535923124467  0.8946637451593561  0.06334876565072996  1.0000
  H   H13       1.0  0.32896622758222804  0.42759190256894203  0.14520751556948847  1.0000
  H   H14       1.0  0.17103463172290392  0.9275926672871578  0.8547921202044149  1.0000
  H   H15       1.0  0.6710340639373769  0.5724074895957189  0.8547914141370397  1.0000
  H   H16       1.0  0.8289668166497608  0.0724067248817306  0.145209754302833  1.0000
  H   H17       1.0  0.20787588787235484  0.4795670895317626  0.5827583013285604  1.0000
  H   H18       1.0  0.29212503982892474  0.9795667986340176  0.41724145583984296  1.0000
  H   H19       1.0  0.7921255532058994  0.5204333233467864  0.41724171305662583  1.0000
  H   H20       1.0  0.7078752589864338  0.020433614245142503  0.5827593339911414  1.0000
  H   H21       1.0  0.5344346436855291  0.9932297066854332  0.8739571676474112  1.0000
  H   H22       1.0  0.9655656374779369  0.49322898541412014  0.12604296894588876  1.0000
  H   H23       1.0  0.4655679433038388  0.006771726905789399  0.12604300135480168  1.0000
  H   H24       1.0  0.034434654042343  0.5067714274626243  0.8739559607618329  1.0000
  H   H25       1.0  0.6832599953308504  0.9155445268718053  0.9855167785831609  1.0000
  H   H26       1.0  0.8167401872499341  0.4155434137122357  0.0144841066260923  1.0000
  H   H27       1.0  0.3167414420998612  0.0844558860055358  0.014482305740394032  1.0000
  H   H28       1.0  0.18326011156475636  0.5844559784548552  0.9855166832036915  1.0000
  H   H29       1.0  0.5072361582827656  0.8267975617172352  0.929813051352127  1.0000
  H   H30       1.0  0.9927627652478892  0.32679569299914135  0.07018840202039203  1.0000
  H   H31       1.0  0.4927641368864002  0.17320489258487737  0.07018680841961358  1.0000
  H   H32       1.0  0.007238679477239901  0.6732036991685391  0.9298125424252319  1.0000
  C   C1        1.0  0.38900205392130977  0.6492674388549845  0.3975210648697426  1.0000
  C   C2        1.0  0.11099728956188673  0.14926465274505318  0.6024768361546434  1.0000
  C   C3        1.0  0.6109959421318933  0.35073501544352575  0.6024766255470623  1.0000
  C   C4        1.0  0.8890018633423652  0.8507347394214407  0.39752379905931423  1.0000
  C   C5        1.0  0.4779370230880177  0.7494053889063254  0.35160884571071443  1.0000
  C   C6        1.0  0.0220613208536946  0.2494057236340836  0.6483928548349809  1.0000
  C   C7        1.0  0.522060980259596  0.2505960446825242  0.6483907048281663  1.0000
  C   C8        1.0  0.9779389816092066  0.7505946892462917  0.3516088650576279  1.0000
  C   C9        1.0  0.5130827747180647  0.7304281653343736  0.23124487693993956  1.0000
  C   C10       1.0  0.9869160183494119  0.2304291307218591  0.7687554212892989  1.0000
  C   C11       1.0  0.48691408271844244  0.2695722475418022  0.7687545189819146  1.0000
  C   C12       1.0  0.013084284113489301  0.769571282158516  0.23124629860331677  1.0000
  C   C13       1.0  0.45942921784279633  0.6159347769888016  0.15750768432299367  1.0000
  C   C14       1.0  0.0405700890736966  0.11593562932804252  0.8424919989755464  1.0000
  C   C15       1.0  0.5405687818565995  0.3840656358867562  0.8424909361530624  1.0000
  C   C16       1.0  0.9594313592989752  0.8840637628408461  0.15750987553170856  1.0000
  C   C17       1.0  0.3702769622188029  0.5160101542751718  0.20233366511309464  1.0000
  C   C18       1.0  0.1297233627596341  0.0160109508933814  0.7976668694741206  1.0000
  C   C19       1.0  0.6297233329503555  0.48399230002694776  0.7976661946586387  1.0000
  C   C20       1.0  0.8702769360563991  0.9839904826978622  0.20233392035805048  1.0000
  C   C21       1.0  0.33621426439336943  0.5330919172689265  0.3237631107376657  1.0000
  C   C22       1.0  0.1637837839483609  0.0330934419528077  0.6762352943924624  1.0000
  C   C23       1.0  0.6637814398382816  0.4669095163163207  0.6762342704462867  1.0000
  C   C24       1.0  0.8362165185145402  0.9669069709275672  0.3237664255001533  1.0000
  C   C25       1.0  0.2605128933258741  0.5183652941090741  0.5056490111766718  1.0000
  C   C26       1.0  0.23948743475201442  0.018366397312419704  0.49435152891167883  1.0000
  C   C27       1.0  0.7394862595777029  0.48163307734533595  0.49435162403609206  1.0000
  C   C28       1.0  0.7605128677102189  0.9816329948558786  0.5056501909797362  1.0000
  C   C29       1.0  0.5936634936436747  0.8973491769487154  0.9042044690210459  1.0000
  C   C30       1.0  0.9063355190819707  0.39734731581761196  0.09579621907357698  1.0000
  C   C31       1.0  0.40633794743525453  0.10265225664191038  0.09579554536533409  1.0000
  C   C32       1.0  0.09366363382160611  0.6026510556367981  0.904204416139187  1.0000
  C   C33       1.0  0.6588859800499594  0.8382324766231265  0.7957962841471015  1.0000
  C   C34       1.0  0.84111295123558  0.33823391510969714  0.2042033358139506  1.0000
  C   C35       1.0  0.3411143114696459  0.1617669155415342  0.2042026455594268  1.0000
  C   C36       1.0  0.15888963575311274  0.6617664977694416  0.7957968331870687  1.0000
  N   N1        1.0  0.3382048597706985  0.6369904460500849  0.5124137121251309  1.0000
  N   N2        1.0  0.1617944748534939  0.1369904578726562  0.48758602035105975  1.0000
  N   N3        1.0  0.6617931435769152  0.3630109875387646  0.48758583841375003  1.0000
  N   N4        1.0  0.8382046744032153  0.8630089342926227  0.5124136848012739  1.0000
  N   N5        1.0  0.25444626058315123  0.4520096768115848  0.39528247546383705  1.0000
  N   N6        1.0  0.24555348129621996  0.9520098418369756  0.6047161326632277  1.0000
  N   N7        1.0  0.7455528813791404  0.5479907360633548  0.6047153695664205  1.0000
  N   N8        1.0  0.7544456679611572  0.047990571040386995  0.39528357249029256  1.0000
  O   O1        1.0  0.8020170571002581  0.8104834655435624  0.8101457265286239  1.0000
  O   O2        1.0  0.6979818486121233  0.3104857896471813  0.18985661880643784  1.0000
  O   O3        1.0  0.1979843876248637  0.18951592662411804  0.18985521791699966  1.0000
  O   O4        1.0  0.3020173079410142  0.6895156439446879  0.8101449464715313  1.0000
  O   O5        1.0  0.5725272874518624  0.8158868809679731  0.6902547164717133  1.0000
  O   O6        1.0  0.9274727639848023  0.31588661159630504  0.3097459359733747  1.0000
  O   O7        1.0  0.427473011362828  0.18411251119911046  0.3097460733580774  1.0000
  O   O8        1.0  0.07252867344523391  0.6841127805689454  0.6902531483489935  1.0000
