data_image0
_chemical_formula_structural       Zn2H20C26N2O12
_chemical_formula_sum              "Zn2 H20 C26 N2 O12"
_cell_length_a       7.719460834723621
_cell_length_b       8.933749059603613
_cell_length_c       9.883347067679978
_cell_angle_alpha    105.45193296835087
_cell_angle_beta     95.99667285341924
_cell_angle_gamma    108.90962222838087

_space_group_name_H-M_alt    "P 1"
_space_group_IT_number       1

loop_
  _space_group_symop_operation_xyz
  'x, y, z'

loop_
  _atom_site_type_symbol
  _atom_site_label
  _atom_site_symmetry_multiplicity
  _atom_site_fract_x
  _atom_site_fract_y
  _atom_site_fract_z
  _atom_site_occupancy
  Zn  Zn1       1.0  0.9474025779347954  0.6868522717600811  0.03963349943609982  1.0000
  Zn  Zn2       1.0  0.052597902532127705  0.31315136109196123  0.9603692188317012  1.0000
  H   H1        1.0  0.8150544358142185  0.8516714677625927  0.2366281604350107  1.0000
  H   H2        1.0  0.184935470485307  0.14834016679545667  0.7633712636700309  1.0000
  H   H3        1.0  0.9534836981785872  0.8328057232600868  0.7997080932517592  1.0000
  H   H4        1.0  0.04650646855851901  0.16718700179803392  0.2002924718636265  1.0000
  H   H5        1.0  0.5129976175614601  0.24671686964985176  0.06313645147485401  1.0000
  H   H6        1.0  0.48700781129738147  0.7533058800039497  0.9368757440684305  1.0000
  H   H7        1.0  0.9351880948161553  0.38968681026474866  0.4438075283239016  1.0000
  H   H8        1.0  0.06480590338916414  0.6103227262620267  0.5562059868965221  1.0000
  H   H9        1.0  0.753179843564581  0.7614738007823831  0.5610220701443112  1.0000
  H   H10       1.0  0.2468200020580014  0.23851441684409738  0.438974340432118  1.0000
  H   H11       1.0  0.4558974007004011  0.9354395899714091  0.33563636356034005  1.0000
  H   H12       1.0  0.5441044881876707  0.06455849160663259  0.6643572182110589  1.0000
  H   H13       1.0  0.4236543081624904  0.29745273202404837  0.6209046096182718  1.0000
  H   H14       1.0  0.5763524124609134  0.702522145097518  0.3790845493952233  1.0000
  H   H15       1.0  0.7654878683042411  0.888972106004253  0.0886267912769725  1.0000
  H   H16       1.0  0.23451556163291087  0.11103492006819242  0.911370814246702  1.0000
  H   H17       1.0  0.8881796103988933  0.20862996775523607  0.5766137378987466  1.0000
  H   H18       1.0  0.11181565031571247  0.7913764342517595  0.4233880947240394  1.0000
  H   H19       1.0  0.639377049315911  0.38851993738448687  0.8549272378862723  1.0000
  H   H20       1.0  0.36062803823087825  0.61146258127215  0.14506134892284453  1.0000
  C   C1        1.0  0.2769288047350925  0.9607386237278701  0.10164461492902889  1.0000
  C   C2        1.0  0.7230754168810664  0.03927842435913929  0.8983521117464405  1.0000
  C   C3        1.0  0.5660478904246491  0.22109941255810384  0.15748979007781122  1.0000
  C   C4        1.0  0.43395431042419125  0.778907864861111  0.8425118118596943  1.0000
  C   C5        1.0  0.719861684205199  0.6738517845937366  0.6211923610349858  1.0000
  C   C6        1.0  0.28013769262194893  0.3261326304025828  0.37880321591492827  1.0000
  C   C7        1.0  0.7096802388004521  0.15440056963306859  0.39917305611657383  1.0000
  C   C8        1.0  0.29032827858736  0.8455922146146759  0.6008230306727711  1.0000
  C   C9        1.0  0.5378023289867712  0.044418374878880215  0.30953147131378245  1.0000
  C   C10       1.0  0.46220333715891837  0.9555793257939128  0.6904583070441888  1.0000
  C   C11       1.0  0.46565828473855225  0.0780656605560992  0.18977567357946162  1.0000
  C   C12       1.0  0.5343426307765498  0.9219416350004722  0.8102248086293358  1.0000
  C   C13       1.0  0.5650643471980956  0.5229079336247793  0.5689693507206075  1.0000
  C   C14       1.0  0.4349363933801272  0.47707376662867074  0.43102375268821197  1.0000
  C   C15       1.0  0.8409644706807526  0.493147116812942  0.22404270204089732  1.0000
  C   C16       1.0  0.15903136007108287  0.506863507601146  0.7759691732649474  1.0000
  C   C17       1.0  0.7338105107346776  0.33451798163700625  0.2507237710591568  1.0000
  C   C18       1.0  0.26619928995202696  0.6654917436378864  0.7492850728348301  1.0000
  C   C19       1.0  0.8040589026185361  0.3023873298332802  0.3717125930803534  1.0000
  C   C20       1.0  0.19594484164049678  0.6976149560144834  0.6282921511028051  1.0000
  C   C21       1.0  0.8338707914696287  0.7157624038749971  0.754120054539662  1.0000
  C   C22       1.0  0.16612195685777922  0.28422730845161936  0.2458730173923058  1.0000
  C   C23       1.0  0.5383690733453862  0.41772745660061616  0.6544951577948838  1.0000
  C   C24       1.0  0.4616336119439454  0.5822527748602867  0.345495782115087  1.0000
  C   C25       1.0  0.6578735204456336  0.4671998940063631  0.7862091803604302  1.0000
  C   C26       1.0  0.34213012493273715  0.5327880359986281  0.21378547325957703  1.0000
  N   N1        1.0  0.8027097759833595  0.6154804860435874  0.8365214679244559  1.0000
  N   N2        1.0  0.19728499579876768  0.3845080839836255  0.1634766031081938  1.0000
  O   O1        1.0  0.8496757296852807  0.47985504419904146  0.0913566230238487  1.0000
  O   O2        1.0  0.15032498432507413  0.5201604810996726  0.9086577086798401  1.0000
  O   O3        1.0  0.20156022743757515  0.9810523098249105  0.9917265338289526  1.0000
  O   O4        1.0  0.7984420068322466  0.01895208442128649  0.008267381924739007  1.0000
  O   O5        1.0  0.19461682627915167  0.8389366646554918  0.14748655311701242  1.0000
  O   O6        1.0  0.8053783447690391  0.16107238731512302  0.8525178495470627  1.0000
  O   O7        1.0  0.9139431135124738  0.6265270291494646  0.3278536301109511  1.0000
  O   O8        1.0  0.08603861264170838  0.37348695779991914  0.6721597537340216  1.0000
  O   O9        1.0  0.7773363423213484  0.11312843951385787  0.5110458911320565  1.0000
  O   O10       1.0  0.22267193948818692  0.8868694114517268  0.488950219597335  1.0000
  O   O11       1.0  0.7686268565215714  0.7991263881929456  0.1335331007646374  1.0000
  O   O12       1.0  0.2313627043962043  0.2008789336969556  0.8664659893581189  1.0000
