data_image0
_chemical_formula_structural       Cu2H48C32N24Cl4
_chemical_formula_sum              "Cu2 H48 C32 N24 Cl4"
_cell_length_a       7.438297722242985
_cell_length_b       8.683717423221465
_cell_length_c       17.621270518017603
_cell_angle_alpha    89.99984797258185
_cell_angle_beta     90.00001244429822
_cell_angle_gamma    115.1674819486615

_space_group_name_H-M_alt    "P 1"
_space_group_IT_number       1

loop_
  _space_group_symop_operation_xyz
  'x, y, z'

loop_
  _atom_site_type_symbol
  _atom_site_label
  _atom_site_symmetry_multiplicity
  _atom_site_fract_x
  _atom_site_fract_y
  _atom_site_fract_z
  _atom_site_occupancy
  Cu  Cu1       1.0  0.4999992748542042  0.9999991885196307  0.49999963575321266  1.0000
  Cu  Cu2       1.0  0.4999977734561441  0.4999986792910959  2.6235414910000005e-07  1.0000
  H   H1        1.0  0.323213522339934  0.922328506703522  0.3296844906536478  1.0000
  H   H2        1.0  0.6767845468127122  0.5776710946523451  0.8296844346820365  1.0000
  H   H3        1.0  0.6767865473796563  0.0776720593217846  0.6703154371604967  1.0000
  H   H4        1.0  0.323214894136143  0.42232819900227975  0.17031719562082512  1.0000
  H   H5        1.0  0.8279474448893964  0.884391738333683  0.42074834705599073  1.0000
  H   H6        1.0  0.1720518191983445  0.6156047483125918  0.9207487623262834  1.0000
  H   H7        1.0  0.1720533418250696  0.11560755809170331  0.5792515807590207  1.0000
  H   H8        1.0  0.8279443896838999  0.3843907254861563  0.0792511654910228  1.0000
  H   H9        1.0  0.7168758481671704  0.6642595145661759  0.2355007770288751  1.0000
  H   H10       1.0  0.2831243545332711  0.8357444991066316  0.7355020485605551  1.0000
  H   H11       1.0  0.2831215300271666  0.33574104593195386  0.7644980157932082  1.0000
  H   H12       1.0  0.7168817270075536  0.16425735034370345  0.2644984467489948  1.0000
  H   H13       1.0  0.8872125921606155  0.725308123895104  0.31281753070587104  1.0000
  H   H14       1.0  0.11278543304244702  0.7746941260197177  0.8128182991970263  1.0000
  H   H15       1.0  0.11278415726522444  0.2746911642377299  0.687181262117015  1.0000
  H   H16       1.0  0.8872158942148758  0.2253089847379641  0.1871810611195386  1.0000
  H   H17       1.0  0.07851227437522822  0.0086690918955554  0.2551847756279599  1.0000
  H   H18       1.0  0.921487422132607  0.49133571123557834  0.7551859016882717  1.0000
  H   H19       1.0  0.921487795344362  0.9913314741297441  0.7448151521861845  1.0000
  H   H20       1.0  0.07851390512322363  0.5086673995185225  0.24481459362022662  1.0000
  H   H21       1.0  0.9012566447603592  0.9647592968150959  0.1815680413174334  1.0000
  H   H22       1.0  0.0987444165153947  0.535243788104225  0.6815691228234115  1.0000
  H   H23       1.0  0.09874539949183261  0.035242544342679594  0.8184313189999983  1.0000
  H   H24       1.0  0.9012562819726853  0.4647580502863704  0.3184308049899229  1.0000
  H   H25       1.0  0.14511299697376515  0.7602544242166119  0.2113236569145442  1.0000
  H   H26       1.0  0.8548898724992356  0.7397522897576962  0.711321702102957  1.0000
  H   H27       1.0  0.8548877015143148  0.23974741417398351  0.7886762708987902  1.0000
  H   H28       1.0  0.14511145475734114  0.260250820998202  0.2886782257095746  1.0000
  H   H29       1.0  0.9796882716411943  0.7298813752785306  0.1340279267057696  1.0000
  H   H30       1.0  0.02031300266310154  0.7701194681292947  0.6340264227048635  1.0000
  H   H31       1.0  0.02031314384250751  0.2701191935139491  0.8659714336124651  1.0000
  H   H32       1.0  0.9796883245934681  0.2298836426266035  0.365973505107668  1.0000
  H   H33       1.0  0.19967519499804354  0.012944101976302101  0.0822642164625549  1.0000
  H   H34       1.0  0.8003225285996151  0.4870541625555589  0.5822659044817087  1.0000
  H   H35       1.0  0.8003229001896771  0.9870551889183332  0.9177357113523358  1.0000
  H   H36       1.0  0.1996795156510914  0.5129476785986214  0.4177345908276564  1.0000
  H   H37       1.0  0.3515205259995327  0.0602067696094579  0.16458402280524354  1.0000
  H   H38       1.0  0.6484802135670976  0.4397947945361694  0.6645857588831702  1.0000
  H   H39       1.0  0.6484808894841693  0.9397937991830219  0.8354153375129911  1.0000
  H   H40       1.0  0.35152120191511227  0.5602057742527222  0.3354147364270048  1.0000
  H   H41       1.0  0.17680693425081984  0.6245528662610552  0.0649932091597307  1.0000
  H   H42       1.0  0.8231919179772477  0.8754458659370243  0.564992208303444  1.0000
  H   H43       1.0  0.8231925066995275  0.3754464273971577  0.9350072861511904  1.0000
  H   H44       1.0  0.1768068059789698  0.12455469732289971  0.4350077195106365  1.0000
  H   H45       1.0  0.7962626206946127  0.8978799964773572  0.0458542567042173  1.0000
  H   H46       1.0  0.20373565300299393  0.6021175843004726  0.5458563950831063  1.0000
  H   H47       1.0  0.2037355627209863  0.10211675245565031  0.9541445361204096  1.0000
  H   H48       1.0  0.7962638761737395  0.39787916739253143  0.4541441002294846  1.0000
  C   C1        1.0  0.45767638962342266  0.903228557586111  0.3339310817189087  1.0000
  C   C2        1.0  0.5423237311389427  0.5967697500958096  0.833931555796255  1.0000
  C   C3        1.0  0.5423251140866654  0.09676946924115977  0.6660682786009957  1.0000
  C   C4        1.0  0.45767705557329214  0.40322954632420505  0.1660700745066634  1.0000
  C   C5        1.0  0.7125041720418538  0.8868022808778804  0.3830807951717786  1.0000
  C   C6        1.0  0.287493845165301  0.6131944410573738  0.8830806567363183  1.0000
  C   C7        1.0  0.2874966146733655  0.11319701554930361  0.6169185651472588  1.0000
  C   C8        1.0  0.7125010179528317  0.3868010299742012  0.1169198385768979  1.0000
  C   C9        1.0  0.8173050564193006  0.7725273411409573  0.2693308478357324  1.0000
  C   C10       1.0  0.1826930829416684  0.7274751836021809  0.7693316847423475  1.0000
  C   C11       1.0  0.18269438453328493  0.22747195252263452  0.7306679449872816  1.0000
  C   C12       1.0  0.8173076155464117  0.27252665478842175  0.23066824307099407  1.0000
  C   C13       1.0  0.9728448812341599  0.9065551233356572  0.2192316553293381  1.0000
  C   C14       1.0  0.027156081170744577  0.5934477235580077  0.7192320863501038  1.0000
  C   C15       1.0  0.02715518848617652  0.09344544269144002  0.7807677049888397  1.0000
  C   C16       1.0  0.9728459630799623  0.4065541175961798  0.28076840895926847  1.0000
  C   C17       1.0  0.08363482315951389  0.8257689801026301  0.172913781369914  1.0000
  C   C18       1.0  0.916366260836398  0.6742341595140858  0.6729136207030351  1.0000
  C   C19       1.0  0.9163652465600762  0.17423158592267643  0.8270861464442305  1.0000
  C   C20       1.0  0.08363641218280556  0.3257689540053974  0.3270868746055271  1.0000
  C   C21       1.0  0.2542380344298608  0.9569118583650323  0.127670654462932  1.0000
  C   C22       1.0  0.7457626277911303  0.5430877528460629  0.6276717852271503  1.0000
  C   C23       1.0  0.7457614065219857  0.0430874352967692  0.8723287058560487  1.0000
  C   C24       1.0  0.25423941645958353  0.45691408830812463  0.3723287100822148  1.0000
  C   C25       1.0  0.32673471151416333  0.724216919669111  0.0690637992402401  1.0000
  C   C26       1.0  0.6732640418015593  0.77578432876836  0.5690629154026254  1.0000
  C   C27       1.0  0.67326472943693  0.27578237399089994  0.9309361285747074  1.0000
  C   C28       1.0  0.3267340533861686  0.22421496212626826  0.4309370124122651  1.0000
  C   C29       1.0  0.6422892561702228  0.8668480720584383  0.0593686190067828  1.0000
  C   C30       1.0  0.3577082650578803  0.6331506929162671  0.5593690283368034  1.0000
  C   C31       1.0  0.3577082102490081  0.1331499464708941  0.9406313088089108  1.0000
  C   C32       1.0  0.6422911758924742  0.3668486007419459  0.4406314669741178  1.0000
  N   N1        1.0  0.5653488829916427  0.9314831257401437  0.3992884439693754  1.0000
  N   N2        1.0  0.4346490916682983  0.5685134937652593  0.8992883777281904  1.0000
  N   N3        1.0  0.434649212196824  0.0685161651562751  0.6007109163495485  1.0000
  N   N4        1.0  0.5653490917450696  0.4314832551623695  0.1007121175843366  1.0000
  N   N5        1.0  0.6930052913937249  0.8357771519640168  0.3104941207659024  1.0000
  N   N6        1.0  0.30699211114061603  0.6642238402703526  0.8104944846419002  1.0000
  N   N7        1.0  0.30699414955811477  0.1642221416977847  0.6895052395530783  1.0000
  N   N8        1.0  0.6930066128156013  0.33577672298957145  0.1895054431721874  1.0000
  N   N9        1.0  0.5306551823458535  0.8443996271656787  0.2778982741271392  1.0000
  N   N10       1.0  0.4693436515192674  0.6556015738324704  0.7778992317610331  1.0000
  N   N11       1.0  0.46934425860598594  0.15559966649612278  0.7221010861918415  1.0000
  N   N12       1.0  0.5306564181988378  0.344398992189248  0.22210183104505182  1.0000
  N   N13       1.0  0.3795125395865285  0.8826006019461161  0.0950567156209132  1.0000
  N   N14       1.0  0.6204862337191631  0.6173979402510598  0.5950571698162223  1.0000
  N   N15       1.0  0.6204869013653109  0.11739869171569242  0.9049426446980675  1.0000
  N   N16       1.0  0.3795132072311915  0.38260135340716056  0.40494332549469914  1.0000
  N   N17       1.0  0.5796646386383274  0.9755892574339173  0.0893652467232542  1.0000
  N   N18       1.0  0.4203341496065536  0.5244093207284665  0.5893669395455134  1.0000
  N   N19       1.0  0.4203348023142581  0.024410036229674904  0.9106335460997598  1.0000
  N   N20       1.0  0.579665291343801  0.4755899729297468  0.4106335557654078  1.0000
  N   N21       1.0  0.4909320520820232  0.7100311139777986  0.0463855421662771  1.0000
  N   N22       1.0  0.5090662202234172  0.789966463448465  0.546385759588425  1.0000
  N   N23       1.0  0.5090667601005804  0.28996690731691627  0.9536143856494803  1.0000
  N   N24       1.0  0.49093187496356466  0.2100328274443726  0.4536147357224323  1.0000
  Cl  Cl1       1.0  0.0853968112298917  0.8029101597534452  0.463526780050131  1.0000
  Cl  Cl2       1.0  0.9146008183430112  0.6970911377054776  0.9635271567131766  1.0000
  Cl  Cl3       1.0  0.914601912726326  0.19709040350647913  0.5364731477639566  1.0000
  Cl  Cl4       1.0  0.08539727684397044  0.30290815318736014  0.0364733385976805  1.0000
