data_image0
_chemical_formula_structural       K4H28C36O12
_chemical_formula_sum              "K4 H28 C36 O12"
_cell_length_a       6.493102459451198
_cell_length_b       8.161092446289206
_cell_length_c       16.897070573108596
_cell_angle_alpha    90.0000633960985
_cell_angle_beta     90.00036593312767
_cell_angle_gamma    106.95769686666242

_space_group_name_H-M_alt    "P 1"
_space_group_IT_number       1

loop_
  _space_group_symop_operation_xyz
  'x, y, z'

loop_
  _atom_site_type_symbol
  _atom_site_label
  _atom_site_symmetry_multiplicity
  _atom_site_fract_x
  _atom_site_fract_y
  _atom_site_fract_z
  _atom_site_occupancy
  K   K1        1.0  0.3022252061735742  0.9705754756358047  0.5778001475317537  1.0000
  K   K2        1.0  0.19777632947623391  0.529408254288107  0.07779609272263598  1.0000
  K   K3        1.0  0.6977821907570388  0.029447339434739195  0.42220896240463185  1.0000
  K   K4        1.0  0.8022201177401913  0.47056966621473595  0.9222029562749228  1.0000
  H   H1        1.0  0.04164696978654794  0.45048091518885497  0.5709736777275721  1.0000
  H   H2        1.0  0.4583542191317562  0.0495046796007728  0.07097500829521408  1.0000
  H   H3        1.0  0.9583637047619507  0.5495302940130813  0.42901945310916284  1.0000
  H   H4        1.0  0.5416614069786618  0.9504871917612973  0.9290228570918939  1.0000
  H   H5        1.0  0.31612080841185275  0.517136995914086  0.6766071336435928  1.0000
  H   H6        1.0  0.18388129734569952  0.9828641711753006  0.1766020588471378  1.0000
  H   H7        1.0  0.6838934926810154  0.48287160497287823  0.32338777265272967  1.0000
  H   H8        1.0  0.8161234491202621  0.017135525127457592  0.8233892965240982  1.0000
  H   H9        1.0  0.2794380800002685  0.6985899960661827  0.7913761344011333  1.0000
  H   H10       1.0  0.2205612753675438  0.8014030419531009  0.29137402989037736  1.0000
  H   H11       1.0  0.7205753144439557  0.3014121846876918  0.2086211391669153  1.0000
  H   H12       1.0  0.7794139008462793  0.19859180939607057  0.7086214681733053  1.0000
  H   H13       1.0  0.9588905748380299  0.8071416815895771  0.8000074852475692  1.0000
  H   H14       1.0  0.5411094661535429  0.6928519628340412  0.3000066666538714  1.0000
  H   H15       1.0  0.04111333474433819  0.19284773631753893  0.19999097194313006  1.0000
  H   H16       1.0  0.4588671746978294  0.3071467313272861  0.699994157779507  1.0000
  H   H17       1.0  0.6775221044836215  0.7333672503340123  0.6966821116740292  1.0000
  H   H18       1.0  0.822473444048967  0.766623107723255  0.1966820185553075  1.0000
  H   H19       1.0  0.3224822933282853  0.26662344851684583  0.3033198964289241  1.0000
  H   H20       1.0  0.17751463435062936  0.23336518414465246  0.8033241322569465  1.0000
  H   H21       1.0  0.8541550382690276  0.9821027232317545  0.5931733171532017  1.0000
  H   H22       1.0  0.645850241488205  0.5178893469673367  0.09317090482169728  1.0000
  H   H23       1.0  0.14584336194980813  0.017908609906108094  0.4068322418582326  1.0000
  H   H24       1.0  0.35414655449010723  0.48209757102767264  0.906828735996818  1.0000
  H   H25       1.0  0.8948017929796352  0.177673343169829  0.5874491225734529  1.0000
  H   H26       1.0  0.6051976515920147  0.32231422610473  0.08745147748469859  1.0000
  H   H27       1.0  0.10519974551996811  0.8223341006965937  0.4125511100739415  1.0000
  H   H28       1.0  0.394800190525295  0.677671395483422  0.9125511224276295  1.0000
  C   C1        1.0  0.5749988225980118  0.6671613511623418  0.5351959909562466  1.0000
  C   C2        1.0  0.9250051360210776  0.8328418786617677  0.0351955875399028  1.0000
  C   C3        1.0  0.42501136387985383  0.3328485771551968  0.46481015988796054  1.0000
  C   C4        1.0  0.07499319429172148  0.16714502385740806  0.9648070123733062  1.0000
  C   C5        1.0  0.6703782603768077  0.5427048871858914  0.5630873064719566  1.0000
  C   C6        1.0  0.8296206538153896  0.9572960269607617  0.06307962052704848  1.0000
  C   C7        1.0  0.3296203489952633  0.4572948711113226  0.4369176607186417  1.0000
  C   C8        1.0  0.17038172146654776  0.0426934064348998  0.9369194284803227  1.0000
  C   C9        1.0  0.6005186547777016  0.37641285982005  0.52962280356045  1.0000
  C   C10       1.0  0.8994788438474475  0.12359230576289798  0.0296198786632047  1.0000
  C   C11       1.0  0.39947060925602773  0.6235947079314313  0.47037565361616623  1.0000
  C   C12       1.0  0.10051523228622009  0.8764036406992445  0.9703809457910496  1.0000
  C   C13       1.0  0.019749980543068053  0.5257679712872942  0.621772413404585  1.0000
  C   C14       1.0  0.4802556764274541  0.9742327566356009  0.12176924873394059  1.0000
  C   C15       1.0  0.980266203617788  0.4742496116054085  0.37822308471456967  1.0000
  C   C16       1.0  0.5197471173133084  0.025761815964244796  0.8782280248193854  1.0000
  C   C17       1.0  0.8366609969531424  0.5852178552638917  0.625746310805219  1.0000
  C   C18       1.0  0.6633389796109129  0.9147912241985593  0.1257405638677866  1.0000
  C   C19       1.0  0.16334765517321867  0.41479208852312144  0.3742551054886079  1.0000
  C   C20       1.0  0.33666381414119684  0.0852033484055212  0.8742578933226637  1.0000
  C   C21       1.0  0.1762170117621906  0.5648258881857017  0.6811018336641366  1.0000
  C   C22       1.0  0.323780647018971  0.935171499278894  0.1810982664065293  1.0000
  C   C23       1.0  0.8237956853333089  0.43518658647779757  0.3188960317238596  1.0000
  C   C24       1.0  0.6762114065449938  0.0648231817132157  0.8188954562222222  1.0000
  C   C25       1.0  0.15615951616506146  0.666595973453809  0.7455644843338831  1.0000
  C   C26       1.0  0.3438305219390115  0.83341096609292  0.2455626975326979  1.0000
  C   C27       1.0  0.8438486477487858  0.3334126893958143  0.25443515650337634  1.0000
  C   C28       1.0  0.6561486295640366  0.1665902744270795  0.7544333923558353  1.0000
  C   C29       1.0  0.9757175011595153  0.7269655347566014  0.7501953037994865  1.0000
  C   C30       1.0  0.5242790040119729  0.7730290648228859  0.2501932950927852  1.0000
  C   C31       1.0  0.024291848309900357  0.27303411511866926  0.24980492885583058  1.0000
  C   C32       1.0  0.4756981947545287  0.22696705198995912  0.7498075293407139  1.0000
  C   C33       1.0  0.8172872518722941  0.6860217937148504  0.6915938175404293  1.0000
  C   C34       1.0  0.6827171957022814  0.8139800098051565  0.19158925798895865  1.0000
  C   C35       1.0  0.18271742496483506  0.3139817609013277  0.3084070069285474  1.0000
  C   C36       1.0  0.3172759737713946  0.18600951651966105  0.8084127500998974  1.0000
  O   O1        1.0  0.6250474484353533  0.8209438793959478  0.559504441766343  1.0000
  O   O2        1.0  0.8749558605679368  0.6790646792098014  0.05950207246421969  1.0000
  O   O3        1.0  0.37494488426734324  0.1790636574038729  0.4404999335996678  1.0000
  O   O4        1.0  0.1250409354273998  0.3209222387915601  0.940499343809982  1.0000
  O   O5        1.0  0.6688954199745396  0.25207847345239287  0.5502282075252436  1.0000
  O   O6        1.0  0.8311072161880234  0.24791907667256644  0.0502222093214542  1.0000
  O   O7        1.0  0.3311142085541477  0.7479340322009094  0.4497743924074697  1.0000
  O   O8        1.0  0.16888957975623947  0.7520678413097243  0.9497738805856952  1.0000
  O   O9        1.0  0.9708345056152725  0.09152750772333455  0.597097615455631  1.0000
  O   O10       1.0  0.5291679834368496  0.4084716745061243  0.0970968615321155  1.0000
  O   O11       1.0  0.029161314198191145  0.90848513732265  0.4029091271900285  1.0000
  O   O12       1.0  0.4708322299212355  0.5915242100103199  0.9029039629296844  1.0000
