data_image0
_chemical_formula_structural       Zr6H52C88O36
_chemical_formula_sum              "Zr6 H52 C88 O36"
_cell_length_a       19.13195657950414
_cell_length_b       19.11860127166278
_cell_length_c       19.118393061467074
_cell_angle_alpha    59.75358113470911
_cell_angle_beta     59.97663176006128
_cell_angle_gamma    59.97690993006335

_space_group_name_H-M_alt    "P 1"
_space_group_IT_number       1

loop_
  _space_group_symop_operation_xyz
  'x, y, z'

loop_
  _atom_site_type_symbol
  _atom_site_label
  _atom_site_symmetry_multiplicity
  _atom_site_fract_x
  _atom_site_fract_y
  _atom_site_fract_z
  _atom_site_occupancy
  Zr  Zr1       1.0  0.907592518282051  0.4068504249843415  0.5931228648525249  1.0000
  Zr  Zr2       1.0  0.09245298486779799  0.5925059496097161  0.40747990757206043  1.0000
  Zr  Zr3       1.0  0.09243179935275245  0.4068491538042591  0.5931231127052072  1.0000
  Zr  Zr4       1.0  0.9075566244211257  0.5925055422075758  0.4074801638751495  1.0000
  Zr  Zr5       1.0  0.907698735230298  0.5920488173347277  0.5925498892968336  1.0000
  Zr  Zr6       1.0  0.09233179086535166  0.4074406497920863  0.4078918874882405  1.0000
  H   H1        1.0  0.9272551069509165  0.4263860276700057  0.7191000459408557  1.0000
  H   H2        1.0  0.9272117610413706  0.7184940006336616  0.42707851634446586  1.0000
  H   H3        1.0  0.21811084757255395  0.4270219724618158  0.42756613344828764  1.0000
  H   H4        1.0  0.9272964807184536  0.4270216000302867  0.4275665572066175  1.0000
  H   H5        1.0  0.3202252322109305  0.6133762820496071  0.17743901101531648  1.0000
  H   H6        1.0  0.4503193331958643  0.6128389994497779  0.050308047136148684  1.0000
  H   H7        1.0  0.6771604355229146  0.3888635151814555  0.8204594781582771  1.0000
  H   H8        1.0  0.5501403276334785  0.3864211351392156  0.9506815051745434  1.0000
  H   H9        1.0  0.6780152421948102  0.6132188695365028  0.8195730378153812  1.0000
  H   H10       1.0  0.5508466120290548  0.6127606342901543  0.9496403941929968  1.0000
  H   H11       1.0  0.31948717553238043  0.38909251396572836  0.1780827695165145  1.0000
  H   H12       1.0  0.44971454004164013  0.3865483657328852  0.05114381001629913  1.0000
  H   H13       1.0  0.1134433789276701  0.8201528480491547  0.38906143463327675  1.0000
  H   H14       1.0  0.11267864456073809  0.9504632287763144  0.38643288874796883  1.0000
  H   H15       1.0  0.8889096524911652  0.17714182148277058  0.6135636181234219  1.0000
  H   H16       1.0  0.8864498829858363  0.05012912395559978  0.612834344513182  1.0000
  H   H17       1.0  0.11327536903424829  0.17791984646178352  0.3892508685507821  1.0000
  H   H18       1.0  0.11249203416831213  0.051076102864577394  0.3865399340889368  1.0000
  H   H19       1.0  0.8891003587070758  0.8194246788313317  0.6134040251883304  1.0000
  H   H20       1.0  0.8866564602910216  0.9495654519777404  0.6127618019357187  1.0000
  H   H21       1.0  0.3195516189608369  0.17791929871500414  0.3892497316541609  1.0000
  H   H22       1.0  0.4498895058490077  0.05107483483593715  0.38653971777216617  1.0000
  H   H23       1.0  0.6780684518458248  0.8194270655625215  0.6134019744649991  1.0000
  H   H24       1.0  0.5510138772506823  0.9495674780747191  0.6127616816551721  1.0000
  H   H25       1.0  0.6773372413401688  0.8201505511237244  0.389062978011907  1.0000
  H   H26       1.0  0.5504195812548646  0.9504612941605615  0.38643511118603874  1.0000
  H   H27       1.0  0.3203784801138454  0.17714197617820573  0.613563590292351  1.0000
  H   H28       1.0  0.4505824762912312  0.05012918008404202  0.6128354896087203  1.0000
  H   H29       1.0  0.8891895193754137  0.61321878240215  0.8195731734499958  1.0000
  H   H30       1.0  0.8867488155180611  0.6127600235256169  0.94964066208626  1.0000
  H   H31       1.0  0.11333387210462603  0.38909370273862715  0.17808322902826748  1.0000
  H   H32       1.0  0.11259079043998818  0.3865484228932131  0.05114358248101787  1.0000
  H   H33       1.0  0.888952122351711  0.6133763631876477  0.17743833329685532  1.0000
  H   H34       1.0  0.8865300682884086  0.6128393964899529  0.05030496485979107  1.0000
  H   H35       1.0  0.11351290774995708  0.3888654390780957  0.8204577936344534  1.0000
  H   H36       1.0  0.11275469486492547  0.3864208508844698  0.950680204989375  1.0000
  H   H37       1.0  0.11205560076788186  0.8178662977809521  0.17971890147469347  1.0000
  H   H38       1.0  0.8903593383499602  0.8178651417258462  0.17971846777314945  1.0000
  H   H39       1.0  0.8903198773883362  0.1788005619231612  0.8188159263723095  1.0000
  H   H40       1.0  0.11206055847259946  0.17879909375403713  0.8188155370634645  1.0000
  H   H41       1.0  0.32002464592505236  0.3884600858945789  0.613976132610766  1.0000
  H   H42       1.0  0.45014813115725627  0.38604202565530704  0.6131978287564833  1.0000
  H   H43       1.0  0.677673941636691  0.6135619612424036  0.3888921366889093  1.0000
  H   H44       1.0  0.5507405813704696  0.6129949536292896  0.38626780130154964  1.0000
  H   H45       1.0  0.677536283983123  0.38845899973905745  0.6139759386479469  1.0000
  H   H46       1.0  0.5506091613235213  0.3860408057567993  0.6131972050461201  1.0000
  H   H47       1.0  0.31986817799191414  0.6135616243295062  0.3888921274644518  1.0000
  H   H48       1.0  0.4499934628048482  0.612994426248413  0.386267550972761  1.0000
  H   H49       1.0  0.18518713493922676  0.1191513790261567  0.8807235574887142  1.0000
  H   H50       1.0  0.185115894165428  0.8797893114848988  0.12009295601954054  1.0000
  H   H51       1.0  0.8149347758629588  0.11914971947372503  0.8807223482078116  1.0000
  H   H52       1.0  0.8149978827495024  0.8797881942351679  0.12009128969238966  1.0000
  C   C1        1.0  0.7629249717066103  0.5015555440205829  0.7332385865551745  1.0000
  C   C2        1.0  0.0022503302912329393  0.7328592646248137  0.5019391513545912  1.0000
  C   C3        1.0  0.23268680647839107  0.5024342077562595  0.26273461959041816  1.0000
  C   C4        1.0  0.002192037213440325  0.2623254071534831  0.502807553030216  1.0000
  C   C5        1.0  0.0019825838008458332  0.26106761233003073  0.7349638592575616  1.0000
  C   C6        1.0  0.7627942340329174  0.501881289496417  0.5024407773864682  1.0000
  C   C7        1.0  0.0020180039395187224  0.7341383873056201  0.2618223250471132  1.0000
  C   C8        1.0  0.23287945771961222  0.5018797353983117  0.5024422484623017  1.0000
  C   C9        1.0  0.0022781910753908417  0.5015552468597803  0.73323904504376  1.0000
  C   C10       1.0  0.23266989778957756  0.26232297916288155  0.5028103780221045  1.0000
  C   C11       1.0  0.002137912148470026  0.5024345836256073  0.2627351028802067  1.0000
  C   C12       1.0  0.7629466020171236  0.7328588687452323  0.50194046678196  1.0000
  C   C13       1.0  0.3112242535868506  0.5016935996322117  0.18556801376248452  1.0000
  C   C14       1.0  0.6855517078988103  0.5012370881425381  0.8115605098021418  1.0000
  C   C15       1.0  0.349327877360068  0.5641291836871574  0.1487637803770171  1.0000
  C   C16       1.0  0.4228597245573839  0.5630640021513144  0.07703733889933072  1.0000
  C   C17       1.0  0.6486322087734422  0.4375977330081323  0.8496269178559785  1.0000
  C   C18       1.0  0.5768672379708732  0.43694614399063875  0.9231372861874405  1.0000
  C   C19       1.0  0.6491274775604056  0.5638865937901015  0.8490443634276731  1.0000
  C   C20       1.0  0.5773299289748339  0.5629281515794131  0.9225409256437656  1.0000
  C   C21       1.0  0.34887989039930295  0.43789856460873705  0.14920563516525223  1.0000
  C   C22       1.0  0.42244249220447483  0.437131041643724  0.07750657653495106  1.0000
  C   C23       1.0  0.4613620341876656  0.4998149226393238  0.03908045703914821  1.0000
  C   C24       1.0  0.5389216179707718  0.4997160060193481  0.9615461192950931  1.0000
  C   C25       1.0  0.0015880038437006275  0.8112912813991071  0.5014548249228099  1.0000
  C   C26       1.0  0.0014777101889579395  0.1853088596663567  0.50189143574773  1.0000
  C   C27       1.0  0.06406591530626599  0.849365917803304  0.4377648183651459  1.0000
  C   C28       1.0  0.06297728552156216  0.9229248790186089  0.4370119221243983  1.0000
  C   C29       1.0  0.9377210915066951  0.14852255498494338  0.5642735924803617  1.0000
  C   C30       1.0  0.936967640895304  0.07685355205610732  0.5631112722857806  1.0000
  C   C31       1.0  0.06395009036231873  0.14903733010817177  0.4380228908882913  1.0000
  C   C32       1.0  0.06284179806870326  0.07738789214576508  0.4371617911636108  1.0000
  C   C33       1.0  0.9378589251255609  0.8488678949802164  0.5640330790238013  1.0000
  C   C34       1.0  0.9371205144274557  0.9224152439364133  0.562972430804848  1.0000
  C   C35       1.0  0.9997452712733125  0.9613997488023927  0.4997372120794879  1.0000
  C   C36       1.0  0.9996688607796427  0.038944998628572564  0.4998274583189612  1.0000
  C   C37       1.0  0.3113186923599612  0.18530813224451478  0.5018903333913017  1.0000
  C   C38       1.0  0.6856620206852714  0.8112911990919327  0.5014544992554307  1.0000
  C   C39       1.0  0.3489869920423985  0.14903499117176708  0.4380226803695281  1.0000
  C   C40       1.0  0.42260663968236406  0.07738828442102631  0.4371609074186012  1.0000
  C   C41       1.0  0.6492366261362152  0.8488694146032715  0.5640327074870373  1.0000
  C   C42       1.0  0.5774889827894545  0.922415400479913  0.5629732483569542  1.0000
  C   C43       1.0  0.6487987209243329  0.8493651873474948  0.4377655202516666  1.0000
  C   C44       1.0  0.5770817543476314  0.9229231679691876  0.4370134281253186  1.0000
  C   C45       1.0  0.3494800687670292  0.14852123915371607  0.5642731743061092  1.0000
  C   C46       1.0  0.42306424107952256  0.07685562070027178  0.5631099888774286  1.0000
  C   C47       1.0  0.46155725624849697  0.03894546975487157  0.4998271630275823  1.0000
  C   C48       1.0  0.539114626265665  0.9614003660788767  0.4997372041518915  1.0000
  C   C49       1.0  0.0016478831938045813  0.5012380178785563  0.8115594377032025  1.0000
  C   C50       1.0  0.0015080869914499643  0.5016937010834752  0.18556783740568514  1.0000
  C   C51       1.0  0.9379395252310733  0.5638866619319175  0.8490435249648131  1.0000
  C   C52       1.0  0.937199743536681  0.5629300277231907  0.9225398506077626  1.0000
  C   C53       1.0  0.06401164248919154  0.4378991588667063  0.1492060181859358  1.0000
  C   C54       1.0  0.06291564638952009  0.4371302966444261  0.07750859542795042  1.0000
  C   C55       1.0  0.937772581482179  0.5641282389416205  0.14876442799872105  1.0000
  C   C56       1.0  0.9370327692818352  0.5630629209023327  0.07703813602011426  1.0000
  C   C57       1.0  0.06414033581471315  0.43759790980340096  0.84962781587398  1.0000
  C   C58       1.0  0.06304822413801509  0.43694792193078746  0.9231364081700306  1.0000
  C   C59       1.0  0.9998137680746807  0.49971869115994144  0.961546343254696  1.0000
  C   C60       1.0  0.9997379842723363  0.4998132674655337  0.03908197562498842  1.0000
  C   C61       1.0  0.06429861350374501  0.850160183758838  0.1481114452105744  1.0000
  C   C62       1.0  0.06495005789403094  0.9245020242804426  0.07519895376225362  1.0000
  C   C63       1.0  0.12907107733680362  0.9634766536234094  0.036821427660420694  1.0000
  C   C64       1.0  0.9374288018289653  0.8501588208006507  0.14811185262209417  1.0000
  C   C65       1.0  0.9353432575348325  0.9245014983387704  0.07520012166708774  1.0000
  C   C66       1.0  0.8706265095108421  0.9634751154190793  0.03682275310175251  1.0000
  C   C67       1.0  0.9374624117399152  0.14720542031719916  0.8510241774258774  1.0000
  C   C68       1.0  0.9353861128797119  0.07426722865903233  0.9253708423295565  1.0000
  C   C69       1.0  0.8706332095858472  0.03591100305473569  0.9643739794887837  1.0000
  C   C70       1.0  0.06430411447233537  0.14720585003207987  0.8510246453238538  1.0000
  C   C71       1.0  0.06497106776801334  0.07426681408474418  0.9253700551477093  1.0000
  C   C72       1.0  0.1290771440056774  0.03591086087040193  0.9643724079918031  1.0000
  C   C73       1.0  0.0013751909069629235  0.8132507682128604  0.1839970677478249  1.0000
  C   C74       1.0  0.9999733787589312  0.9624772846037074  0.03757042585925763  1.0000
  C   C75       1.0  0.0013765549226008652  0.18315554999757197  0.8140868641135199  1.0000
  C   C76       1.0  4.331318749059113e-06  0.03662176547641853  0.9633651174521488  1.0000
  C   C77       1.0  0.3113486829305004  0.50132332225661  0.5017603846782636  1.0000
  C   C78       1.0  0.685562153792141  0.501324267787794  0.5017605800053104  1.0000
  C   C79       1.0  0.34926795295794505  0.4374165916727363  0.564436096352658  1.0000
  C   C80       1.0  0.4227737165142574  0.4367317128677469  0.5632968736778353  1.0000
  C   C81       1.0  0.6489487216210961  0.5640615233349635  0.43780744724468684  1.0000
  C   C82       1.0  0.5772655672957187  0.5630433437534919  0.4369945356855782  1.0000
  C   C83       1.0  0.6488770783193232  0.4374150459019218  0.5644373207673254  1.0000
  C   C84       1.0  0.5771939168293727  0.43673178918505323  0.5632971704043683  1.0000
  C   C85       1.0  0.3491804735320231  0.5640607464710782  0.4378069894380162  1.0000
  C   C86       1.0  0.42269366360493177  0.5630420942831905  0.4369947584071738  1.0000
  C   C87       1.0  0.4614910713264848  0.4996331442337408  0.49984922059556425  1.0000
  C   C88       1.0  0.5390247230954375  0.49963266848954646  0.4998492906570035  1.0000
  O   O1        1.0  0.7937004338339548  0.4416928527192782  0.7031238100132811  1.0000
  O   O2        1.0  0.06149924933641444  0.7026296781314443  0.4421681461067521  1.0000
  O   O3        1.0  0.202148151737326  0.561942400043108  0.29325386019134203  1.0000
  O   O4        1.0  0.9428100307283956  0.2926755007554647  0.5624733554918109  1.0000
  O   O5        1.0  0.06128889568648093  0.29186709080312306  0.7044288692844773  1.0000
  O   O6        1.0  0.793598356055462  0.5614409526310736  0.4426192811650864  1.0000
  O   O7        1.0  0.9424475492299393  0.7036265618538238  0.29258647177902497  1.0000
  O   O8        1.0  0.20243557828334263  0.4419792452053455  0.5619814748914251  1.0000
  O   O9        1.0  0.942714237515617  0.5608671046150634  0.7024855958055057  1.0000
  O   O10       1.0  0.20209667065297776  0.2934204324137539  0.4430924638858399  1.0000
  O   O11       1.0  0.06134223964249234  0.442703108015806  0.29381717677995317  1.0000
  O   O12       1.0  0.793904021704407  0.7021211000153895  0.5612864378358325  1.0000
  O   O13       1.0  0.20203744066735402  0.29267480116555306  0.5624730578300544  1.0000
  O   O14       1.0  0.9426471150802133  0.5619433604429529  0.2932541766421652  1.0000
  O   O15       1.0  0.7936993556380686  0.7026299381981217  0.44216774583318846  1.0000
  O   O16       1.0  0.06147847479723392  0.441692692889191  0.7031241974145459  1.0000
  O   O17       1.0  0.9424117518418812  0.2918675864546286  0.7044277494576577  1.0000
  O   O18       1.0  0.20233739212106644  0.5614408203175998  0.44261864022792713  1.0000
  O   O19       1.0  0.061333187474588324  0.7036272409916648  0.29258880412616156  1.0000
  O   O20       1.0  0.7936013729086117  0.4419782932535697  0.5619810664070143  1.0000
  O   O21       1.0  0.061382679801369085  0.29342385263258547  0.44309014075231085  1.0000
  O   O22       1.0  0.7939293827539944  0.5608667774562971  0.7024855057817374  1.0000
  O   O23       1.0  0.9426849091848841  0.7021205938741771  0.5612868475516918  1.0000
  O   O24       1.0  0.20213070905460043  0.4427030968525115  0.2938158705687216  1.0000
  O   O25       1.0  0.947902734357733  0.4477280580034773  0.44831450628605296  1.0000
  O   O26       1.0  0.15605153365969945  0.44772767260354823  0.44831310416081743  1.0000
  O   O27       1.0  0.9481020225710003  0.6562590293091972  0.4475327062543429  1.0000
  O   O28       1.0  0.9481030175667583  0.44692678738986996  0.656863876566483  1.0000
  O   O29       1.0  0.03848756977074437  0.5379306033089009  0.538540035048065  1.0000
  O   O30       1.0  0.8850368190762057  0.5379310433204125  0.538540902299367  1.0000
  O   O31       1.0  0.03830928843937198  0.5386334670827537  0.3847428617241063  1.0000
  O   O32       1.0  0.03829876464214286  0.3842250821968633  0.5391741716616564  1.0000
  O   O33       1.0  0.1925217612932215  0.0689330593642765  0.9315593227404406  1.0000
  O   O34       1.0  0.19250779259813589  0.9306175161458153  0.06986980011911466  1.0000
  O   O35       1.0  0.8069831777694888  0.0689316377715556  0.9315577928075028  1.0000
  O   O36       1.0  0.8070016968406222  0.9306151334391258  0.06986683187089698  1.0000
