data_image0
_chemical_formula_structural       Cd2H20C30O12
_chemical_formula_sum              "Cd2 H20 C30 O12"
_cell_length_a       6.398331550072836
_cell_length_b       7.0985432173239165
_cell_length_c       14.821938671607992
_cell_angle_alpha    102.94754242556006
_cell_angle_beta     89.92490359618517
_cell_angle_gamma    90.08258482848234

_space_group_name_H-M_alt    "P 1"
_space_group_IT_number       1

loop_
  _space_group_symop_operation_xyz
  'x, y, z'

loop_
  _atom_site_type_symbol
  _atom_site_label
  _atom_site_symmetry_multiplicity
  _atom_site_fract_x
  _atom_site_fract_y
  _atom_site_fract_z
  _atom_site_occupancy
  Cd  Cd1       1.0  0.6699145992501413  0.7505620140947685  0.5000301194161381  1.0000
  Cd  Cd2       1.0  0.3301135474645349  0.24947099663605607  0.49996596070707255  1.0000
  H   H1        1.0  0.5859880775306436  0.5950482329964331  0.9670450458387165  1.0000
  H   H2        1.0  0.5864729601507578  0.9045112815651564  0.03278447345451949  1.0000
  H   H3        1.0  0.41400716658046827  0.4049095150795806  0.032959075816371794  1.0000
  H   H4        1.0  0.4135348293360365  0.0954783311797129  0.9672116298934127  1.0000
  H   H5        1.0  0.964252359446064  0.6440594024871872  0.6797071042846168  1.0000
  H   H6        1.0  0.9628952147905138  0.8563114722356316  0.3202660378731962  1.0000
  H   H7        1.0  0.035777268432021  0.3559315324924555  0.32031544916399207  1.0000
  H   H8        1.0  0.0370578491619327  0.14368669570234976  0.6797492234574277  1.0000
  H   H9        1.0  0.4171007678298153  0.48248308760128816  0.8143981920509161  1.0000
  H   H10       1.0  0.41700088927824197  0.017406304318143398  0.18541451675809376  1.0000
  H   H11       1.0  0.5829038981224244  0.51750508846807  0.18559573232432308  1.0000
  H   H12       1.0  0.5829803350282674  0.9825876359840963  0.814581387964651  1.0000
  H   H13       1.0  0.1349406614497184  0.7577256925617347  0.8335549981255352  1.0000
  H   H14       1.0  0.1340909280173577  0.7422190603244657  0.16642743963461018  1.0000
  H   H15       1.0  0.8650780153485087  0.24225510867059097  0.1664684835934551  1.0000
  H   H16       1.0  0.8658933704602205  0.25775885792753434  0.8335910157231154  1.0000
  H   H17       1.0  0.1123510561266414  0.8525357082731374  0.5339861587854385  1.0000
  H   H18       1.0  0.11220454199872881  0.6492739816125095  0.4643701625786463  1.0000
  H   H19       1.0  0.8876662560363329  0.14752214089102725  0.46595931737005697  1.0000
  H   H20       1.0  0.8878002579907117  0.3507838343871087  0.535580710651935  1.0000
  C   C1        1.0  0.6798371023973288  0.5559987706626899  0.7377640870087987  1.0000
  C   C2        1.0  0.6790746348240049  0.9441112109890993  0.2620814103185011  1.0000
  C   C3        1.0  0.32016286212049044  0.4439734994515447  0.2622287888895015  1.0000
  C   C4        1.0  0.32090189261646174  0.05591875828122281  0.7379393165558594  1.0000
  C   C5        1.0  0.5774310521436945  0.48219549485811797  0.6464878452165193  1.0000
  C   C6        1.0  0.5761062486437042  0.0182877126389798  0.35322194744369984  1.0000
  C   C7        1.0  0.42259393713192145  0.517821552492819  0.35351864932309945  1.0000
  C   C8        1.0  0.4238828136900211  0.9817308216740771  0.6467732481089499  1.0000
  C   C9        1.0  0.8825864619321281  0.6338774968511915  0.7429894064723184  1.0000
  C   C10       1.0  0.8816169044122049  0.8663038791477433  0.2569501850244151  1.0000
  C   C11       1.0  0.11740411330288938  0.36611203950726434  0.2570201866177229  1.0000
  C   C12       1.0  0.11832992295304477  0.13370731237824174  0.7430631164338095  1.0000
  C   C13       1.0  0.6688108617206793  0.6092690276881213  0.9048371976323749  1.0000
  C   C14       1.0  0.6688574908940339  0.8904767536564222  0.0950141393742285  1.0000
  C   C15       1.0  0.3312015892644027  0.39070608105078025  0.0951674522802222  1.0000
  C   C16       1.0  0.33115339097473395  0.10948679730076087  0.9049879086035444  1.0000
  C   C17       1.0  0.8713973780297478  0.6877020189980956  0.9105510679465281  1.0000
  C   C18       1.0  0.8711921448816184  0.8119879153957401  0.08935435269334849  1.0000
  C   C19       1.0  0.1286306569577391  0.31225997814728856  0.08947374616632688  1.0000
  C   C20       1.0  0.1288218825390643  0.18798290891506042  0.910639712167544  1.0000
  C   C21       1.0  0.9772507891270336  0.6983386050381813  0.8285516901913537  1.0000
  C   C22       1.0  0.9765565150592507  0.8015761995750879  0.17138465121506388  1.0000
  C   C23       1.0  0.022753841164295397  0.30165090363948377  0.17146464302404493  1.0000
  C   C24       1.0  0.0234403010962012  0.19840321101099082  0.8286258665451738  1.0000
  C   C25       1.0  0.5737802807954394  0.5439854728507142  0.8191453663647507  1.0000
  C   C26       1.0  0.5735260712311006  0.9559326228957019  0.18068907897207245  1.0000
  C   C27       1.0  0.42624001208135814  0.4560012615607791  0.18084907233868816  1.0000
  C   C28       1.0  0.4264520019606124  0.04405402695005731  0.8193181804030301  1.0000
  C   C29       1.0  0.9865023047260094  0.7497609937185248  0.9999469676077978  1.0000
  C   C30       1.0  0.013505428018987702  0.2502010418899658  6.841046047869993e-05  1.0000
  O   O1        1.0  0.679173341575762  0.4800286976612469  0.5711342234523328  1.0000
  O   O2        1.0  0.6772505835792445  0.021675737548051202  0.4287274642176015  1.0000
  O   O3        1.0  0.3208266577845648  0.5200172341521707  0.42887810767212636  1.0000
  O   O4        1.0  0.3226931570839611  0.97835864873516  0.571274859049133  1.0000
  O   O5        1.0  0.39142967281875235  0.41789318900977435  0.6450374028720489  1.0000
  O   O6        1.0  0.3900101245094661  0.08185751032225141  0.3545027260482527  1.0000
  O   O7        1.0  0.6085922111331996  0.5821123819282192  0.35495030668973016  1.0000
  O   O8        1.0  0.6099726664540981  0.9181537491871979  0.6455004532758507  1.0000
  O   O9        1.0  0.18031213813064542  0.7496468897232591  0.9999219960659785  1.0000
  O   O10       1.0  0.8196940319978836  0.2503079348269281  8.922726415509502e-05  1.0000
  O   O11       1.0  0.0171746598449047  0.752583598455182  0.497846251434133  1.0000
  O   O12       1.0  0.9828333805589436  0.2475293766877513  0.5020653973940838  1.0000
