data_image0
_chemical_formula_structural       Cu2H16C12N4Cl4
_chemical_formula_sum              "Cu2 H16 C12 N4 Cl4"
_cell_length_a       6.004582587608691
_cell_length_b       6.714146004592667
_cell_length_c       10.595078404585372
_cell_angle_alpha    90.00109474741595
_cell_angle_beta     89.9994799524804
_cell_angle_gamma    104.53615029952536

_space_group_name_H-M_alt    "P 1"
_space_group_IT_number       1

loop_
  _space_group_symop_operation_xyz
  'x, y, z'

loop_
  _atom_site_type_symbol
  _atom_site_label
  _atom_site_symmetry_multiplicity
  _atom_site_fract_x
  _atom_site_fract_y
  _atom_site_fract_z
  _atom_site_occupancy
  Cu  Cu1       1.0  0.9999940173070172  0.9999840181256874  0.9999971625737276  1.0000
  Cu  Cu2       1.0  0.5000128838691537  2.265511626120017e-05  0.4999929923535191  1.0000
  H   H1        1.0  0.4268072605932928  0.2727733007471329  0.0815730722274495  1.0000
  H   H2        1.0  0.073191251444115  0.7272398332351104  0.581575714445016  1.0000
  H   H3        1.0  0.5731612546975384  0.7272033033363672  0.9184325848878673  1.0000
  H   H4        1.0  0.9268486519817642  0.2727868659390253  0.41844032492278427  1.0000
  H   H5        1.0  0.2618348259473606  0.26408968012822953  0.2196224948936703  1.0000
  H   H6        1.0  0.238171075022649  0.7359215434053683  0.7196063629335044  1.0000
  H   H7        1.0  0.7381309768546627  0.735894676288943  0.7803888252788056  1.0000
  H   H8        1.0  0.761875459771119  0.2640880925488958  0.2803889119634562  1.0000
  H   H9        1.0  0.47014850262922897  0.4977692867651913  0.178958084746057  1.0000
  H   H10       1.0  0.02984586444824093  0.5022685837349741  0.6789594353782604  1.0000
  H   H11       1.0  0.529819866495771  0.5022181266356327  0.8210428532570404  1.0000
  H   H12       1.0  0.9702150227112156  0.4977841107501959  0.3210320643776043  1.0000
  H   H13       1.0  0.7172984235120622  0.2417442450845613  0.8841626446178951  1.0000
  H   H14       1.0  0.7827228500721403  0.7582771296357365  0.3841463555340638  1.0000
  H   H15       1.0  0.2826485086545959  0.758215633995974  0.1158316864530775  1.0000
  H   H16       1.0  0.2173688252969939  0.24179526691781217  0.6158224922162177  1.0000
  C   C1        1.0  0.3413738743672141  0.3654467020473718  0.14130250148037501  1.0000
  C   C2        1.0  0.15860514756830213  0.634565461469066  0.6413045800973906  1.0000
  C   C3        1.0  0.6585821166157615  0.6345269640125296  0.8586908858064533  1.0000
  C   C4        1.0  0.8414320360438977  0.3654520063343938  0.3586944702071193  1.0000
  C   C5        1.0  0.8441807911308814  0.35838004207209206  0.9355358366422878  1.0000
  C   C6        1.0  0.6558217837240505  0.6416200181039997  0.4355378583802718  1.0000
  C   C7        1.0  0.15578304488088432  0.6415919862329815  0.0644698204610776  1.0000
  C   C8        1.0  0.3441882455740382  0.35840703894965026  0.5644734619020966  1.0000
  C   C9        1.0  0.16449726809930354  0.43551561140851197  0.06763711142768611  1.0000
  C   C10       1.0  0.33548894210471764  0.5644833347761207  0.5676326932122038  1.0000
  C   C11       1.0  0.8354935834011314  0.5644746205785509  0.9323685456993546  1.0000
  C   C12       1.0  0.6645002497470713  0.43550691694813554  0.43236352557515534  1.0000
  N   N1        1.0  0.004893934231049  0.29690755464098834  0.001749604979679  1.0000
  N   N2        1.0  0.4950782917921757  0.7030632338178507  0.5017439212801023  1.0000
  N   N3        1.0  0.9950895181378878  0.703068870420722  0.9982532205888718  1.0000
  N   N4        1.0  0.5049160252333849  0.2969161490195589  0.49826267961171317  1.0000
  Cl  Cl1       1.0  0.28798660442402013  0.06378170070763642  0.8551154333818545  1.0000
  Cl  Cl2       1.0  0.21204103698334362  0.9362366239100766  0.35510811559142047  1.0000
  Cl  Cl3       1.0  0.7120111781421841  0.9361868328906128  0.144886448268025  1.0000
  Cl  Cl4       1.0  0.78796069396558  0.06379053244102552  0.6448947102050084  1.0000
