data_image0
_chemical_formula_structural       Cd2H28C28N4O16
_chemical_formula_sum              "Cd2 H28 C28 N4 O16"
_cell_length_a       10.017939881905802
_cell_length_b       10.00750922409314
_cell_length_c       11.05983665910733
_cell_angle_alpha    73.0203315827366
_cell_angle_beta     85.75640633295232
_cell_angle_gamma    65.61846361651426

_space_group_name_H-M_alt    "P 1"
_space_group_IT_number       1

loop_
  _space_group_symop_operation_xyz
  'x, y, z'

loop_
  _atom_site_type_symbol
  _atom_site_label
  _atom_site_symmetry_multiplicity
  _atom_site_fract_x
  _atom_site_fract_y
  _atom_site_fract_z
  _atom_site_occupancy
  Cd  Cd1       1.0  0.16483829580202783  0.18555865362138488  0.027554039970453928  1.0000
  Cd  Cd2       1.0  0.8351545127771729  0.814448707846445  0.9724473983440304  1.0000
  H   H1        1.0  0.1064195101416701  0.43113439234036827  0.14519554107905464  1.0000
  H   H2        1.0  0.8935779418410164  0.5688682114292971  0.8548070862968017  1.0000
  H   H3        1.0  0.230978697341243  0.27173502729549165  0.2171050767798874  1.0000
  H   H4        1.0  0.7690194591621734  0.7282685231942521  0.7828954089744753  1.0000
  H   H5        1.0  0.3446206274109541  0.9597510253770737  0.9083288145630419  1.0000
  H   H6        1.0  0.6553741811385265  0.04025056047336049  0.09167337044327438  1.0000
  H   H7        1.0  0.18926027822071492  0.95342806919556  0.9209032914292619  1.0000
  H   H8        1.0  0.8107286880658718  0.04657556871248401  0.07910675283999072  1.0000
  H   H9        1.0  0.18659122226918612  0.3806178100427999  0.6754644092659845  1.0000
  H   H10       1.0  0.8134112261932529  0.6193736616381642  0.32453046872902996  1.0000
  H   H11       1.0  0.1734954204071926  0.2934909179343492  0.559427735670688  1.0000
  H   H12       1.0  0.8265023393176564  0.7065049608716263  0.4405769318444186  1.0000
  H   H13       1.0  0.07843075024582906  0.4737828928306484  0.33684132361850766  1.0000
  H   H14       1.0  0.9215707835138289  0.5262084443306208  0.6631509309166713  1.0000
  H   H15       1.0  0.04262767205416653  0.6695420208340082  0.30717642473950957  1.0000
  H   H16       1.0  0.9573786866505856  0.3304407136805949  0.6928272422223856  1.0000
  H   H17       1.0  0.9859142617807641  0.8667487089837633  0.42203571817521635  1.0000
  H   H18       1.0  0.014086162155905428  0.13325431918439523  0.5779593627842913  1.0000
  H   H19       1.0  0.9851422830376464  0.09537075610441555  0.2518329912912236  1.0000
  H   H20       1.0  0.014862277355192193  0.9046372512379435  0.7481711971022663  1.0000
  H   H21       1.0  0.4282041549297375  0.8756934070566371  0.20229848285534766  1.0000
  H   H22       1.0  0.5718055875694147  0.1243084368664285  0.797703670894961  1.0000
  H   H23       1.0  0.4498874866125321  0.6368726825550935  0.37249111722425704  1.0000
  H   H24       1.0  0.5501237624881768  0.3631251420448436  0.6275040283409722  1.0000
  H   H25       1.0  0.3773239990810567  0.5777886337871434  0.7763208406151207  1.0000
  H   H26       1.0  0.6226757489753466  0.4222164804090411  0.22367092368186556  1.0000
  H   H27       1.0  0.6420885183258634  0.5974779199514371  0.768295161825222  1.0000
  H   H28       1.0  0.3579085123227799  0.402522793004252  0.23171259696771068  1.0000
  C   C1        1.0  0.1231743711775054  0.3975513916124952  0.591421091530499  1.0000
  C   C2        1.0  0.8768303160777365  0.6024365249987793  0.4085738399536609  1.0000
  C   C3        1.0  0.036308777490134655  0.5704168161535604  0.37795980938908247  1.0000
  C   C4        1.0  0.9637015084586621  0.4295752249503906  0.6220335383457325  1.0000
  C   C5        1.0  0.22610986194830932  0.5863593749707616  0.5037641354056674  1.0000
  C   C6        1.0  0.7739216045453787  0.4136147192064712  0.4962352985870878  1.0000
  C   C7        1.0  0.2170414795785477  0.7303177612532961  0.4056253924143718  1.0000
  C   C8        1.0  0.7829739352806231  0.26967086455304917  0.5943723286176024  1.0000
  C   C9        1.0  0.08648933912422062  0.8631876514353819  0.3752343728065597  1.0000
  C   C10       1.0  0.913518241363633  0.13680570335112208  0.6247750314376573  1.0000
  C   C11       1.0  0.08517897108794163  0.9910950267572717  0.2812408406555207  1.0000
  C   C12       1.0  0.914823224973382  0.008902204954068805  0.7187704037916801  1.0000
  C   C13       1.0  0.3330245577692637  0.8676340680797521  0.25319702564500807  1.0000
  C   C14       1.0  0.6669828285683223  0.1323746274480939  0.746803166903639  1.0000
  C   C15       1.0  0.3443687167518308  0.7353684543505208  0.3474006294928316  1.0000
  C   C16       1.0  0.6556431836736608  0.2646330650911963  0.6525987823912445  1.0000
  C   C17       1.0  0.49402053932109186  0.361832196276751  0.9226949712848125  1.0000
  C   C18       1.0  0.5059675251794716  0.6381805372494043  0.07729784995832745  1.0000
  C   C19       1.0  0.47650389678517513  0.4980463060919432  0.8338745948173948  1.0000
  C   C20       1.0  0.5234859971209573  0.5019666964736018  0.16612347334542224  1.0000
  C   C21       1.0  0.614773924036882  0.5067722515745386  0.8293930107744031  1.0000
  C   C22       1.0  0.3852139293116893  0.4932377789372564  0.17060970696714156  1.0000
  C   C23       1.0  0.708934842477369  0.3754766846232015  0.915823566619103  1.0000
  C   C24       1.0  0.2910508450830208  0.6245367690647826  0.08417732234753565  1.0000
  C   C25       1.0  0.39915015833959444  0.2795802554009157  0.970813108530578  1.0000
  C   C26       1.0  0.6008437474539223  0.7204269108528719  0.029186515029351844  1.0000
  C   C27       1.0  0.8643339111228984  0.3070634359241281  0.9574821056533267  1.0000
  C   C28       1.0  0.13565679272591072  0.6929415019033555  0.042515666587043206  1.0000
  N   N1        1.0  0.20508328994828431  0.991489653714154  0.21784973678878572  1.0000
  N   N2        1.0  0.7949203271013162  0.008515186360405385  0.7821572864288837  1.0000
  N   N3        1.0  0.12766516123460298  0.5287138408329142  0.491716318874836  1.0000
  N   N4        1.0  0.8723375213035355  0.4712882484937565  0.5082834482284112  1.0000
  O   O1        1.0  0.27049812657428873  0.34138839638745816  0.9174760122234102  1.0000
  O   O2        1.0  0.7294930064704204  0.6586153335591474  0.08252119924102176  1.0000
  O   O3        1.0  0.44921255005407795  0.1549177783382731  0.0603113627414444  1.0000
  O   O4        1.0  0.5507871860555014  0.8450816209348558  0.9396803395420933  1.0000
  O   O5        1.0  0.6348950774749582  0.28795318230454814  0.9728555034585752  1.0000
  O   O6        1.0  0.3650903268987591  0.7120612154773197  0.027142395712480998  1.0000
  O   O7        1.0  0.9417920862159831  0.3844641992242258  0.9177668206158528  1.0000
  O   O8        1.0  0.05820332617908283  0.61553894770644  0.08222579475900466  1.0000
  O   O9        1.0  0.9183159861538003  0.17058123892176977  0.03051031272186578  1.0000
  O   O10       1.0  0.08166909444596376  0.8294253552828437  0.9694899929241811  1.0000
  O   O11       1.0  0.31994346620162173  0.5273485841092691  0.5930038107116999  1.0000
  O   O12       1.0  0.6800782286400349  0.47261647234784476  0.40698898723929483  1.0000
  O   O13       1.0  0.12793577027226635  0.32016070654634626  0.18832377277043114  1.0000
  O   O14       1.0  0.872062240221922  0.6798431077303917  0.8116802635554449  1.0000
  O   O15       1.0  0.23752672841673222  0.025674249333675906  0.8957148963530697  1.0000
  O   O16       1.0  0.76246588570411  0.9743277269448493  0.10429091816234867  1.0000
