data_image0
_chemical_formula_structural       Zn8H80C120N32
_chemical_formula_sum              "Zn8 H80 C120 N32"
_cell_length_a       17.358396484551356
_cell_length_b       18.02682856362692
_cell_length_c       19.398698931268516
_cell_angle_alpha    98.13443908901144
_cell_angle_beta     89.98889102700467
_cell_angle_gamma    89.92344869906208

_space_group_name_H-M_alt    "P 1"
_space_group_IT_number       1

loop_
  _space_group_symop_operation_xyz
  'x, y, z'

loop_
  _atom_site_type_symbol
  _atom_site_label
  _atom_site_symmetry_multiplicity
  _atom_site_fract_x
  _atom_site_fract_y
  _atom_site_fract_z
  _atom_site_occupancy
  Zn  Zn1       1.0  0.0500952695364916  0.024096124004337617  0.39133559922782274  1.0000
  Zn  Zn2       1.0  0.9499090657350209  0.9758937925614647  0.6086571816595024  1.0000
  Zn  Zn3       1.0  0.4498343686291832  0.5235090869438253  0.890096230560559  1.0000
  Zn  Zn4       1.0  0.5501544273379011  0.4765103386436922  0.1099006824673552  1.0000
  Zn  Zn5       1.0  0.8963863934966908  0.07870831617670863  0.5217565733093041  1.0000
  Zn  Zn6       1.0  0.1036133322620927  0.9212771110994352  0.4782466335964984  1.0000
  Zn  Zn7       1.0  0.39857110397663575  0.420295588375872  0.9776234097758731  1.0000
  Zn  Zn8       1.0  0.6014228675225225  0.579706782433604  0.022367275060055602  1.0000
  H   H1        1.0  0.9568925913640384  0.8939945269903689  0.3096098197963927  1.0000
  H   H2        1.0  0.9816821133912796  0.6260295411719455  0.8137837176186766  1.0000
  H   H3        1.0  0.6981075805872764  0.9481034146890649  0.8958573645485473  1.0000
  H   H4        1.0  0.3019094406739384  0.051906550396978404  0.1041504852918536  1.0000
  H   H5        1.0  0.1973185824142476  0.549563545034573  0.6035598401378836  1.0000
  H   H6        1.0  0.8026719272143624  0.45042427777526944  0.3964444098456142  1.0000
  H   H7        1.0  0.5191602567860726  0.12398512835389405  0.31358124816179617  1.0000
  H   H8        1.0  0.48080494152696923  0.8760673731928109  0.6864572975223524  1.0000
  H   H9        1.0  0.9439148719717071  0.8145277099689708  0.6652380779126406  1.0000
  H   H10       1.0  0.056064114861435095  0.1854626407266693  0.33475002800292947  1.0000
  H   H11       1.0  0.19867050176087991  0.1017127438897703  0.331549632300174  1.0000
  H   H12       1.0  0.0431151930335574  0.10597253560597149  0.6904111185664733  1.0000
  H   H13       1.0  0.8013234600010081  0.8982683243465458  0.6684468128751321  1.0000
  H   H14       1.0  0.6988081285512777  0.3970774489083837  0.167143180147022  1.0000
  H   H15       1.0  0.3011812354393513  0.602926520406932  0.8328506299131108  1.0000
  H   H16       1.0  0.4477054312330679  0.6832173977050715  0.8293093541036498  1.0000
  H   H17       1.0  0.5522810655779864  0.3168079244463655  0.17070421888247725  1.0000
  H   H18       1.0  0.68914120236672  0.08019139150036383  0.5843502931921521  1.0000
  H   H19       1.0  0.31085794648784326  0.9197916645410444  0.41565552172961867  1.0000
  H   H20       1.0  0.8733650160653426  0.2400965865562199  0.4848140734529309  1.0000
  H   H21       1.0  0.12663874517910048  0.7598944595594902  0.515189644020353  1.0000
  H   H22       1.0  0.3812533160857754  0.2574356839918935  0.010581545462365201  1.0000
  H   H23       1.0  0.8728067886854803  0.08749440950276013  0.7733336964413555  1.0000
  H   H24       1.0  0.6187429630205871  0.7425675899572468  0.9894294501358304  1.0000
  H   H25       1.0  0.1898395548906251  0.4193485907846935  0.9147290694979732  1.0000
  H   H26       1.0  0.8101670825937362  0.5806379875171075  0.08526006905212571  1.0000
  H   H27       1.0  0.22386071451931144  0.6697311618074194  0.3135392232325742  1.0000
  H   H28       1.0  0.7761539965146511  0.3302763709011955  0.6864347758759167  1.0000
  H   H29       1.0  0.21766879058887406  0.2571935761268165  0.5889388815858184  1.0000
  H   H30       1.0  0.7823476305434767  0.7427704988043403  0.41105913901508023  1.0000
  H   H31       1.0  0.7241101972401937  0.2480572553710658  0.912487768966173  1.0000
  H   H32       1.0  0.2758831992736432  0.7519512715736171  0.08748884418365321  1.0000
  H   H33       1.0  0.7216804160025704  0.8309287844814861  0.1892377296863827  1.0000
  H   H34       1.0  0.1271952602246955  0.9125299096351682  0.22666632762426536  1.0000
  H   H35       1.0  0.2783250765963814  0.16906733650298386  0.8107701463321535  1.0000
  H   H36       1.0  0.371331748835118  0.7040819178463309  0.26387020284114027  1.0000
  H   H37       1.0  0.6286720165725654  0.2959271319236265  0.7360991121422702  1.0000
  H   H38       1.0  0.3681424704394018  0.22540009771277877  0.6349159917953173  1.0000
  H   H39       1.0  0.6318716477692803  0.774565731815251  0.3650861942972483  1.0000
  H   H40       1.0  0.872440212527721  0.2803632604779552  0.8620030058584974  1.0000
  H   H41       1.0  0.1275497296006094  0.719647898362048  0.13797985552882613  1.0000
  H   H42       1.0  0.8713095633669994  0.797039873541962  0.2344938210011094  1.0000
  H   H43       1.0  0.1287103333543627  0.2029604175604476  0.7655124788181595  1.0000
  H   H44       1.0  0.021630387553230396  0.2990296802912269  0.28550543794297323  1.0000
  H   H45       1.0  0.3722486109487804  0.4138688112186983  0.7264326786359449  1.0000
  H   H46       1.0  0.97836761387331  0.7009643032267193  0.7144956740269139  1.0000
  H   H47       1.0  0.7264489171266745  0.9903451155306799  0.7815412339682126  1.0000
  H   H48       1.0  0.2735462072293444  0.009652380457218602  0.2184718540452906  1.0000
  H   H49       1.0  0.22633481372648134  0.5087055779625872  0.7185995318740767  1.0000
  H   H50       1.0  0.7736539676733971  0.4912833507810107  0.28140107143755705  1.0000
  H   H51       1.0  0.5233668472614071  0.1993013041738507  0.21452463882309303  1.0000
  H   H52       1.0  0.4765994942831356  0.8007297452610446  0.7855259170535263  1.0000
  H   H53       1.0  0.8632668413373709  0.354232454212621  0.45671135819075204  1.0000
  H   H54       1.0  0.13672366227984156  0.6457463954810195  0.5432814460524398  1.0000
  H   H55       1.0  0.5644704184894422  0.943796806431749  0.6131177645579982  1.0000
  H   H56       1.0  0.6277453604045888  0.5861316681916834  0.27356373833671915  1.0000
  H   H57       1.0  0.43552298111450233  0.05620679979388401  0.3868989614621157  1.0000
  H   H58       1.0  0.06527638810229061  0.5582983621818514  0.8874469363706723  1.0000
  H   H59       1.0  0.9347210461651871  0.44170919906842715  0.11257030263429611  1.0000
  H   H60       1.0  0.3631019606868691  0.14802276509933426  0.04446592933986441  1.0000
  H   H61       1.0  0.6369288854374702  0.8519840875729584  0.9555434803064174  1.0000
  H   H62       1.0  0.13942828415399328  0.7635794916935836  0.38290575747502237  1.0000
  H   H63       1.0  0.8605927553808215  0.23641083669834018  0.6170682632945913  1.0000
  H   H64       1.0  0.20889118162337184  0.0649831557487772  0.523805591963118  1.0000
  H   H65       1.0  0.7911056697284877  0.9350130611505564  0.4762028093175276  1.0000
  H   H66       1.0  0.7129272853149757  0.44250661814822223  0.9729260455056519  1.0000
  H   H67       1.0  0.45771823474058243  0.6095947929786051  0.18809759023316272  1.0000
  H   H68       1.0  0.2870707157268058  0.557491375752079  0.027057872471409904  1.0000
  H   H69       1.0  0.6407211360924735  0.7363224092287269  0.1185394954474859  1.0000
  H   H70       1.0  0.35931373777597736  0.2636755559764126  0.881466279014461  1.0000
  H   H71       1.0  0.6896183480871726  0.1644829704555519  0.7806820988191917  1.0000
  H   H72       1.0  0.3103831147477223  0.835526657412757  0.21929815446097217  1.0000
  H   H73       1.0  0.6887216895053712  0.9091169232468134  0.3229263779917559  1.0000
  H   H74       1.0  0.3112912780460704  0.09084821920136933  0.6770893518969531  1.0000
  H   H75       1.0  0.1885389265940205  0.5876320569810363  0.1821360293252638  1.0000
  H   H76       1.0  0.8114561992531861  0.4123768739788289  0.8178468325702042  1.0000
  H   H77       1.0  0.18566137607238892  0.33684762690388237  0.722896264465284  1.0000
  H   H78       1.0  0.5422826646695994  0.3904400336080442  0.8118841892993488  1.0000
  H   H79       1.0  0.8143562080745212  0.6631399669180595  0.27709599196973766  1.0000
  H   H80       1.0  0.018317628510004604  0.3739860880753767  0.1862282999162659  1.0000
  C   C1        1.0  0.9243716748143527  0.9136401337492758  0.3562606258188481  1.0000
  C   C2        1.0  0.6830555015054786  0.29258278010201627  0.7641691474152738  1.0000
  C   C3        1.0  0.7681541111064121  0.7617044987360515  0.3613658218106721  1.0000
  C   C4        1.0  0.7363624379433986  0.26554276570373503  0.8617852029475517  1.0000
  C   C5        1.0  0.2636309630319431  0.7344729038170215  0.13819817092051784  1.0000
  C   C6        1.0  0.7351722799806525  0.8109570948917479  0.23864332899189125  1.0000
  C   C7        1.0  0.2648424260679363  0.18903077034771343  0.7613650750238464  1.0000
  C   C8        1.0  0.7162612687907812  0.2200875389495067  0.7892277424625365  1.0000
  C   C9        1.0  0.2837367391365434  0.7799261313264267  0.21074990249596942  1.0000
  C   C10       1.0  0.7161759824287373  0.8539450760839175  0.3124854161109454  1.0000
  C   C11       1.0  0.2838415956372272  0.1460252769840977  0.6875245743929385  1.0000
  C   C12       1.0  0.21518354730414302  0.6432109111748973  0.1905686842059637  1.0000
  C   C13       1.0  0.31459951471887143  0.21993095279857042  0.6636865651833619  1.0000
  C   C14       1.0  0.7848115763422501  0.35679429141614355  0.8094115788388834  1.0000
  C   C15       1.0  0.21307531461950188  0.2816263683229323  0.712429352922527  1.0000
  C   C16       1.0  0.786942844812785  0.7183581436910274  0.28756811622206874  1.0000
  C   C17       1.0  0.7984918772901892  0.23845496823314255  0.7604884408016945  1.0000
  C   C18       1.0  0.2015049762207255  0.7615531645249405  0.2394928587833363  1.0000
  C   C19       1.0  0.8000248501857712  0.8363499409852082  0.3376902211745191  1.0000
  C   C20       1.0  0.1999886968651126  0.16362587248348603  0.6623119507154983  1.0000
  C   C21       1.0  0.2978323621583669  0.6611901641019601  0.1629631036654047  1.0000
  C   C22       1.0  0.7021535436966603  0.3388155233348514  0.8370129966980073  1.0000
  C   C23       1.0  0.2965495948195596  0.2634712097419155  0.738712814656438  1.0000
  C   C24       1.0  0.6854169141804435  0.780045503026422  0.3363234170601713  1.0000
  C   C25       1.0  0.7034702931324475  0.7365113340013493  0.2612935109481  1.0000
  C   C26       1.0  0.8179003515100902  0.2842509705524919  0.8343114449672413  1.0000
  C   C27       1.0  0.1820918961794931  0.7157631911216101  0.1656693274303862  1.0000
  C   C28       1.0  0.8178879581249775  0.7922263411891352  0.26360766234923017  1.0000
  C   C29       1.0  0.1821273194413493  0.2077543002753117  0.7363934599095288  1.0000
  C   C30       1.0  0.9435467101088689  0.3155056125566844  0.3728429398079954  1.0000
  C   C31       1.0  0.056442068799214005  0.6844804501550213  0.6271498548649391  1.0000
  C   C32       1.0  0.6538932100978059  0.9678305237229808  0.6914664382189316  1.0000
  C   C33       1.0  0.075625744475154  0.08633842131717981  0.6437519676477664  1.0000
  C   C34       1.0  0.34610882875810495  0.032170835456469114  0.30854299456872525  1.0000
  C   C35       1.0  0.15417666196734814  0.5328226966182045  0.8087820180741544  1.0000
  C   C36       1.0  0.8458138562763651  0.46718169062265247  0.1912253329638673  1.0000
  C   C37       1.0  0.44450788634101474  0.184696367153343  0.1277756541491613  1.0000
  C   C38       1.0  0.5554745870670743  0.8153409682293501  0.8722618627670898  1.0000
  C   C39       1.0  0.1495073199611383  0.5829747621854297  0.6278139735919411  1.0000
  C   C40       1.0  0.8504837671367157  0.41701512412718245  0.37219287735786827  1.0000
  C   C41       1.0  0.4653633703390341  0.09883558368451872  0.29257704766644116  1.0000
  C   C42       1.0  0.5346237035383724  0.9011879390237071  0.7074500698224  1.0000
  C   C43       1.0  0.9647311544022655  0.3997719549656296  0.2072482693140714  1.0000
  C   C44       1.0  0.8769343075264758  0.11515620752972924  0.7271473621618086  1.0000
  C   C45       1.0  0.035255330000048005  0.6002301410655021  0.792758566321723  1.0000
  C   C46       1.0  0.6497138341940385  0.9156368947971387  0.8716988474266855  1.0000
  C   C47       1.0  0.35028245606216757  0.0843869123952388  0.12831941028786534  1.0000
  C   C48       1.0  0.11580162010905334  0.6370199756278295  0.5945123302777305  1.0000
  C   C49       1.0  0.884193497079508  0.3629666429855548  0.4054877522016298  1.0000
  C   C50       1.0  0.41899488354412284  0.060550945577929824  0.33332687372397635  1.0000
  C   C51       1.0  0.5809990894444398  0.9394489247981215  0.6666836071785626  1.0000
  C   C52       1.0  0.9184116882785887  0.4379567719570262  0.1663025687418838  1.0000
  C   C53       1.0  0.08157364489297689  0.5620456531971811  0.8337099964108248  1.0000
  C   C54       1.0  0.6155583410314024  0.8617315032541627  0.9047651591125715  1.0000
  C   C55       1.0  0.12306370160773382  0.8848551161787628  0.2728474743721634  1.0000
  C   C56       1.0  0.3844448625510921  0.1382910346782324  0.0952593470499608  1.0000
  C   C57       1.0  0.0254749150572451  0.6673217912340591  0.6891096282897636  1.0000
  C   C58       1.0  0.9745196287642415  0.3326717914221149  0.3108852358394927  1.0000
  C   C59       1.0  0.32785827815514784  0.03407301039653281  0.23906380538510774  1.0000
  C   C60       1.0  0.6721397297280376  0.9659302668288063  0.7609508352733698  1.0000
  C   C61       1.0  0.8277970880064558  0.4662359600866139  0.2608852474170433  1.0000
  C   C62       1.0  0.17219112154175786  0.5337599519885999  0.7391210754403589  1.0000
  C   C63       1.0  0.5244392513717102  0.8333583536873235  0.8106303603408094  1.0000
  C   C64       1.0  0.475528817211611  0.16667251943934502  0.18941186122608403  1.0000
  C   C65       1.0  0.0592980275087527  0.6123108252920417  0.7250799037701866  1.0000
  C   C66       1.0  0.3762368161765934  0.3857784136878806  0.7723591042657247  1.0000
  C   C67       1.0  0.9406942179703607  0.3876910262139289  0.2749290126029891  1.0000
  C   C68       1.0  0.3736849869765564  0.07356355686460601  0.19633587345877151  1.0000
  C   C69       1.0  0.6263055394708986  0.9264542403322409  0.8036829168732283  1.0000
  C   C70       1.0  0.8735389728325984  0.4268133853322739  0.30382010631367956  1.0000
  C   C71       1.0  0.12644923606468686  0.5731806289142369  0.6961883027151643  1.0000
  C   C72       1.0  0.5587106648238702  0.8882675416279825  0.774874925132579  1.0000
  C   C73       1.0  0.4412694959153924  0.11175559938452297  0.22515323825623307  1.0000
  C   C74       1.0  0.9874394180464066  0.8123908386180503  0.6247729547099611  1.0000
  C   C75       1.0  0.0125366860133482  0.18759641728760815  0.3752094278293256  1.0000
  C   C76       1.0  0.21432444667355102  0.055277825499196416  0.3588869896592044  1.0000
  C   C77       1.0  0.6237686751725278  0.614218951083693  0.22763522775421316  1.0000
  C   C78       1.0  0.7856724023147662  0.9447141885741318  0.6411193343136858  1.0000
  C   C79       1.0  0.7142755314853487  0.4440064763562647  0.1404241672010684  1.0000
  C   C80       1.0  0.2857207467565389  0.5559986761327523  0.8595738043298129  1.0000
  C   C81       1.0  0.48828533821355075  0.6865072283324524  0.8722463443969775  1.0000
  C   C82       1.0  0.5116988541838411  0.3135177037141616  0.1277682720757625  1.0000
  C   C83       1.0  0.7276495539658256  0.03700787539509069  0.5979776591414065  1.0000
  C   C84       1.0  0.2723530547720329  0.9629822239085472  0.402027102020945  1.0000
  C   C85       1.0  0.9198699419396875  0.2154491754295691  0.4517449508451464  1.0000
  C   C86       1.0  0.0801366971798672  0.7845367938379015  0.5482582516348344  1.0000
  C   C87       1.0  0.42482463009643817  0.28324147031752034  0.046293870284507904  1.0000
  C   C88       1.0  0.4243499992403983  0.5875083967961247  0.1426970334914444  1.0000
  C   C89       1.0  0.5751722281579034  0.7167690060155253  0.9537134685714577  1.0000
  C   C90       1.0  0.22814455103426923  0.4628709200615972  0.9016144518527867  1.0000
  C   C91       1.0  0.7718546049115177  0.5371293895929554  0.09838092093070831  1.0000
  C   C92       1.0  0.1291809712199594  0.80863882000196  0.35226065362444814  1.0000
  C   C93       1.0  0.8708193333189913  0.1913564030985313  0.6477269131401684  1.0000
  C   C94       1.0  0.1599677407762456  0.065729103151746  0.5583909736448902  1.0000
  C   C95       1.0  0.8400319873545499  0.9342598184794468  0.441616915865609  1.0000
  C   C96       1.0  0.662684588350416  0.4388248265934678  0.9396664398071337  1.0000
  C   C97       1.0  0.3373122593197024  0.5611694538995096  0.0603221718532225  1.0000
  C   C98       1.0  0.6301691135530944  0.6910704933390122  0.14884737471700052  1.0000
  C   C99       1.0  0.5756537712022974  0.4125067793469768  0.8572868564894308  1.0000
  C   C100      1.0  0.3698594185152757  0.3089208088801385  0.851147474836921  1.0000
  C   C101      1.0  0.8518813126895424  0.891140050210481  0.37672027463994345  1.0000
  C   C102      1.0  0.1481149578616154  0.10884634514606263  0.6232891829207291  1.0000
  C   C103      1.0  0.8472215536290406  0.18537428976323161  0.71570534861646  1.0000
  C   C104      1.0  0.1527816382736589  0.8146344790443294  0.2842837595120713  1.0000
  C   C105      1.0  0.3458892616697966  0.31579786307843  0.783467264147163  1.0000
  C   C106      1.0  0.6541306293741017  0.6841936953511762  0.2165291521430178  1.0000
  C   C107      1.0  0.35006590050269176  0.6066795426647645  0.12386484031619462  1.0000
  C   C108      1.0  0.6499332561629814  0.3933262873210809  0.876115940548246  1.0000
  C   C109      1.0  0.0383614955342964  0.754007197356117  0.599627099405872  1.0000
  C   C110      1.0  0.3169459649778688  0.7074362631916175  0.23580380023588535  1.0000
  C   C111      1.0  0.9616278608944526  0.24598132316774016  0.4003672539534477  1.0000
  C   C112      1.0  0.28376794430960933  0.015007575253925197  0.35517442004033484  1.0000
  C   C113      1.0  0.7162358202487553  0.9849880007085973  0.6448371036542824  1.0000
  C   C114      1.0  0.7834823490497484  0.48447068560327017  0.14460725454429021  1.0000
  C   C115      1.0  0.2165116269877529  0.5155370966787843  0.855396964620752  1.0000
  C   C116      1.0  0.5366001644698671  0.7460191078690457  0.8997563723314387  1.0000
  C   C117      1.0  0.4633840293915128  0.2540054491570203  0.1002702243171001  1.0000
  C   C118      1.0  0.23543149466070903  0.6883926583770615  0.2631999050624927  1.0000
  C   C119      1.0  0.764566509592747  0.3116137218864239  0.7367772296342139  1.0000
  C   C120      1.0  0.23186519245692241  0.2382631390126448  0.6386337546583577  1.0000
  N   N1        1.0  0.9537621498718283  0.966376629977013  0.4056720346385418  1.0000
  N   N2        1.0  0.0008375573901702001  0.1274323846888379  0.40805685810850184  1.0000
  N   N3        1.0  0.1658731829975295  0.029332866067669314  0.4040373456898649  1.0000
  N   N4        1.0  0.8341346136551451  0.970660884855981  0.5959767828015858  1.0000
  N   N5        1.0  0.6657484732839762  0.4704559217010882  0.09550641674726992  1.0000
  N   N6        1.0  0.33425183576790124  0.5295468382848654  0.9044868684556562  1.0000
  N   N7        1.0  0.4986543689444574  0.6268865023320913  0.9061418288159687  1.0000
  N   N8        1.0  0.5013413383791984  0.3731273774512545  0.09386238058038292  1.0000
  N   N9        1.0  0.798680414753612  0.028510151889378204  0.5697447537549607  1.0000
  N   N10       1.0  0.2013296864754537  0.9714844635962765  0.4302678097070186  1.0000
  N   N11       1.0  0.9427456011317761  0.14487497352443773  0.4557678751823744  1.0000
  N   N12       1.0  0.046243908249813594  0.0335972320391917  0.5943389985381345  1.0000
  N   N13       1.0  0.0572673770220149  0.8551142380921632  0.5442384443727236  1.0000
  N   N14       1.0  0.4469131469134524  0.3541471070543096  0.0429983915339349  1.0000
  N   N15       1.0  0.5530894706796659  0.6458629451691565  0.9569990486894043  1.0000
  N   N16       1.0  0.29906996879397957  0.4712038845543561  0.9299817472897731  1.0000
  N   N17       1.0  0.7009309145844186  0.5287961750737793  0.0700084164122146  1.0000
  N   N18       1.0  0.0887407344129088  0.8703581805894133  0.3790474902047053  1.0000
  N   N19       1.0  0.9112607240881374  0.1296383227735731  0.6209484077497082  1.0000
  N   N20       1.0  0.0984562355635035  0.020453846588324602  0.5413712639969646  1.0000
  N   N21       1.0  0.9015509789013123  0.9795287267095885  0.4586387142095917  1.0000
  N   N22       1.0  0.5999237610488067  0.4822087480825701  0.9574027640809958  1.0000
  N   N23       1.0  0.9148765144285563  0.08255866540028481  0.6704006665680424  1.0000
  N   N24       1.0  0.40008519195670544  0.5178022959220884  0.04257956661417241  1.0000
  N   N25       1.0  0.5889712364800276  0.630079574703359  0.12187847906184861  1.0000
  N   N26       1.0  0.4110498094085813  0.369919258777209  0.8781111549562155  1.0000
  N   N27       1.0  0.08512494770339882  0.917444025194811  0.3295993892250522  1.0000
  N   N28       1.0  0.4148451267316062  0.41744652612702293  0.8290236306253008  1.0000
  N   N29       1.0  0.5851603658679423  0.5825542399925752  0.17096757133167984  1.0000
  N   N30       1.0  0.4540277004633495  0.5343243263335182  0.0936239515873893  1.0000
  N   N31       1.0  0.5459847161936865  0.46570254803553723  0.9063531457533572  1.0000
  N   N32       1.0  0.9991569809250508  0.8725522312807429  0.591930206245749  1.0000
