data_image0
_chemical_formula_structural       Ni2H28C40N8O8
_chemical_formula_sum              "Ni2 H28 C40 N8 O8"
_cell_length_a       8.732998476064163
_cell_length_b       8.7330213987094
_cell_length_c       12.779207095951948
_cell_angle_alpha    75.1264443687235
_cell_angle_beta     75.12688573346762
_cell_angle_gamma    67.8209623986178

_space_group_name_H-M_alt    "P 1"
_space_group_IT_number       1

loop_
  _space_group_symop_operation_xyz
  'x, y, z'

loop_
  _atom_site_type_symbol
  _atom_site_label
  _atom_site_symmetry_multiplicity
  _atom_site_fract_x
  _atom_site_fract_y
  _atom_site_fract_z
  _atom_site_occupancy
  Ni  Ni1       1.0  0.9999991123638309  0.9999992928849508  0.5000002486589282  1.0000
  Ni  Ni2       1.0  5.893006332000496e-07  3.0479144190017125e-07  0.9999996826716856  1.0000
  H   H1        1.0  0.045676073943688805  0.12139024159815649  0.23520710865493302  1.0000
  H   H2        1.0  0.8786180440893505  0.9543201066345118  0.26479499608763046  1.0000
  H   H3        1.0  0.9543220754367779  0.8786108424296228  0.7647927760736413  1.0000
  H   H4        1.0  0.12138450689294437  0.0456784950664328  0.7352037689632882  1.0000
  H   H5        1.0  0.9410055042494322  0.3974841661574897  0.487301186393907  1.0000
  H   H6        1.0  0.6025225810023755  0.058996796016764094  0.012696347335364098  1.0000
  H   H7        1.0  0.058995866211049006  0.6025144257520336  0.5126993528044965  1.0000
  H   H8        1.0  0.3974771790964697  0.9410030421265103  0.987304255826736  1.0000
  H   H9        1.0  0.9436127792671481  0.6148679887632936  0.2842473324085832  1.0000
  H   H10       1.0  0.38514045946070036  0.05639281738615411  0.21575029484425565  1.0000
  H   H11       1.0  0.0563869808316966  0.38513184937998085  0.7157532707535239  1.0000
  H   H12       1.0  0.614861233982431  0.9436082984606385  0.7842497442224854  1.0000
  H   H13       1.0  0.7739699406481648  0.6588525190511376  0.13442387290150054  1.0000
  H   H14       1.0  0.3411538667540698  0.22603356830836668  0.3655738929965225  1.0000
  H   H15       1.0  0.2260305712029124  0.34114858595648195  0.8655755931210296  1.0000
  H   H16       1.0  0.6588475029929199  0.7739650229026509  0.6344250814074217  1.0000
  H   H17       1.0  0.22159252372524924  0.2389201256792005  0.06623206396162835  1.0000
  H   H18       1.0  0.7610802759273271  0.7784026135911404  0.4337709879165175  1.0000
  H   H19       1.0  0.7784072360168466  0.761079712114828  0.9337677568032421  1.0000
  H   H20       1.0  0.23892184628538618  0.22159724518272833  0.566228414142316  1.0000
  H   H21       1.0  0.5234634060043036  0.4080297877715821  0.5718414050446798  1.0000
  H   H22       1.0  0.5919621530996437  0.47652223158458173  0.9281553418007465  1.0000
  H   H23       1.0  0.4765335624976003  0.5919712861155377  0.4281594714341424  1.0000
  H   H24       1.0  0.4080368548902272  0.5234763393451018  0.07184561610369403  1.0000
  H   H25       1.0  0.3195683090393758  0.6497087047965024  0.6586056899446293  1.0000
  H   H26       1.0  0.3502839309275034  0.6804270611159352  0.8413926887221808  1.0000
  H   H27       1.0  0.6804290893023436  0.35029111306543825  0.34139689671798135  1.0000
  H   H28       1.0  0.6497142195231974  0.31957402395960327  0.15860954319808235  1.0000
  C   C1        1.0  0.017040037388468904  0.22340662762993443  0.2787325918016991  1.0000
  C   C2        1.0  0.7766012877725076  0.9829613379248624  0.22126595674554042  1.0000
  C   C3        1.0  0.9829589695311612  0.776591942251997  0.7212660189110454  1.0000
  C   C4        1.0  0.22340201531876858  0.017038530989672993  0.7787324535630448  1.0000
  C   C5        1.0  0.9618283502940205  0.3728440075080214  0.4050715483618534  1.0000
  C   C6        1.0  0.6271656743724563  0.038176164302484494  0.0949236414237404  1.0000
  C   C7        1.0  0.03817226770073751  0.6271533168386583  0.5949285631816538  1.0000
  C   C8        1.0  0.37283483747862073  0.961824940705142  0.9050758245987895  1.0000
  C   C9        1.0  0.9605912337449852  0.48189687639634826  0.3060720495125509  1.0000
  C   C10       1.0  0.5181104364806828  0.0394150120209815  0.19392451254246626  1.0000
  C   C11       1.0  0.039408954409950125  0.5181017039755034  0.693926351847175  1.0000
  C   C12       1.0  0.48189050521022403  0.9605848369614661  0.8060766636638521  1.0000
  C   C13       1.0  0.9984273417860617  0.44394763334744874  0.1116221941623224  1.0000
  C   C14       1.0  0.5560612330339082  0.001569474425579598  0.38837987358261494  1.0000
  C   C15       1.0  0.001571989899950769  0.5560534622180098  0.8883798284049222  1.0000
  C   C16       1.0  0.4439407837486229  0.9984341657077278  0.611620447749701  1.0000
  C   C17       1.0  0.8732162398092242  0.5903491944634208  0.07528607661029715  1.0000
  C   C18       1.0  0.40965615261992383  0.126785953716265  0.4247125664747814  1.0000
  C   C19       1.0  0.12678233905431568  0.4096506331899405  0.9247147359048288  1.0000
  C   C20       1.0  0.5903431783525901  0.8732151411506874  0.575287891298004  1.0000
  C   C21       1.0  0.12484689615253333  0.35311850531456906  0.036873853337368735  1.0000
  C   C22       1.0  0.646881390714327  0.8751469908856606  0.4631289239950292  1.0000
  C   C23       1.0  0.875149643223047  0.6468838252962212  0.9631268777521387  1.0000
  C   C24       1.0  0.35311879815410663  0.12485159018469719  0.5368710421591629  1.0000
  C   C25       1.0  0.7975862068906211  0.1839476258314788  0.6321158187870852  1.0000
  C   C26       1.0  0.8160477396838672  0.20240570497287538  0.8678829487066938  1.0000
  C   C27       1.0  0.20241226547249636  0.8160559821335764  0.3678835658098266  1.0000
  C   C28       1.0  0.18395320093679154  0.7975941429618272  0.13211588030792853  1.0000
  C   C29       1.0  0.6720529834429099  0.310220472235983  0.6987666850896022  1.0000
  C   C30       1.0  0.6897639914832538  0.32793212841475833  0.8012360612416602  1.0000
  C   C31       1.0  0.3279447375247246  0.6897818692139736  0.30123461904411647  1.0000
  C   C32       1.0  0.3102369498508963  0.6720677202184362  0.1987643325674214  1.0000
  C   C33       1.0  0.5360857794252922  0.4255817959720431  0.6501466925666934  1.0000
  C   C34       1.0  0.5744071784203159  0.4638979691056944  0.8498540237273391  1.0000
  C   C35       1.0  0.4639135511904797  0.5744192985456562  0.3498529828088623  1.0000
  C   C36       1.0  0.425593439931184  0.5360993555902384  0.15014687021340484  1.0000
  C   C37       1.0  0.4214797569811851  0.5594923696177501  0.699672266903747  1.0000
  C   C38       1.0  0.4405007779466743  0.5785108900815459  0.8003281650975327  1.0000
  C   C39       1.0  0.5785176406470497  0.4405074475456913  0.3003287549643972  1.0000
  C   C40       1.0  0.559498982152171  0.4214889480617358  0.19967243806456744  1.0000
  N   N1        1.0  0.9965857934519351  0.2124369206816965  0.3869728471920554  1.0000
  N   N2        1.0  0.7875716187029981  0.0034158603020629  0.11302593283362232  1.0000
  N   N3        1.0  0.003414395416491823  0.7875616603886614  0.613027118962137  1.0000
  N   N4        1.0  0.21243093192255463  0.9965827410496287  0.8869720498200666  1.0000
  N   N5        1.0  0.9960314560901935  0.38545594236934017  0.22659739284399905  1.0000
  N   N6        1.0  0.6145504406674718  0.003970123478552498  0.2734028643472827  1.0000
  N   N7        1.0  0.003967980669259075  0.6145413714874194  0.7734029280525335  1.0000
  N   N8        1.0  0.385451253132409  0.9960309927174933  0.7265979571166883  1.0000
  O   O1        1.0  0.7466580030843557  0.1262919494020025  0.5705859801613756  1.0000
  O   O2        1.0  0.8737008517518775  0.25334068551637756  0.9294097183459017  1.0000
  O   O3        1.0  0.2533417566577399  0.8737078883920262  0.4294138406035017  1.0000
  O   O4        1.0  0.12630051799511224  0.746657905694647  0.07058925605804235  1.0000
  O   O5        1.0  0.955684118483255  0.14381880051806917  0.629721818790259  1.0000
  O   O6        1.0  0.856187709252133  0.044303612798636  0.8702809683752621  1.0000
  O   O7        1.0  0.044315212132517  0.8561822939996375  0.3702778565852897  1.0000
  O   O8        1.0  0.14381441224709596  0.9556962452767337  0.129716868889112  1.0000
