data_image0
_chemical_formula_structural       Zn4H44C60N8O16
_chemical_formula_sum              "Zn4 H44 C60 N8 O16"
_cell_length_a       9.225506338001493
_cell_length_b       10.330038081317687
_cell_length_c       14.221868308275445
_cell_angle_alpha    98.60962904636915
_cell_angle_beta     90.00006442003597
_cell_angle_gamma    89.99999178522552

_space_group_name_H-M_alt    "P 1"
_space_group_IT_number       1

loop_
  _space_group_symop_operation_xyz
  'x, y, z'

loop_
  _atom_site_type_symbol
  _atom_site_label
  _atom_site_symmetry_multiplicity
  _atom_site_fract_x
  _atom_site_fract_y
  _atom_site_fract_z
  _atom_site_occupancy
  Zn  Zn1       1.0  0.8536438260121743  0.932322035597465  0.9168764713897558  1.0000
  Zn  Zn2       1.0  0.3536461237147464  0.06767937234818787  0.5831248585500572  1.0000
  Zn  Zn3       1.0  0.14635626005456004  0.06767810754717368  0.0831247118284821  1.0000
  Zn  Zn4       1.0  0.6463561302546807  0.9323207707964795  0.4168763246689834  1.0000
  H   H1        1.0  0.7635007524860313  0.034609514565097796  0.1338619268882866  1.0000
  H   H2        1.0  0.2635012172577689  0.9653913254317457  0.3661394066325201  1.0000
  H   H3        1.0  0.23649824962935642  0.9653896494976375  0.8661391512245231  1.0000
  H   H4        1.0  0.7365032046143584  0.034609796794839595  0.6338618816923541  1.0000
  H   H5        1.0  0.3559093913678737  0.41295921791315465  0.5902045865158101  1.0000
  H   H6        1.0  0.8559093070763167  0.5870412091299781  0.9097959366505604  1.0000
  H   H7        1.0  0.6440917786501998  0.587039946149609  0.40979649159780246  1.0000
  H   H8        1.0  0.1440918629405701  0.4129599093203849  0.09020394498012509  1.0000
  H   H9        1.0  0.7268371088772625  0.4840550925456524  0.09204799059684628  1.0000
  H   H10       1.0  0.22683772030475782  0.5159477045228511  0.40795352596348516  1.0000
  H   H11       1.0  0.27316406114082536  0.515946029680883  0.90795329772682  1.0000
  H   H12       1.0  0.7731634497127403  0.48405439489747676  0.5920471641187106  1.0000
  H   H13       1.0  0.6613475456166141  0.5572230978382604  0.8102719061160213  1.0000
  H   H14       1.0  0.16134671147090526  0.44277732152130506  0.6897277695183134  1.0000
  H   H15       1.0  0.33865145649878065  0.4427770453063644  0.18972927710181858  1.0000
  H   H16       1.0  0.8386533745940241  0.557222815959065  0.3102713036604499  1.0000
  H   H17       1.0  0.37035622493377224  0.6270248896439765  0.5293917255975629  1.0000
  H   H18       1.0  0.8703573645043151  0.3729745587476214  0.9706087031704483  1.0000
  H   H19       1.0  0.6296427771810117  0.37297427253066917  0.4706086491687527  1.0000
  H   H20       1.0  0.1296438055125719  0.6270265597027416  0.029391178460237182  1.0000
  H   H21       1.0  0.49867783132530974  0.3787670012279064  0.7321136807838968  1.0000
  H   H22       1.0  0.9986774982250214  0.621233430067903  0.7678869481847528  1.0000
  H   H23       1.0  0.5013222547414243  0.6212321628348432  0.2678873973293107  1.0000
  H   H24       1.0  0.0013236717912619  0.3787676864943704  0.2321122300994318  1.0000
  H   H25       1.0  0.5145968427686185  0.13246551690827593  0.8271924968577054  1.0000
  H   H26       1.0  0.0145980766362896  0.8675349018561888  0.6728084767168381  1.0000
  H   H27       1.0  0.48540215934557557  0.8675346224601697  0.1728072796671469  1.0000
  H   H28       1.0  0.9854030933805831  0.13246425843040294  0.3271911947037935  1.0000
  H   H29       1.0  0.6994040286315338  0.08920296747034226  0.8058275448166654  1.0000
  H   H30       1.0  0.19940529187797298  0.9107964796052244  0.6941741639556653  1.0000
  H   H31       1.0  0.3005949734838538  0.9107971756742754  0.19417363840116758  1.0000
  H   H32       1.0  0.8005947941881502  0.08920170348755357  0.305826105706032  1.0000
  H   H33       1.0  0.6483867809432623  0.25723946264481157  0.8295547775856632  1.0000
  H   H34       1.0  0.14838694764122812  0.742759981022992  0.6704461900320736  1.0000
  H   H35       1.0  0.35161222117152846  0.7427606786117235  0.17044570228568287  1.0000
  H   H36       1.0  0.8516131384242912  0.2572382001816961  0.3295533762831297  1.0000
  H   H37       1.0  0.632538850522309  0.2795710161951277  0.17587882825532825  1.0000
  H   H38       1.0  0.13253711630294873  0.7204288370426254  0.32412089641383085  1.0000
  H   H39       1.0  0.3674612355438143  0.7204281459795323  0.8241215465113924  1.0000
  H   H40       1.0  0.8674586339554364  0.27957619207093387  0.6758772955954697  1.0000
  H   H41       1.0  0.6313680573302562  0.7031021422840026  0.07034923417311487  1.0000
  H   H42       1.0  0.13136765854196136  0.29689966908266285  0.4296506998389376  1.0000
  H   H43       1.0  0.368632028736485  0.29689800086063656  0.9296519490451232  1.0000
  H   H44       1.0  0.8686324275236007  0.7031034075314507  0.5703493920013896  1.0000
  C   C1        1.0  0.7155504666314985  0.7914042063162225  0.7560679580222852  1.0000
  C   C2        1.0  0.2155530162874939  0.2085971956279237  0.74393256623334  1.0000
  C   C3        1.0  0.2844485354838824  0.20859495774651285  0.24393312009052434  1.0000
  C   C4        1.0  0.7844481537299971  0.7914039247105291  0.2560680187438322  1.0000
  C   C5        1.0  0.720139401498436  0.09887649971140178  0.0871807490930507  1.0000
  C   C6        1.0  0.2201388730152232  0.9011223808300384  0.41282034208324336  1.0000
  C   C7        1.0  0.27985960061574383  0.901122660575154  0.9128189223267781  1.0000
  C   C8        1.0  0.7798633809524064  0.09887873573224935  0.5871788362013459  1.0000
  C   C9        1.0  0.42380270777228907  0.4917748125401216  0.6258265516570914  1.0000
  C   C10       1.0  0.9238036595649248  0.5082256146372968  0.8741733184773323  1.0000
  C   C11       1.0  0.5761952103899545  0.5082253249402199  0.3741725215208689  1.0000
  C   C12       1.0  0.0761953425492621  0.49177452473114847  0.12582645804752696  1.0000
  C   C13       1.0  0.6269661331114875  0.49175435476254825  0.052313623770295685  1.0000
  C   C14       1.0  0.1269668138915492  0.5082464792792152  0.4476869052214595  1.0000
  C   C15       1.0  0.3730339529552468  0.5082457883820904  0.9476875594479423  1.0000
  C   C16       1.0  0.8730321882220479  0.4917546372830229  0.5523122730619221  1.0000
  C   C17       1.0  0.5236020507692629  0.8365106730860314  0.5925176992769109  1.0000
  C   C18       1.0  0.023601636275991197  0.16348974783473838  0.9074839843170679  1.0000
  C   C19       1.0  0.4763980352974643  0.163488490976718  0.4074833788363037  1.0000
  C   C20       1.0  0.9763973658387998  0.836510393421797  0.09251649555427827  1.0000
  C   C21       1.0  0.6078360256056996  0.6905363149623723  0.7135412639802041  1.0000
  C   C22       1.0  0.10783537942192821  0.3094621484156405  0.7864595684809855  1.0000
  C   C23       1.0  0.3921629765096952  0.3094638281822454  0.2864599192376359  1.0000
  C   C24       1.0  0.8921636226922446  0.6905360327890405  0.21353999783381988  1.0000
  C   C25       1.0  0.523526220910199  0.7113272643468276  0.6348820841246405  1.0000
  C   C26       1.0  0.0235267968969453  0.2886731527955248  0.8651181927205156  1.0000
  C   C27       1.0  0.4764738651565282  0.28867189971592205  0.3651189939885738  1.0000
  C   C28       1.0  0.9764732891679844  0.7113269846848523  0.1348808804582475  1.0000
  C   C29       1.0  0.596286564119268  0.5710810925628848  0.7487065317196551  1.0000
  C   C30       1.0  0.0962869217049516  0.42891736858302204  0.7512935888363755  1.0000
  C   C31       1.0  0.4037124379955159  0.42891806961176104  0.25129384304666746  1.0000
  C   C32       1.0  0.9037120804086173  0.5710808107335621  0.2487052741319359  1.0000
  C   C33       1.0  0.43256316332910677  0.6111848202695993  0.5916844253094807  1.0000
  C   C34       1.0  0.932563109592017  0.3888146299749522  0.9083160495582091  1.0000
  C   C35       1.0  0.5674358387862668  0.3888133647112467  0.40831654769830544  1.0000
  C   C36       1.0  0.06743589252156569  0.6111855075054036  0.09168302362015618  1.0000
  C   C37       1.0  0.6519249103116567  0.15768141966172777  0.9508219424507727  1.0000
  C   C38       1.0  0.1519259366019483  0.8423190031933667  0.5491791328943377  1.0000
  C   C39       1.0  0.3480740918031202  0.8423177425129179  0.049178432315542885  1.0000
  C   C40       1.0  0.84807631736566  0.15768015520515624  0.450819835180205  1.0000
  C   C41       1.0  0.5536823251816472  0.3785447572271606  0.011602293126891504  1.0000
  C   C42       1.0  0.0536819728534255  0.6214550936616872  0.48839737310403547  1.0000
  C   C43       1.0  0.4463166769337477  0.6214553859174569  0.9883988900909485  1.0000
  C   C44       1.0  0.9463170292583526  0.3785450381544066  0.511599590034848  1.0000
  C   C45       1.0  0.5056064174217525  0.4719320608068428  0.7051183937453942  1.0000
  C   C46       1.0  0.0056068331270112  0.5280673786079291  0.7948824680612177  1.0000
  C   C47       1.0  0.4943925846930314  0.5280671013678102  0.29488198102092156  1.0000
  C   C48       1.0  0.9943932529385223  0.4719327607605308  0.20511730846403248  1.0000
  C   C49       1.0  0.6269202324368309  0.15942943308663615  0.847953311756207  1.0000
  C   C50       1.0  0.12692251919329317  0.8405700137179435  0.6520490466469439  1.0000
  C   C51       1.0  0.3730776857272177  0.8405707100579674  0.15204787146122806  1.0000
  C   C52       1.0  0.8730786508235654  0.1594281674867659  0.3479505196686645  1.0000
  C   C53       1.0  0.6561201597433098  0.21871153307125007  0.1089103250344223  1.0000
  C   C54       1.0  0.15611853008820023  0.7812912618907573  0.3910911391183943  1.0000
  C   C55       1.0  0.3438788423714811  0.7812886081852851  0.8910901548369238  1.0000
  C   C56       1.0  0.8438761362188316  0.2187118090590161  0.6089068426804545  1.0000
  C   C57       1.0  0.5735836769572202  0.6142674223956134  0.04051228777888129  1.0000
  C   C58       1.0  0.0735833144528257  0.38573438724981196  0.4594876034105226  1.0000
  C   C59       1.0  0.42641640910952117  0.38573272074901854  0.9594888954393568  1.0000
  C   C60       1.0  0.9264156876607788  0.6142677083943154  0.5405116799778895  1.0000
  N   N1        1.0  0.6129072786804315  0.2548085644560345  0.022813878298322297  1.0000
  N   N2        1.0  0.11290797044339482  0.7451912919731568  0.47718723851621536  1.0000
  N   N3        1.0  0.38709172343496334  0.7451915786885832  0.9771873049195179  1.0000
  N   N4        1.0  0.8870910316695985  0.2548098227009987  0.5228112364206794  1.0000
  N   N5        1.0  0.71811427210163  0.06284884153075859  0.9892527767202139  1.0000
  N   N6        1.0  0.21811521672613307  0.937151581407846  0.5107476443297685  1.0000
  N   N7        1.0  0.2818847300131537  0.9371503206438871  0.010747598046108864  1.0000
  N   N8        1.0  0.7818881211940365  0.06284855984875286  0.4892528355431835  1.0000
  O   O1        1.0  0.5600119028669042  0.8230764985197324  0.5053180181702572  1.0000
  O   O2        1.0  0.0600159713132342  0.17692587220898295  0.9946803858854663  1.0000
  O   O3        1.0  0.4399881831998229  0.17692266554301736  0.49468305994295736  1.0000
  O   O4        1.0  0.9399862826525976  0.8230762177709248  0.005316787464678887  1.0000
  O   O5        1.0  0.768707391069718  0.8689468942206557  0.7058301966065912  1.0000
  O   O6        1.0  0.26870787182826217  0.13105255114308528  0.7941701568315834  1.0000
  O   O7        1.0  0.2312926949957941  0.13105030790215008  0.29416926460358883  1.0000
  O   O8        1.0  0.7312922142384792  0.8689475920015466  0.20583102638665446  1.0000
  O   O9        1.0  0.7481969891547777  0.7876271156972122  0.8443422906528184  1.0000
  O   O10       1.0  0.2482004709109447  0.21237624538316874  0.6556584680067841  1.0000
  O   O11       1.0  0.2518020129594234  0.21237400275311558  0.15565759097705717  1.0000
  O   O12       1.0  0.751802867009232  0.7876248749553126  0.34434211697119105  1.0000
  O   O13       1.0  0.4758735390537653  0.9408325164443949  0.6422510838530114  1.0000
  O   O14       1.0  0.9758702018669184  0.0591679179482725  0.8577509349077843  1.0000
  O   O15       1.0  0.5241287149156619  0.05916762670027249  0.3577500993660294  1.0000
  O   O16       1.0  0.024127716296519  0.940831244226359  0.14224943985813343  1.0000
