data_image0
_chemical_formula_structural       Zn16C96S16N16Cl16O84
_chemical_formula_sum              "Zn16 C96 S16 N16 Cl16 O84"
_cell_length_a       19.500270351996335
_cell_length_b       19.46560013060882
_cell_length_c       33.05879065808477
_cell_angle_alpha    79.44827836369873
_cell_angle_beta     79.34598786854009
_cell_angle_gamma    64.04012819743079

_space_group_name_H-M_alt    "P 1"
_space_group_IT_number       1

loop_
  _space_group_symop_operation_xyz
  'x, y, z'

loop_
  _atom_site_type_symbol
  _atom_site_label
  _atom_site_symmetry_multiplicity
  _atom_site_fract_x
  _atom_site_fract_y
  _atom_site_fract_z
  _atom_site_occupancy
  Zn  Zn1       1.0  0.0589303205754774  0.40240506165590517  0.47497483142499414  1.0000
  Zn  Zn2       1.0  0.982219628230972  0.4876899717366424  0.5597962498031493  1.0000
  Zn  Zn3       1.0  0.06309392616935838  0.5583040842185482  0.48234360542916477  1.0000
  Zn  Zn4       1.0  0.8992612327039853  0.5498511049096209  0.47979052936803157  1.0000
  Zn  Zn5       1.0  0.6972946946657502  0.3515633837061359  0.2688307474655716  1.0000
  Zn  Zn6       1.0  0.6961751106381798  0.18362038412397638  0.26444573970339746  1.0000
  Zn  Zn7       1.0  0.7651381300015245  0.2697179846074959  0.18865542377307778  1.0000
  Zn  Zn8       1.0  0.847305780999271  0.19464422472970708  0.27386574040654205  1.0000
  Zn  Zn9       1.0  0.26287330440091955  0.7686006115489192  0.6884353157322137  1.0000
  Zn  Zn10      1.0  0.3484039654980293  0.6937433306977565  0.7724978472306248  1.0000
  Zn  Zn11      1.0  0.19792921921398945  0.8510689234699667  0.7689726468178932  1.0000
  Zn  Zn12      1.0  0.19580112808581163  0.6834326715399255  0.7645305188167271  1.0000
  Zn  Zn13      1.0  0.5637254070473291  0.05816403811815722  0.9826128975925882  1.0000
  Zn  Zn14      1.0  0.3999665391743861  0.051546540018570376  0.9785160475813014  1.0000
  Zn  Zn15      1.0  0.5583055596367644  0.9029345675255342  0.9752144499825092  1.0000
  Zn  Zn16      1.0  0.4794203323155131  0.991346498554975  0.05974945656153349  1.0000
  C   C1        1.0  0.0632804673896175  0.3217242582353989  0.5585396995799173  1.0000
  C   C2        1.0  0.06821834649119303  0.5702571831290868  0.5660415981015133  1.0000
  C   C3        1.0  0.18584512362476602  0.4399830542380839  0.43665227025608283  1.0000
  C   C4        1.0  0.9377462737992844  0.6780767990647618  0.4401352719738156  1.0000
  C   C5        1.0  0.9339788456616561  0.4283257769307623  0.43170183914329396  1.0000
  C   C6        1.0  0.8167165588210211  0.5585312129531202  0.5619407699567844  1.0000
  C   C7        1.0  0.5728661932807101  0.3079593676990413  0.30777598732822037  1.0000
  C   C8        1.0  0.6844498018757293  0.18291997272693544  0.17975456163311776  1.0000
  C   C9        1.0  0.6900475082536631  0.4358717088595227  0.18712729774746614  1.0000
  C   C10       1.0  0.9297767085965275  0.19115067194000812  0.19070106524011268  1.0000
  C   C11       1.0  0.8158559630855393  0.31896381786626893  0.3183463022261889  1.0000
  C   C12       1.0  0.8135499451848673  0.06441988727857514  0.31065154139447054  1.0000
  C   C13       1.0  0.4287059338669935  0.6899028144237462  0.6894006149250841  1.0000
  C   C14       1.0  0.3178998192781748  0.8168272906633051  0.8182929208806797  1.0000
  C   C15       1.0  0.19089400417252728  0.9344881969081698  0.6869515694960455  1.0000
  C   C16       1.0  0.07277133661723671  0.8084427475090333  0.8077332552089871  1.0000
  C   C17       1.0  0.1816665081046125  0.6820641101635944  0.6804830410820557  1.0000
  C   C18       1.0  0.3135087684324205  0.5643398281378965  0.8105338294457453  1.0000
  C   C19       1.0  0.43987496598607834  0.17813878020711368  0.9397263374721446  1.0000
  C   C20       1.0  0.4324746273792713  0.928806241327706  0.9324187258395114  1.0000
  C   C21       1.0  0.6858077366580488  0.9393423410918019  0.9368201631444746  1.0000
  C   C22       1.0  0.5600455058323491  0.8241584458463788  0.059530574615358545  1.0000
  C   C23       1.0  0.569281907394398  0.07061895656907782  0.06631504366498579  1.0000
  C   C24       1.0  0.3151190850105224  0.0637070521754168  0.060641213886192695  1.0000
  C   C25       1.0  0.9040658334507158  0.4004699956411811  0.4021767714994765  1.0000
  C   C26       1.0  0.8463894697751257  0.34723699080580417  0.34731108586414183  1.0000
  C   C27       1.0  0.833139438150262  0.4481513720863928  0.3868708653037202  1.0000
  C   C28       1.0  0.9193526282698132  0.3011784551660666  0.3608189587721283  1.0000
  C   C29       1.0  0.8028389024760331  0.42020173840492686  0.36142520658333394  1.0000
  C   C30       1.0  0.9459889491063648  0.32618905241962176  0.3896501579149713  1.0000
  C   C31       1.0  0.09756922259905561  0.5988421692103926  0.5954399427221375  1.0000
  C   C32       1.0  0.1522017226616796  0.6536730155773325  0.6510607850076368  1.0000
  C   C33       1.0  0.14263227108507692  0.6406927207061556  0.5802546682616452  1.0000
  C   C34       1.0  0.10430128058471412  0.6150706803415956  0.6661787561868805  1.0000
  C   C35       1.0  0.17254850350101242  0.6648099332053762  0.6079135696251682  1.0000
  C   C36       1.0  0.08023278788725459  0.5845886975592833  0.6388093212683187  1.0000
  C   C37       1.0  0.3119735702341018  0.4525926900091191  0.4003790021932261  1.0000
  C   C38       1.0  0.4523452594531959  0.29060164379669823  0.3494287058196903  1.0000
  C   C39       1.0  0.264010236435496  0.4147926003707596  0.41361266155820425  1.0000
  C   C40       1.0  0.49935007442702783  0.32922440831977423  0.33543094324254236  1.0000
  C   C41       1.0  0.3824364238289918  0.33667767178535957  0.37163420858465906  1.0000
  C   C42       1.0  0.379161096796743  0.4086658242727026  0.37550001601126576  1.0000
  C   C43       1.0  0.7234451028945729  0.5791068940664985  0.6311196878341007  1.0000
  C   C44       1.0  0.5216257214617742  0.6786544231956453  0.6204096061044451  1.0000
  C   C45       1.0  0.7418940588894573  0.5868110499831969  0.5882612280414746  1.0000
  C   C46       1.0  0.503606399833835  0.6696697256320548  0.6632414415291662  1.0000
  C   C47       1.0  0.6017509089637018  0.6426958263758707  0.6083853474846634  1.0000
  C   C48       1.0  0.6431270947224803  0.6095347647786583  0.6427153347183036  1.0000
  C   C49       1.0  0.0726745675190514  0.2294011491029053  0.62762024466128  1.0000
  C   C50       1.0  0.17150087744091994  0.02691677852732247  0.6175798578278205  1.0000
  C   C51       1.0  0.08270671681955831  0.24690359040939572  0.5847843609233648  1.0000
  C   C52       1.0  0.16311177767242674  0.009150429921064079  0.660461128071141  1.0000
  C   C53       1.0  0.1416349059792879  0.10722942055655685  0.6057203949096248  1.0000
  C   C54       1.0  0.10805192528920322  0.1492734608529957  0.6398592625320275  1.0000
  C   C55       1.0  0.8399888867234964  0.8002219230102551  0.3998377250723308  1.0000
  C   C56       1.0  0.9063167154303856  0.9468978895753534  0.35578926370867947  1.0000
  C   C57       1.0  0.9086194931457925  0.7560063712978713  0.4168173128089308  1.0000
  C   C58       1.0  0.8383248889172422  0.9907368110156793  0.33810608318169233  1.0000
  C   C59       1.0  0.9082964251881125  0.8759237582796754  0.3766822180846105  1.0000
  C   C60       1.0  0.8401855966413836  0.868407296151936  0.3759380222907395  1.0000
  C   C61       1.0  0.6543728452680144  0.15469251227023054  0.15052373237719502  1.0000
  C   C62       1.0  0.599307574505062  0.09918419573005359  0.0954287509012914  1.0000
  C   C63       1.0  0.6714420409745329  0.16850678856629728  0.10720345332940441  1.0000
  C   C64       1.0  0.5854504170020435  0.08222088412905748  0.13877147634459416  1.0000
  C   C65       1.0  0.6410923594236168  0.14407536280324246  0.07991063762557357  1.0000
  C   C66       1.0  0.6092781783329145  0.11309309182750846  0.16602161797177925  1.0000
  C   C67       1.0  0.6698000438375403  0.5290209828303246  0.11791708808433297  1.0000
  C   C68       1.0  0.569907226288585  0.7312336239299384  0.1286342488689129  1.0000
  C   C69       1.0  0.6614930875313763  0.510710539171846  0.16076906663648316  1.0000
  C   C70       1.0  0.5797052245979232  0.7492668295498954  0.08582456147266268  1.0000
  C   C71       1.0  0.605571638515755  0.6510092874697124  0.14059621253790058  1.0000
  C   C72       1.0  0.6393189641033815  0.6094424695931905  0.10629394680033492  1.0000
  C   C73       1.0  0.0797032228310499  0.12123817626650883  0.1789128905347113  1.0000
  C   C74       1.0  0.16486678167077432  0.12407494877498941  0.0726542149425171  1.0000
  C   C75       1.0  0.006540731729558001  0.16067985359755  0.16643270716412667  1.0000
  C   C76       1.0  0.23829735612393677  0.08578978358508493  0.08493558865275469  1.0000
  C   C77       1.0  0.10724001469074551  0.1400127864669685  0.10698314935120827  1.0000
  C   C78       1.0  0.1378987184012246  0.1107360867820617  0.14489638311792416  1.0000
  C   C79       1.0  0.34696685537235794  0.8451567948353046  0.8480628061249789  1.0000
  C   C80       1.0  0.4026002580713879  0.8997302288614148  0.9034676968275974  1.0000
  C   C81       1.0  0.30273800990595845  0.9182667591501572  0.8619826817008371  1.0000
  C   C82       1.0  0.4446685479571855  0.8249512227099768  0.8916185078614091  1.0000
  C   C83       1.0  0.33206826515480264  0.9469777615398485  0.8876179530368586  1.0000
  C   C84       1.0  0.41927056502330373  0.7993497570454621  0.8624834734577007  1.0000
  C   C85       1.0  0.40659445520672227  0.44770642619695156  0.855989318609346  1.0000
  C   C86       1.0  0.34146780902159435  0.3002819989159276  0.9002058124510484  1.0000
  C   C87       1.0  0.33839876771688904  0.4911479876582374  0.8384104941925372  1.0000
  C   C88       1.0  0.41038079271286426  0.25632286055349596  0.9168913553493495  1.0000
  C   C89       1.0  0.34104250187854757  0.3687684566217014  0.8764500157844992  1.0000
  C   C90       1.0  0.40899532342267264  0.3766929410571576  0.8770405220582943  1.0000
  C   C91       1.0  0.9523417488624447  0.7906939449778673  0.849357866123455  1.0000
  C   C92       1.0  0.8116922967781974  0.9522538837679516  0.9005435618314762  1.0000
  C   C93       1.0  0.9991486510315397  0.8295722436387222  0.835362532109819  1.0000
  C   C94       1.0  0.7639423649395952  0.9141949224019108  0.9137771133950706  1.0000
  C   C95       1.0  0.8788733082068206  0.908618368812888  0.8755660550312852  1.0000
  C   C96       1.0  0.88241408802336  0.8365545429376054  0.8716465131247374  1.0000
  S   S1        1.0  0.30232512130027805  0.3247133193645765  0.39648631941025764  1.0000
  S   S2        1.0  0.45890556501543517  0.42107110253601115  0.3504717178587455  1.0000
  S   S3        1.0  0.6608038310823757  0.6331072837334019  0.562350844857299  1.0000
  S   S4        1.0  0.5845604155483812  0.6190663239704153  0.6888554797407167  1.0000
  S   S5        1.0  0.1333766942843866  0.16526504152351143  0.5594568869399411  1.0000
  S   S6        1.0  0.11675919882609523  0.09092153045309456  0.6860490081121853  1.0000
  S   S7        1.0  0.9725708632540844  0.7987484811070681  0.4044419177770564  1.0000
  S   S8        1.0  0.7761870319855716  0.9458025012398676  0.34809245696398955  1.0000
  S   S9        1.0  0.6146394130562386  0.5920810255033047  0.18661099030720854  1.0000
  S   S10       1.0  0.63074792311145  0.6680062783413091  0.06021783005328983  1.0000
  S   S11       1.0  0.008779641289756104  0.18306728782023637  0.11310187457140589  1.0000
  S   S12       1.0  0.23645345686384187  0.0676121878442686  0.13846305993440916  1.0000
  S   S13       1.0  0.2765965186860697  0.44590140989146926  0.8487093627892931  1.0000
  S   S14       1.0  0.4737925440580285  0.29966939847304985  0.9045601788367323  1.0000
  S   S15       1.0  0.9584382776136948  0.9213635863923384  0.850483803527645  1.0000
  S   S16       1.0  0.8025181497983385  0.8241977830056155  0.8965071421590733  1.0000
  N   N1        1.0  0.3028514587687568  0.5257809602763713  0.4110423558096058  1.0000
  N   N2        1.0  0.4693219658081986  0.21114742836016379  0.3457176444376556  1.0000
  N   N3        1.0  0.7748356869704838  0.5500068811308194  0.6632535853014686  1.0000
  N   N4        1.0  0.46940284382922215  0.7229042432737386  0.5894147271957095  1.0000
  N   N5        1.0  0.027806737764599597  0.28183522296935587  0.6585896824770713  1.0000
  N   N6        1.0  0.20075439159130332  0.9748837763627592  0.5856299078656733  1.0000
  N   N7        1.0  0.7713518552243527  0.7856808021682083  0.40610525150606946  1.0000
  N   N8        1.0  0.9690874710810676  0.9676585170217532  0.3574397836288981  1.0000
  N   N9        1.0  0.7002394413488845  0.4771911737209534  0.08592344004524217  1.0000
  N   N10       1.0  0.5255212965417969  0.7832240157041209  0.15984583466443064  1.0000
  N   N11       1.0  0.09989375022878022  0.08785905975379645  0.22058730685813538  1.0000
  N   N12       1.0  0.14252162733406243  0.1430370673204564  0.030861404254125088  1.0000
  N   N13       1.0  0.46928167419436306  0.46871210801118224  0.8571731113734344  1.0000
  N   N14       1.0  0.27302394587989914  0.2852980140352983  0.9067467596370804  1.0000
  N   N15       1.0  0.9693264536893269  0.7112201474997303  0.8456652807886653  1.0000
  N   N16       1.0  0.8024013063888092  0.02546615144787976  0.9112806181013368  1.0000
  Cl  Cl1       1.0  0.7828659794488219  0.5419418607766031  0.39717609180900837  1.0000
  Cl  Cl2       1.0  0.9791781854873636  0.21535201942905483  0.34216869975259095  1.0000
  Cl  Cl3       1.0  0.7107504103098989  0.4763560556636221  0.349863992513832  1.0000
  Cl  Cl4       1.0  0.02901864606622689  0.2626122467933882  0.4099374879309678  1.0000
  Cl  Cl5       1.0  0.1610067484626967  0.6661386113665984  0.528300726191503  1.0000
  Cl  Cl6       1.0  0.0712797938957124  0.6064374444918527  0.717900692769028  1.0000
  Cl  Cl7       1.0  0.23574732887470876  0.7053268039561331  0.5876762094836181  1.0000
  Cl  Cl8       1.0  0.032227459233013206  0.5283606220553522  0.660069774019547  1.0000
  Cl  Cl9       1.0  0.731040379875637  0.21281414631861392  0.08605048765529938  1.0000
  Cl  Cl10      1.0  0.542394606852838  0.021369635730195593  0.15992622864207107  1.0000
  Cl  Cl11      1.0  0.6546602164493365  0.17265464651323018  0.02796466888344176  1.0000
  Cl  Cl12      1.0  0.5790597341260624  0.10118382830110305  0.21794850657247614  1.0000
  Cl  Cl13      1.0  0.21086213899234713  0.9739902028911088  0.8499927559726784  1.0000
  Cl  Cl14      1.0  0.5264181627465164  0.7615346760477875  0.9131895622496841  1.0000
  Cl  Cl15      1.0  0.2810095999893321  0.04071194489799983  0.8976379926313028  1.0000
  Cl  Cl16      1.0  0.47996144760470844  0.7129268735456902  0.8446838765940895  1.0000
  O   O1        1.0  0.0008674830635228996  0.4992945356229015  0.499012365158066  1.0000
  O   O2        1.0  0.0640704871303583  0.3187749180411785  0.5200372125521965  1.0000
  O   O3        1.0  0.002964370047543201  0.5678441325948994  0.5770040684007326  1.0000
  O   O4        1.0  0.14566313654667343  0.5114707212290951  0.43803611344949184  1.0000
  O   O5        1.0  0.050633842065536804  0.37985025455848376  0.5758781191230965  1.0000
  O   O6        1.0  0.16555412679001338  0.38541236891377645  0.4521510854938525  1.0000
  O   O7        1.0  0.1101372033663068  0.5504051557294432  0.5320002337736653  1.0000
  O   O8        1.0  0.9959459754186074  0.6618365703712425  0.45882091385117  1.0000
  O   O9        1.0  0.8848417423666107  0.4687183678370201  0.45886430699737696  1.0000
  O   O10       1.0  0.9052628712212043  0.6348479685108188  0.43846082805743686  1.0000
  O   O11       1.0  0.005993250717658299  0.40951009225457097  0.42758977894172995  1.0000
  O   O12       1.0  0.8744290688141592  0.506018575732703  0.5780349844639617  1.0000
  O   O13       1.0  0.8148772266899301  0.5895057160132424  0.5242137345958823  1.0000
  O   O14       1.0  0.7506211880103919  0.2502437917106234  0.2491662258010335  1.0000
  O   O15       1.0  0.6085170533927454  0.3496304517974023  0.3081909814770185  1.0000
  O   O16       1.0  0.7048413842186606  0.13973543664156532  0.21332472405427436  1.0000
  O   O17       1.0  0.7446963537960657  0.378873924057629  0.17139272962802463  1.0000
  O   O18       1.0  0.591854414342656  0.25388172685072147  0.2858688893394045  1.0000
  O   O19       1.0  0.6573168390572164  0.43701397788564106  0.2245057265249528  1.0000
  O   O20       1.0  0.6878812744673937  0.2477424859213925  0.16895784074103662  1.0000
  O   O21       1.0  0.8738061511933993  0.2081355946340508  0.17005648702971843  1.0000
  O   O22       1.0  0.8330170445540973  0.2470797076527587  0.32249728344671513  1.0000
  O   O23       1.0  0.926116967532771  0.20001949161827057  0.22824541390205164  1.0000
  O   O24       1.0  0.7750303059390049  0.36858337412741793  0.29157045881404287  1.0000
  O   O25       1.0  0.7415532247549309  0.0974250389708331  0.3070256791588548  1.0000
  O   O26       1.0  0.8644847943350201  0.0871670676496022  0.2924828959439481  1.0000
  O   O27       1.0  0.25062756755458077  0.7498351738285292  0.7492328096474451  1.0000
  O   O28       1.0  0.37096303491887994  0.7009501104469534  0.6723543691316252  1.0000
  O   O29       1.0  0.33692296553034845  0.7446983361886976  0.8213843981227454  1.0000
  O   O30       1.0  0.1589678540955077  0.9363175321621  0.7245214721036176  1.0000
  O   O31       1.0  0.4311667635476581  0.6913414621871609  0.7277065225657537  1.0000
  O   O32       1.0  0.24418395513554003  0.8768236675442437  0.6710445696328903  1.0000
  O   O33       1.0  0.2764559366734217  0.8667803574923094  0.7918419305776324  1.0000
  O   O34       1.0  0.1085006026162105  0.8499987993274586  0.8082564783865748  1.0000
  O   O35       1.0  0.20186418293088343  0.639026188558766  0.7141140392578933  1.0000
  O   O36       1.0  0.0916958093904938  0.7544921531268896  0.7857761700560744  1.0000
  O   O37       1.0  0.18470094961248412  0.747079428692771  0.6697262534081928  1.0000
  O   O38       1.0  0.36458696158101134  0.5862043575709491  0.7915630060877845  1.0000
  O   O39       1.0  0.24136956529015663  0.5976456633641687  0.807368770302844  1.0000
  O   O40       1.0  0.5006844017096271  0.9999291418106536  0.9992277173305978  1.0000
  O   O41       1.0  0.4970371374372178  0.16202076858492379  0.9592416353697784  1.0000
  O   O42       1.0  0.3834122478031858  0.9707399461273165  0.9590441294177336  1.0000
  O   O43       1.0  0.6651265637812783  0.8849875784730937  0.9522126228527269  1.0000
  O   O44       1.0  0.4086341084475508  0.1344368413043142  0.9367891172007177  1.0000
  O   O45       1.0  0.6458714735163298  0.010858930315272578  0.9383318025257025  1.0000
  O   O46       1.0  0.504590634899678  0.9096945362914182  0.9282476261133181  1.0000
  O   O47       1.0  0.5627763436467604  0.8204263527760028  0.020916650479897218  1.0000
  O   O48       1.0  0.5039059405576508  0.06877883029193298  0.07763954019804939  1.0000
  O   O49       1.0  0.545376258325689  0.882744630805902  0.07694296412456937  1.0000
  O   O50       1.0  0.6108714375434304  0.05053879139653352  0.03224487333951489  1.0000
  O   O51       1.0  0.3195155009937877  0.09570796767995662  0.023790094081895995  1.0000
  O   O52       1.0  0.3710490274866062  0.014805841344504177  0.0802534118238682  1.0000
  O   O53       1.0  0.34012611265266207  0.5572543378030232  0.3862873124643258  1.0000
  O   O54       1.0  0.26323265621662273  0.5499113919145697  0.4433641672921169  1.0000
  O   O55       1.0  0.41178418353589313  0.19774264083462598  0.3474860002594156  1.0000
  O   O56       1.0  0.5366923554378645  0.16298581318591224  0.3429143306439428  1.0000
  O   O57       1.0  0.747742680900025  0.5269481324430815  0.69742589811662  1.0000
  O   O58       1.0  0.8377370630606934  0.5531902918044124  0.6557704458106244  1.0000
  O   O59       1.0  0.4932573081237025  0.7029851534380567  0.553844385835582  1.0000
  O   O60       1.0  0.4084846091278679  0.7772798124598378  0.5993597504346296  1.0000
  O   O61       1.0  0.04721160762392171  0.25812023503451076  0.6942322281044894  1.0000
  O   O62       1.0  0.9733916620229053  0.3425565703499063  0.6486010865803209  1.0000
  O   O63       1.0  0.2241115596798124  0.0015064284933075118  0.5513917896278501  1.0000
  O   O64       1.0  0.19737852484161073  0.9119984083875535  0.5933198227334698  1.0000
  O   O65       1.0  0.728778306840077  0.8165812057980656  0.3780193381544734  1.0000
  O   O66       1.0  0.7582188856205293  0.7476921333594572  0.4383136588594141  1.0000
  O   O67       1.0  0.03185225251060331  0.911876616460226  0.3629882160318303  1.0000
  O   O68       1.0  0.9562119058419399  0.03601492491815609  0.3553970066002065  1.0000
  O   O69       1.0  0.7226138270181224  0.5046205400148975  0.051641510149586636  1.0000
  O   O70       1.0  0.6992631380120926  0.4131792634633058  0.09360156605442428  1.0000
  O   O71       1.0  0.5457180526981419  0.7592504737954823  0.195314090930566  1.0000
  O   O72       1.0  0.4707485846805212  0.8439519554231578  0.15023945473064507  1.0000
  O   O73       1.0  0.16480519493786966  0.07864465284806241  0.22663668596313608  1.0000
  O   O74       1.0  0.05471846358794611  0.06851903493567586  0.2459275134094909  1.0000
  O   O75       1.0  0.07767284089009509  0.19665385827673273  0.027209085346939298  1.0000
  O   O76       1.0  0.1853629593053654  0.10427393690939367  0.0032556778959004877  1.0000
  O   O77       1.0  0.5319826431767042  0.41316029796443127  0.8632873944621549  1.0000
  O   O78       1.0  0.4567496401179126  0.537201431100975  0.8540685141742016  1.0000
  O   O79       1.0  0.22985641084683553  0.3165323490293587  0.8789506804218375  1.0000
  O   O80       1.0  0.2606899565977301  0.2467429852725472  0.938886540763072  1.0000
  O   O81       1.0  0.9117146723532414  0.6976266859974061  0.8480936822162943  1.0000
  O   O82       1.0  0.0367049269901329  0.6631918668853201  0.8422705015229752  1.0000
  O   O83       1.0  0.8390059329332901  0.0574484466295928  0.8863753338637395  1.0000
  O   O84       1.0  0.7633254081172609  0.04911339571107463  0.9438189488268305  1.0000
