data_image0
_chemical_formula_structural       Ag4H12C12S2N8O10
_chemical_formula_sum              "Ag4 H12 C12 S2 N8 O10"
_cell_length_a       8.389345971022045
_cell_length_b       8.561279944777537
_cell_length_c       8.861140673123085
_cell_angle_alpha    88.287168479002
_cell_angle_beta     74.2965970399999
_cell_angle_gamma    67.31716288422719

_space_group_name_H-M_alt    "P 1"
_space_group_IT_number       1

loop_
  _space_group_symop_operation_xyz
  'x, y, z'

loop_
  _atom_site_type_symbol
  _atom_site_label
  _atom_site_symmetry_multiplicity
  _atom_site_fract_x
  _atom_site_fract_y
  _atom_site_fract_z
  _atom_site_occupancy
  Ag  Ag1       1.0  0.0757228109013468  0.20267820023919111  0.9207964818768062  1.0000
  Ag  Ag2       1.0  0.9242767197211919  0.7973267088020393  0.07920636209637888  1.0000
  Ag  Ag3       1.0  0.6826396935304189  0.5733183665153021  0.14821998567146713  1.0000
  Ag  Ag4       1.0  0.317357869216977  0.4266852795504689  0.8517822943811951  1.0000
  H   H1        1.0  0.5083023199002384  0.9423142872426242  0.17266538651858093  1.0000
  H   H2        1.0  0.49170005515469484  0.057686642952184314  0.8273312841638969  1.0000
  H   H3        1.0  0.4291931893894797  0.8644636654756256  0.06889668689589003  1.0000
  H   H4        1.0  0.5708081935778538  0.1355397444365067  0.9310978565633192  1.0000
  H   H5        1.0  0.11192977391458209  0.08153391444287911  0.5658899861304008  1.0000
  H   H6        1.0  0.8880643076791446  0.918466056089585  0.43411562232339646  1.0000
  H   H7        1.0  0.301803243333879  0.5574691757199518  0.4991064398387052  1.0000
  H   H8        1.0  0.6981971223987316  0.4425305817756708  0.5008930595538104  1.0000
  H   H9        1.0  0.08469968354823723  0.09609359194254101  0.26657041407518267  1.0000
  H   H10       1.0  0.9153024378190935  0.9039048770686409  0.7334287009413315  1.0000
  H   H11       1.0  0.2838351687097502  0.5666621602582325  0.19729987298720886  1.0000
  H   H12       1.0  0.7161674348856623  0.433335098986376  0.8027014365177932  1.0000
  C   C1        1.0  0.1477961310911411  0.1912004916523102  0.540553733000678  1.0000
  C   C2        1.0  0.8522029474191016  0.8087993746532902  0.45944947613317305  1.0000
  C   C3        1.0  0.16972900597549065  0.25610927960084945  0.39098035554465577  1.0000
  C   C4        1.0  0.8302703563381261  0.7438867953861747  0.6090229689042984  1.0000
  C   C5        1.0  0.22320423819395074  0.3939100509692679  0.3725057042273718  1.0000
  C   C6        1.0  0.7767948541320138  0.6060897852442365  0.6274963740296258  1.0000
  C   C7        1.0  0.25387557155456625  0.4550903632182894  0.5039383453363226  1.0000
  C   C8        1.0  0.7461210430367303  0.5449094799705064  0.49606323626536414  1.0000
  C   C9        1.0  0.1339600794299258  0.1973536291253097  0.26104617943009606  1.0000
  C   C10       1.0  0.8660432600811631  0.8026448815363665  0.7389548802293574  1.0000
  C   C11       1.0  0.24130968797145164  0.46104790858767336  0.22387916625689283  1.0000
  C   C12       1.0  0.7586886408073922  0.5389507363929554  0.7761254235993676  1.0000
  S   S1        1.0  0.6949325600595416  0.19967290586440356  0.15994052949710644  1.0000
  S   S2        1.0  0.3050690652639928  0.8003268030054402  0.8400575219077738  1.0000
  N   N1        1.0  0.16799657312483163  0.26088967358918325  0.6613173343323027  1.0000
  N   N2        1.0  0.8319995316069398  0.7391114395503706  0.3386843145346107  1.0000
  N   N3        1.0  0.22322129194762402  0.39312806121413507  0.642352080771289  1.0000
  N   N4        1.0  0.7767778141940697  0.6068717449072735  0.357648866608848  1.0000
  N   N5        1.0  0.1487601189334384  0.26913958904370366  0.12696089768483176  1.0000
  N   N6        1.0  0.8512424708462522  0.7308577002930008  0.8730415426970237  1.0000
  N   N7        1.0  0.20557565852240606  0.40044190979801897  0.10750381490295519  1.0000
  N   N8        1.0  0.7944264490292026  0.5995565893052515  0.8924964309904126  1.0000
  O   O1        1.0  0.597573490385436  0.35099996437242  0.278306764721293  1.0000
  O   O2        1.0  0.4024263793033784  0.6490010329818718  0.7216916710595881  1.0000
  O   O3        1.0  0.7626186817238932  0.2565371551466953  0.002071190266391909  1.0000
  O   O4        1.0  0.2373827037277679  0.7434600624474256  0.9979281745956782  1.0000
  O   O5        1.0  0.5678007896574329  0.12151603545686382  0.1436599874681264  1.0000
  O   O6        1.0  0.43220032580658363  0.8784849433637305  0.8563381312019799  1.0000
  O   O7        1.0  0.8479021706251046  0.0742126979674822  0.21081893682751482  1.0000
  O   O8        1.0  0.15209788367268118  0.9257909110309015  0.7891827090035973  1.0000
  O   O9        1.0  0.45201172917390414  0.8594598560358476  0.17332247513090232  1.0000
  O   O10       1.0  0.5479896399777006  0.14054358396838046  0.8266731992051674  1.0000
