data_image0
_chemical_formula_structural       Zn2H46C64N10O8
_chemical_formula_sum              "Zn2 H46 C64 N10 O8"
_cell_length_a       9.805985413856032
_cell_length_b       10.0864312212099
_cell_length_c       14.976092228380885
_cell_angle_alpha    72.88941810530612
_cell_angle_beta     84.23013705335455
_cell_angle_gamma    63.62069591945097

_space_group_name_H-M_alt    "P 1"
_space_group_IT_number       1

loop_
  _space_group_symop_operation_xyz
  'x, y, z'

loop_
  _atom_site_type_symbol
  _atom_site_label
  _atom_site_symmetry_multiplicity
  _atom_site_fract_x
  _atom_site_fract_y
  _atom_site_fract_z
  _atom_site_occupancy
  Zn  Zn1       1.0  0.2684174778733349  0.2733747032877716  0.3463852249682945  1.0000
  Zn  Zn2       1.0  0.7315731415345536  0.7266331884054864  0.6536155332146764  1.0000
  H   H1        1.0  0.5445214725624935  0.35277120049235583  0.5424926558505945  1.0000
  H   H2        1.0  0.4554818819718846  0.6472309392097415  0.4575077443927428  1.0000
  H   H3        1.0  0.5851073926751055  0.41828591826264033  0.6821953707106445  1.0000
  H   H4        1.0  0.4148964297323584  0.5817127622487349  0.31780635175208266  1.0000
  H   H5        1.0  0.10982450670879011  0.5492489725061988  0.7456392135719342  1.0000
  H   H6        1.0  0.8901773018698478  0.4507520106997874  0.2543588453957213  1.0000
  H   H7        1.0  0.06959812143362848  0.5009605493721097  0.6011132515838541  1.0000
  H   H8        1.0  0.9304020773911218  0.49903466546153646  0.39888672211063186  1.0000
  H   H9        1.0  0.20038816940773063  0.38506864948226394  0.8877261022740158  1.0000
  H   H10       1.0  0.7996115915364683  0.6149323309666314  0.11227142282468353  1.0000
  H   H11       1.0  0.13054565408147314  0.36450776361558457  0.05221865560778134  1.0000
  H   H12       1.0  0.8694525532808084  0.6354920622828433  0.9477805347146956  1.0000
  H   H13       1.0  0.3313428981252359  0.6599343426167578  0.06612781364872689  1.0000
  H   H14       1.0  0.6686608993738189  0.34006203017299447  0.9338723641907621  1.0000
  H   H15       1.0  0.3959968272696555  0.6877146051862938  0.9000387716600571  1.0000
  H   H16       1.0  0.6040069976798745  0.31228407467653346  0.09996161530285967  1.0000
  H   H17       1.0  0.5747339903408533  0.9271927089418168  0.4169908111494679  1.0000
  H   H18       1.0  0.42525816536672056  0.0728140276346352  0.5830027306870422  1.0000
  H   H19       1.0  0.3928243873006139  0.21502608778563834  0.14817604802471612  1.0000
  H   H20       1.0  0.6071672291095424  0.7849794980509515  0.8518244340943611  1.0000
  H   H21       1.0  0.7698732321141148  0.8045843926082271  0.28561603126909324  1.0000
  H   H22       1.0  0.23012294998007118  0.1954177389032807  0.7143855053074759  1.0000
  H   H23       1.0  0.4610788250182478  0.17542221567706662  0.021155463337237317  1.0000
  H   H24       1.0  0.5389163676998547  0.8245822197454586  0.9788423428037804  1.0000
  H   H25       1.0  0.5801253764700433  0.1803852486578919  0.8694938427541319  1.0000
  H   H26       1.0  0.41987637339456535  0.8196111213747699  0.13050580121640115  1.0000
  H   H27       1.0  0.0056986836575773905  0.8217105792682274  0.005042469001580213  1.0000
  H   H28       1.0  0.9942959461257246  0.17829039736854208  0.9949600650488578  1.0000
  H   H29       1.0  0.8895366589664349  0.8198431322153326  0.15814966877028527  1.0000
  H   H30       1.0  0.11045645104056938  0.18015899532267093  0.8418514008778005  1.0000
  H   H31       1.0  0.7717027807107185  0.26373920596513056  0.7896547930617714  1.0000
  H   H32       1.0  0.22829899406230683  0.7362594717891537  0.21034639553200662  1.0000
  H   H33       1.0  0.8962561636276688  0.2853361769719385  0.640350720619999  1.0000
  H   H34       1.0  0.1037481291949475  0.7146590437001663  0.359650988562315  1.0000
  H   H35       1.0  0.1381269914771862  0.787387192182436  0.7103268701693041  1.0000
  H   H36       1.0  0.8618742841591853  0.21261263866231417  0.2896747903313752  1.0000
  H   H37       1.0  0.007776441107459648  0.767392732335459  0.8582721416112877  1.0000
  H   H38       1.0  0.9922237864387924  0.23260478924698455  0.14172737345671044  1.0000
  H   H39       1.0  0.03851751935975758  0.29098091729910897  0.5253910481949049  1.0000
  H   H40       1.0  0.9614857739185322  0.709016609878205  0.474612272551127  1.0000
  H   H41       1.0  0.30268739044207377  0.9280135247003046  0.405571714711158  1.0000
  H   H42       1.0  0.697309295872884  0.0719874524236346  0.5944266789588752  1.0000
  H   H43       1.0  0.20585476611428524  0.8060995268877562  0.5757517662226946  1.0000
  H   H44       1.0  0.7941424455167546  0.19390260454306235  0.424247032413767  1.0000
  H   H45       1.0  0.4819537948279445  0.5392066740067849  0.794036545355759  1.0000
  H   H46       1.0  0.518047484621519  0.4607931558651473  0.2059631118951941  1.0000
  C   C1        1.0  0.2765064981350632  0.39730647400391916  0.474330968270401  1.0000
  C   C2        1.0  0.7235003440006976  0.6026875956862555  0.5256694673741436  1.0000
  C   C3        1.0  0.3037497419114387  0.42651861223549054  0.5610219140872916  1.0000
  C   C4        1.0  0.6962525319982261  0.573478912428321  0.4389788025995784  1.0000
  C   C5        1.0  0.4501095820494782  0.39749578298691546  0.586894174703808  1.0000
  C   C6        1.0  0.549892195265599  0.6025028941188212  0.4131056783901457  1.0000
  C   C7        1.0  0.4735786799973241  0.4311252871215885  0.6656084528123927  1.0000
  C   C8        1.0  0.5264226581661686  0.5688791559236679  0.3343896194356759  1.0000
  C   C9        1.0  0.3521061678352097  0.48661689164200794  0.7243733503824288  1.0000
  C   C10       1.0  0.6478976571143206  0.5133817882208194  0.2756270365804879  1.0000
  C   C11       1.0  0.2064041171195469  0.5076404940544279  0.7017475656929406  1.0000
  C   C12       1.0  0.7936001782451286  0.49235472596912905  0.2982528079895559  1.0000
  C   C13       1.0  0.18308127513889613  0.4814931439504946  0.6194882914051905  1.0000
  C   C14       1.0  0.8169205021761883  0.518505533155242  0.38051156168876343  1.0000
  C   C15       1.0  0.3119558217097236  0.5315257908484058  0.8832771346513937  1.0000
  C   C16       1.0  0.6880439354213904  0.4684751905733152  0.11672239369703158  1.0000
  C   C17       1.0  0.22746213925029912  0.44805449092503846  0.9254785261150148  1.0000
  C   C18       1.0  0.7725391114776624  0.5519430321980893  0.07452158976242632  1.0000
  C   C19       1.0  0.18819787584124  0.43624284686757164  0.018662012069185604  1.0000
  C   C20       1.0  0.8118033748867216  0.563754676255556  0.9813381038082555  1.0000
  C   C21       1.0  0.23029665921357179  0.5065861726633969  0.07223112964250337  1.0000
  C   C22       1.0  0.7697040923777365  0.4934125035502035  0.9277694581418388  1.0000
  C   C23       1.0  0.30101844535700195  0.6015194867022019  0.026608881277951506  1.0000
  C   C24       1.0  0.69898382855267  0.3984780379616097  0.9733918354089184  1.0000
  C   C25       1.0  0.3382220336653105  0.6163706004039895  0.9340093960916961  1.0000
  C   C26       1.0  0.6617807668314767  0.38362807824242406  0.06599105781169361  1.0000
  C   C27       1.0  0.23060854771128436  0.4607534696768951  0.17624217464253894  1.0000
  C   C28       1.0  0.7693932283327668  0.5392452077531188  0.8237583462013235  1.0000
  C   C29       1.0  0.5670137817354473  0.971231958854524  0.3413384391082063  1.0000
  C   C30       1.0  0.432980913117035  0.028773629334196502  0.658659171189811  1.0000
  C   C31       1.0  0.4677471041400522  0.1220782018523749  0.20400062066565283  1.0000
  C   C32       1.0  0.5322485889857305  0.8779250801554143  0.7959960458185478  1.0000
  C   C33       1.0  0.6651566906902173  0.9091736136922394  0.27695462604167187  1.0000
  C   C34       1.0  0.3348472255079358  0.0908319851198911  0.7230417140421538  1.0000
  C   C35       1.0  0.6673630308414288  0.9985903392475778  0.10088005660797715  1.0000
  C   C36       1.0  0.33263370783241436  0.0014152526710589002  0.8991200908087222  1.0000
  C   C37       1.0  0.5809307029559178  0.098049521501423  0.018883730659816016  1.0000
  C   C38       1.0  0.41906503871565104  0.9019583762738816  0.981116692820777  1.0000
  C   C39       1.0  0.6486849545254642  0.10093222464242758  0.9326452187728409  1.0000
  C   C40       1.0  0.351313748160379  0.8990664491383529  0.06735550289245401  1.0000
  C   C41       1.0  0.8028680653465726  0.0030027728772524  0.9257056459478221  1.0000
  C   C42       1.0  0.1971275390726531  0.9969935895326714  0.07429373191565962  1.0000
  C   C43       1.0  0.8857139196982898  0.8986891558552657  0.00831660841178922  1.0000
  C   C44       1.0  0.11428071262707108  0.10131182013294898  0.9916845901388315  1.0000
  C   C45       1.0  0.8197511312694554  0.8967133069900798  0.09522095043394074  1.0000
  C   C46       1.0  0.18024305936225457  0.10329343558620958  0.9047798027706122  1.0000
  C   C47       1.0  0.8777494248799229  0.013650290166154402  0.8352021626924542  1.0000
  C   C48       1.0  0.12225027480818076  0.9863460777579579  0.16479828290893284  1.0000
  C   C49       1.0  0.8489128213434967  0.15801585118650507  0.7719296942488469  1.0000
  C   C50       1.0  0.15108638047899334  0.8419816695038096  0.22807055550954658  1.0000
  C   C51       1.0  0.9213614999465775  0.17070826280148316  0.6870831028791217  1.0000
  C   C52       1.0  0.07864229373938504  0.8292881109610873  0.31291907821009357  1.0000
  C   C53       1.0  0.025424930855571393  0.036719388402993006  0.6642826478945594  1.0000
  C   C54       1.0  0.9745768439174466  0.9632792893512915  0.33571854069921164  1.0000
  C   C55       1.0  0.05696873004330868  0.8922077787293007  0.7269132734706361  1.0000
  C   C56       1.0  0.9430335425953299  0.10778974625878128  0.27308811096613544  1.0000
  C   C57       1.0  0.9834944858331053  0.8812141164053958  0.8112374558725719  1.0000
  C   C58       1.0  0.016508284671154186  0.118782255816491  0.1887641244072071  1.0000
  C   C59       1.0  0.09656962442368669  0.1768300876182494  0.5148748346802634  1.0000
  C   C60       1.0  0.9034326444018603  0.823167438342658  0.48512855300624125  1.0000
  C   C61       1.0  0.23287973784248794  0.9853680298640981  0.45589846585397725  1.0000
  C   C62       1.0  0.7671144291518457  0.014636404666298104  0.544100074977429  1.0000
  C   C63       1.0  0.18607924961721525  0.923603517682892  0.5403223679642934  1.0000
  C   C64       1.0  0.8139210341010141  0.07639861772143061  0.4596768976006445  1.0000
  N   N1        1.0  0.4444535780562404  0.10446676825780091  0.2947431339069979  1.0000
  N   N2        1.0  0.5555375206640109  0.8955376613262729  0.7052529367461986  1.0000
  N   N3        1.0  0.6015362837831474  0.0063694593646417  0.18949016679547273  1.0000
  N   N4        1.0  0.3984604587037807  0.9936361315811764  0.8105079773715007  1.0000
  N   N5        1.0  0.09917231791125397  0.046018864875677  0.577359083570663  1.0000
  N   N6        1.0  0.9008299521853187  0.9539786607609528  0.42264363636593333  1.0000
  N   N7        1.0  0.1769047929500047  0.1428818512241321  0.44077058578006506  1.0000
  N   N8        1.0  0.8230919144602707  0.857121434594255  0.5592313557629327  1.0000
  N   N9        1.0  0.38169717023059474  0.5277906537961671  0.7984187899620778  1.0000
  N   N10       1.0  0.6183041379403631  0.4722114828245624  0.2015804086623874  1.0000
  O   O1        1.0  0.3861648088080754  0.28976815987920906  0.44531007078941803  1.0000
  O   O2        1.0  0.6138435843675436  0.7102270650099883  0.5546900351311806  1.0000
  O   O3        1.0  0.14680548497504725  0.4740445810822678  0.432291731269963  1.0000
  O   O4        1.0  0.8532013609738129  0.5259494876350885  0.5677067011248554  1.0000
  O   O5        1.0  0.1526455068100461  0.38718152384046783  0.21925664626300556  1.0000
  O   O6        1.0  0.8473552498653941  0.6128171510760367  0.780741270521702  1.0000
  O   O7        1.0  0.3207581751157987  0.4804248068784887  0.22063333974131893  1.0000
  O   O8        1.0  0.6792435422142232  0.5195692573781939  0.7793687661054278  1.0000
