data_image0
_chemical_formula_structural       Cu2H28C36S4N8O8
_chemical_formula_sum              "Cu2 H28 C36 S4 N8 O8"
_cell_length_a       8.657574397581
_cell_length_b       9.290041382708539
_cell_length_c       12.563574184004404
_cell_angle_alpha    90.00008622594603
_cell_angle_beta     90.00000759074874
_cell_angle_gamma    112.32288027037772

_space_group_name_H-M_alt    "P 1"
_space_group_IT_number       1

loop_
  _space_group_symop_operation_xyz
  'x, y, z'

loop_
  _atom_site_type_symbol
  _atom_site_label
  _atom_site_symmetry_multiplicity
  _atom_site_fract_x
  _atom_site_fract_y
  _atom_site_fract_z
  _atom_site_occupancy
  Cu  Cu1       1.0  0.4999997879018208  0.5000003544232144  0.4999989438516863  1.0000
  Cu  Cu2       1.0  0.9999987233410367  0.4999997775554375  1.1253961176000003e-06  1.0000
  H   H1        1.0  0.01997508159746534  0.3950638344543335  0.3922198182964109  1.0000
  H   H2        1.0  0.48002678040199237  0.6049348508121141  0.8922193941168004  1.0000
  H   H3        1.0  0.9800235357111688  0.6049345471641914  0.6077796613093014  1.0000
  H   H4        1.0  0.519976928148253  0.39506467431453973  0.1077800854898072  1.0000
  H   H5        1.0  0.25403972409132075  0.8216108861901289  0.3817628529180865  1.0000
  H   H6        1.0  0.24595847220059142  0.1783901208841953  0.8817659086840379  1.0000
  H   H7        1.0  0.745959372465286  0.1783886590433141  0.6182366266883008  1.0000
  H   H8        1.0  0.7540427358522307  0.8216117465562859  0.11823675473111449  1.0000
  H   H9        1.0  0.05425796926842703  0.6661795978656568  0.3998563333412264  1.0000
  H   H10       1.0  0.4457446656438222  0.3338237655359676  0.8998579908532918  1.0000
  H   H11       1.0  0.9457427595350294  0.3338211059569857  0.600143942217727  1.0000
  H   H12       1.0  0.5542568271535799  0.6661815977740344  0.10014308066014621  1.0000
  H   H13       1.0  0.7121775297439753  0.16845069496191198  0.0181924051437861  1.0000
  H   H14       1.0  0.7878191759958496  0.8315506551064968  0.5181930106075328  1.0000
  H   H15       1.0  0.2878190663133466  0.8315511925814646  0.9818070744637809  1.0000
  H   H16       1.0  0.2121836643014916  0.16845237091832388  0.4818064690009862  1.0000
  H   H17       1.0  0.7328503274502863  0.0906155718880299  0.4149059035586832  1.0000
  H   H18       1.0  0.7671490573347625  0.9093809086641257  0.9149073897995095  1.0000
  H   H19       1.0  0.2671489636083136  0.9093816410879041  0.5850927800945769  1.0000
  H   H20       1.0  0.23285206047408014  0.09061513064640538  0.085093681708706  1.0000
  H   H21       1.0  0.5268585180007861  0.8901270072712179  0.3022282131434437  1.0000
  H   H22       1.0  0.973141214444652  0.10987036176817357  0.8022296233576327  1.0000
  H   H23       1.0  0.47314009930737905  0.1098713743463335  0.6977704705104272  1.0000
  H   H24       1.0  0.026857882112416475  0.8901291834662427  0.197770652200596  1.0000
  H   H25       1.0  0.5104426306331432  0.9291853170971293  0.10769919611162491  1.0000
  H   H26       1.0  0.9895550478880678  0.07081275062475356  0.6077005643666809  1.0000
  H   H27       1.0  0.4895536806782061  0.0708130745738131  0.8922994875421396  1.0000
  H   H28       1.0  0.010444333414511625  0.9291902904811308  0.3922997111935161  1.0000
  C   C1        1.0  0.2680707211713056  0.6085476427112154  0.44499314891567815  1.0000
  C   C2        1.0  0.23192822271201405  0.39145235011064017  0.9449948492639422  1.0000
  C   C3        1.0  0.7319278961363976  0.3914507389053625  0.5550047387863515  1.0000
  C   C4        1.0  0.7680723115889733  0.608550685968545  0.055005426296311596  1.0000
  C   C5        1.0  0.032352216712233414  0.46828818126442673  0.2321308619910099  1.0000
  C   C6        1.0  0.4676471523344077  0.5317101231616164  0.7321295588545099  1.0000
  C   C7        1.0  0.9676445738480196  0.5317113740233809  0.7678694135671124  1.0000
  C   C8        1.0  0.5323544447205535  0.46828707975994616  0.2678683288470154  1.0000
  C   C9        1.0  0.1852402267027812  0.6954132579304824  0.3775689087538082  1.0000
  C   C10       1.0  0.3147612291837376  0.30459005607905704  0.8775713163985516  1.0000
  C   C11       1.0  0.8147593491017987  0.30458745091788586  0.622430570853254  1.0000
  C   C12       1.0  0.6852420903634382  0.6954141335645685  0.12243134701800071  1.0000
  C   C13       1.0  0.8387314883564727  0.24113232031299955  0.2788117593034443  1.0000
  C   C14       1.0  0.6612686959901594  0.7588661551637441  0.7788122708798896  1.0000
  C   C15       1.0  0.16126482295533856  0.7588660713589163  0.7211877203021544  1.0000
  C   C16       1.0  0.3387381868102679  0.24112985901232512  0.2211880046767547  1.0000
  C   C17       1.0  0.833264942387821  0.26265510050580326  0.16736736999286708  1.0000
  C   C18       1.0  0.6667321320647374  0.7373442815506834  0.6673686540399757  1.0000
  C   C19       1.0  0.1667295421751404  0.7373444648344287  0.8326321096133  1.0000
  C   C20       1.0  0.3332734032348128  0.2626540699086277  0.33263162151790476  1.0000
  C   C21       1.0  0.7156277367370764  0.15088607977557436  0.10372538033414712  1.0000
  C   C22       1.0  0.7843697426400593  0.8491143104980166  0.603725209110401  1.0000
  C   C23       1.0  0.28436838007273474  0.8491146441538573  0.8962748952245863  1.0000
  C   C24       1.0  0.21563329215974386  0.15088638327026155  0.39627427049682507  1.0000
  C   C25       1.0  0.7285786099697374  0.10808701517019867  0.3294007865894102  1.0000
  C   C26       1.0  0.7714211542080134  0.891910420216156  0.8294014578007776  1.0000
  C   C27       1.0  0.2714195280909165  0.8919102028334006  0.6705986930156271  1.0000
  C   C28       1.0  0.22858111659877517  0.10808561406670236  0.1705988177556463  1.0000
  C   C29       1.0  0.6115921070802627  0.9971107562690158  0.2653032752818021  1.0000
  C   C30       1.0  0.8884057554940198  0.0028876962771278002  0.7653037615658462  1.0000
  C   C31       1.0  0.38840420423154837  0.002887635402899501  0.7346962043238037  1.0000
  C   C32       1.0  0.11159401481394571  0.9971106803166376  0.23469730994360563  1.0000
  C   C33       1.0  0.6047530605691094  0.0186319378407731  0.1545651328553745  1.0000
  C   C34       1.0  0.8952446726833184  0.9813662443149548  0.6545667123588572  1.0000
  C   C35       1.0  0.39524372999021296  0.9813676174450946  0.8454335507990578  1.0000
  C   C36       1.0  0.10475557687215799  0.01863329589276219  0.3454335631994283  1.0000
  S   S1        1.0  0.19512295599773924  0.6483058563538149  0.2376397533702814  1.0000
  S   S2        1.0  0.30487824623241977  0.3516912878577471  0.7376406207119005  1.0000
  S   S3        1.0  0.8048749875609216  0.3516936939073004  0.7623605221878904  1.0000
  S   S4        1.0  0.6951220033235258  0.6483082523509438  0.2623604507982265  1.0000
  N   N1        1.0  0.9549941008672818  0.4063243209932209  0.1412880942570993  1.0000
  N   N2        1.0  0.5450040961266963  0.5936749923560782  0.6412876137381006  1.0000
  N   N3        1.0  0.04500201594252928  0.5936764029362108  0.858712181301634  1.0000
  N   N4        1.0  0.45499913317557616  0.40632336915565753  0.3587118658678322  1.0000
  N   N5        1.0  0.9667091199633333  0.3726428930916014  0.316584529722661  1.0000
  N   N6        1.0  0.5332906292471193  0.6273545110006324  0.8165848815832676  1.0000
  N   N7        1.0  0.03328786509938201  0.6273543299396636  0.6834157458341608  1.0000
  N   N8        1.0  0.4667121208076422  0.37264268689715146  0.1834153939738385  1.0000
  O   O1        1.0  0.17991105462828466  0.4782216170442765  0.4848312573111144  1.0000
  O   O2        1.0  0.3200905265208219  0.5217819588684518  0.9848323160962592  1.0000
  O   O3        1.0  0.8200887156778264  0.5217767595456095  0.5151666303909721  1.0000
  O   O4        1.0  0.6799121192745189  0.4782233994138777  0.015167959465394199  1.0000
  O   O5        1.0  0.4274832727390603  0.6722473341026003  0.4511522678419553  1.0000
  O   O6        1.0  0.0725189428297313  0.32775499093445853  0.9511538810288513  1.0000
  O   O7        1.0  0.5725169768154854  0.32775220610317746  0.5488464158126476  1.0000
  O   O8        1.0  0.9274838974690098  0.6722480350932755  0.0488479864351916  1.0000
