data_image0
_chemical_formula_structural       Zn2H24C46SN4O15
_chemical_formula_sum              "Zn2 H24 C46 S1 N4 O15"
_cell_length_a       9.72192201522013
_cell_length_b       11.152777947057654
_cell_length_c       28.048973114610334
_cell_angle_alpha    90.71329751574699
_cell_angle_beta     90.57823829555261
_cell_angle_gamma    89.45115873611005

_space_group_name_H-M_alt    "P 1"
_space_group_IT_number       1

loop_
  _space_group_symop_operation_xyz
  'x, y, z'

loop_
  _atom_site_type_symbol
  _atom_site_label
  _atom_site_symmetry_multiplicity
  _atom_site_fract_x
  _atom_site_fract_y
  _atom_site_fract_z
  _atom_site_occupancy
  Zn  Zn1       1.0  0.6370741110305501  0.5018126873532084  0.5017774605968272  1.0000
  Zn  Zn2       1.0  0.35412763058646857  0.5173966947913939  0.500218569349876  1.0000
  H   H1        1.0  0.7163038473674063  0.5162463814370924  0.3514764829617861  1.0000
  H   H2        1.0  0.2797993825079316  0.5026843298385016  0.25761021680636287  1.0000
  H   H3        1.0  0.5079628533444306  0.20045641274543866  0.12341134333976812  1.0000
  H   H4        1.0  0.4825063633974763  0.19271345250226793  0.9659425269663728  1.0000
  H   H5        1.0  0.2603652880223635  0.48556660421945697  0.6545722722087035  1.0000
  H   H6        1.0  0.4777962159299562  0.19388120038211548  0.8776520609511781  1.0000
  H   H7        1.0  0.2715260291857433  0.48312938422415647  0.744081124635791  1.0000
  H   H8        1.0  0.5053757262981478  0.19405853984939364  0.035153778817068805  1.0000
  H   H9        1.0  0.5670791047841918  0.09261789640083865  0.479741132042733  1.0000
  H   H10       1.0  0.3087241048768661  0.8943990134350414  0.5238834473477426  1.0000
  H   H11       1.0  0.7217157924392693  0.5110127214671892  0.26198395490865073  1.0000
  H   H12       1.0  0.6239143998428034  0.9140384772871358  0.5205467437473602  1.0000
  H   H13       1.0  0.8836401817493567  0.33036281024878633  0.5294706949719911  1.0000
  H   H14       1.0  0.893222027565123  0.5828698074820197  0.5021703007058989  1.0000
  H   H15       1.0  0.13462890974147967  0.3905821809908545  0.5544381420640648  1.0000
  H   H16       1.0  0.0890704424810451  0.5326346186343472  0.4684568810020338  1.0000
  H   H17       1.0  0.5016711609731104  0.8023186630872984  0.12325094897000352  1.0000
  H   H18       1.0  0.7006310486787798  0.4981100497657208  0.6494423876434183  1.0000
  H   H19       1.0  0.7128944156123468  0.4975318498531536  0.7389738249412119  1.0000
  H   H20       1.0  0.5305873537064798  0.7934061349060998  0.8777683661783655  1.0000
  H   H21       1.0  0.52947939264741  0.7999310265103504  0.9660477210230101  1.0000
  H   H22       1.0  0.5050389787440892  0.8029967840733575  0.0349859483549437  1.0000
  H   H23       1.0  0.275311768231397  0.50868832527658  0.3470863018366472  1.0000
  H   H24       1.0  0.160433589503711  0.9886791182379184  0.5895473127970521  1.0000
  C   C1        1.0  0.5161945449599229  0.742837753550148  0.510479616135072  1.0000
  C   C2        1.0  0.6243670693036449  0.510378789063779  0.28091415471762105  1.0000
  C   C3        1.0  0.5009873186459117  0.5064671355955851  0.2552101812316394  1.0000
  C   C4        1.0  0.5054017208575985  0.5007099452701952  0.10257645904699333  1.0000
  C   C5        1.0  0.504260536594984  0.6114599683020503  0.1278398529412854  1.0000
  C   C6        1.0  0.5036814195095332  0.7183211212515345  0.10294785885930223  1.0000
  C   C7        1.0  0.5059577839126064  0.39165170569316393  0.1279463690707701  1.0000
  C   C8        1.0  0.49555271111935895  0.5129511941063711  0.354448737378533  1.0000
  C   C9        1.0  0.4799915274206228  0.49250343848957107  0.6470022415413939  1.0000
  C   C10       1.0  0.5116940530614826  0.6083875209530376  0.9744729024386205  1.0000
  C   C11       1.0  0.4989420541127814  0.38488734167674465  0.9744547261683041  1.0000
  C   C12       1.0  0.4921650199187155  0.515182335499503  0.4079056638116398  1.0000
  C   C13       1.0  0.5048407825591283  0.4958789315087699  0.9495889296129933  1.0000
  C   C14       1.0  0.521723388694312  0.71337936858194  0.947896429392401  1.0000
  C   C15       1.0  0.5226452373331938  0.7111358701969622  0.8981117250915178  1.0000
  C   C16       1.0  0.5127571558709718  0.6030908830007746  0.8732515072137021  1.0000
  C   C17       1.0  0.5038043376000444  0.4943428462878998  0.8985397802851267  1.0000
  C   C18       1.0  0.4938771599278553  0.38404750018123934  0.8732068190781634  1.0000
  C   C19       1.0  0.4903468591765047  0.3802129197285851  0.820425165800849  1.0000
  C   C20       1.0  0.511516064576945  0.6039340879307601  0.8204937210883971  1.0000
  C   C21       1.0  0.6142697443048137  0.49439893605717355  0.7201927893110138  1.0000
  C   C22       1.0  0.6075676556926339  0.49500174838436817  0.6706344982848266  1.0000
  C   C23       1.0  0.5017972054305275  0.2731751045497433  0.5003499598972638  1.0000
  C   C24       1.0  0.3587809732160991  0.488148704275403  0.6734369817378367  1.0000
  C   C25       1.0  0.36495116911654435  0.48684487301272134  0.7230149935688461  1.0000
  C   C26       1.0  0.4926664834880228  0.49064087877442125  0.7459992754489451  1.0000
  C   C27       1.0  0.5077552597720185  0.610157377929056  0.0266196702670598  1.0000
  C   C28       1.0  0.5055968937779696  0.4990624986561443  0.051521202873381404  1.0000
  C   C29       1.0  0.5034345334897452  0.38637294169548414  0.026638314798660207  1.0000
  C   C30       1.0  0.5057274890500949  0.7173165583176697  0.053174082000325015  1.0000
  C   C31       1.0  0.5066834443704166  0.2831800527168086  0.10308267259253513  1.0000
  C   C32       1.0  0.4889797477941046  0.2782020340272808  0.9478246724200192  1.0000
  C   C33       1.0  0.4861015105563595  0.2774377133798538  0.8980335209426614  1.0000
  C   C34       1.0  0.4743172618699063  0.4966427390917828  0.5937289725229532  1.0000
  C   C35       1.0  0.5050457765669734  0.28096550620602306  0.0532839341278688  1.0000
  C   C36       1.0  0.4054717664330099  0.07188319148966121  0.5269495033614932  1.0000
  C   C37       1.0  0.4926850148528743  0.14021609763923237  0.5021623625741043  1.0000
  C   C38       1.0  0.40680847143647003  0.9414287984136396  0.523433495941454  1.0000
  C   C39       1.0  0.5217431168156353  0.8745770621150796  0.5184271184341469  1.0000
  C   C40       1.0  0.9277012719726018  0.41750858089398696  0.5209277545651078  1.0000
  C   C41       1.0  0.07818421033933022  0.43438819758379305  0.5253787457713983  1.0000
  C   C42       1.0  0.5023815751278632  0.6156753444326526  0.18058547546116446  1.0000
  C   C43       1.0  0.5057284859645961  0.3910014745289486  0.18073643970290484  1.0000
  C   C44       1.0  0.3749170043438427  0.5057815113457736  0.2784651945796455  1.0000
  C   C45       1.0  0.3724382310244607  0.5091838991195915  0.3280762925741243  1.0000
  C   C46       1.0  0.6214336795231716  0.5134439304153205  0.33053626489454774  1.0000
  S   S1        1.0  0.27533419879106447  0.1378073260701527  0.5647055076764645  1.0000
  N   N1        1.0  0.5035452200701585  0.504139213251868  0.20368483232336135  1.0000
  N   N2        1.0  0.4985846169586097  0.49153371686400493  0.7974698733661186  1.0000
  N   N3        1.0  0.8464712177541216  0.5020597649690615  0.5079300146273766  1.0000
  N   N4        1.0  0.14550267654841056  0.4987715544316913  0.4964779743551874  1.0000
  O   O1        1.0  0.6316605580174297  0.6875978947197651  0.5091884715991597  1.0000
  O   O2        1.0  0.5203029453611022  0.6964993164607735  0.7973868021971813  1.0000
  O   O3        1.0  0.5070861444709892  0.29818822783609283  0.20395966712455055  1.0000
  O   O4        1.0  0.4807023841652835  0.28629019392256083  0.7972647214568767  1.0000
  O   O5        1.0  0.3978638180792373  0.6955650797683645  0.5053716548167346  1.0000
  O   O6        1.0  0.6075956164709879  0.5129864160820788  0.429985047084081  1.0000
  O   O7        1.0  0.37451573052855736  0.5183065384026122  0.4275141556286144  1.0000
  O   O8        1.0  0.6230643246499881  0.3144398033474758  0.4976952967264055  1.0000
  O   O9        1.0  0.389812926734237  0.33231109921332097  0.499868969616749  1.0000
  O   O10       1.0  0.5890109177730523  0.4875469664654518  0.5721763544923918  1.0000
  O   O11       1.0  0.3572419637232969  0.5103299696569936  0.5736621809344771  1.0000
  O   O12       1.0  0.49977836126891634  0.7100875598898  0.20370269879565234  1.0000
  O   O13       1.0  0.3337514940525068  0.22977795150703878  0.5943776572140395  1.0000
  O   O14       1.0  0.1499305901791885  0.15783708588238451  0.5375134935759647  1.0000
  O   O15       1.0  0.24579795262080492  0.027137371589645902  0.6000121604050008  1.0000
