data_image0
_chemical_formula_structural       Cd4H36C48N16O16
_chemical_formula_sum              "Cd4 H36 C48 N16 O16"
_cell_length_a       7.505575470605075
_cell_length_b       10.708665972019876
_cell_length_c       17.539328793145184
_cell_angle_alpha    90.00011962124975
_cell_angle_beta     95.24538652081715
_cell_angle_gamma    89.9998043091431

_space_group_name_H-M_alt    "P 1"
_space_group_IT_number       1

loop_
  _space_group_symop_operation_xyz
  'x, y, z'

loop_
  _atom_site_type_symbol
  _atom_site_label
  _atom_site_symmetry_multiplicity
  _atom_site_fract_x
  _atom_site_fract_y
  _atom_site_fract_z
  _atom_site_occupancy
  Cd  Cd1       1.0  0.7500024832307658  0.5392902917430504  0.500000027449161  1.0000
  Cd  Cd2       1.0  0.2500027238938713  0.46071060649237666  0.49999833010360095  1.0000
  Cd  Cd3       1.0  0.7499997905845888  0.9352155000883541  1.6567925271983396e-06  1.0000
  Cd  Cd4       1.0  0.24999995829141147  0.06478446433591499  0.9999998774215367  1.0000
  H   H1        1.0  0.07014116314800128  0.7292440241776814  0.628920618911273  1.0000
  H   H2        1.0  0.42985891594408093  0.7292403500982585  0.37107956988020147  1.0000
  H   H3        1.0  0.9298572657268451  0.27075500642395406  0.3710802859693486  1.0000
  H   H4        1.0  0.5701528912036834  0.27075774666528923  0.6289219343357004  1.0000
  H   H5        1.0  0.8738948438971902  0.9769333277368302  0.7541266287201578  1.0000
  H   H6        1.0  0.6260987590440126  0.9769290158334268  0.24587234371495725  1.0000
  H   H7        1.0  0.1260982514887701  0.023067570516054993  0.24587346702780613  1.0000
  H   H8        1.0  0.37390373678331196  0.023070014760726596  0.7541270327683376  1.0000
  H   H9        1.0  0.0811076252923542  0.9300815090890849  0.7203340753052102  1.0000
  H   H10       1.0  0.41888618672282263  0.9300766134685002  0.2796655227333672  1.0000
  H   H11       1.0  0.918884132264367  0.06992032298843039  0.2796659605096821  1.0000
  H   H12       1.0  0.5811189312895664  0.06992148330252947  0.7203356818146387  1.0000
  H   H13       1.0  0.09450151046583241  0.7476779727628866  0.8089120985706868  1.0000
  H   H14       1.0  0.40549316727634743  0.747673738777699  0.19108673173167998  1.0000
  H   H15       1.0  0.9054942427461868  0.2523247931342709  0.19108868644480026  1.0000
  H   H16       1.0  0.5945038703001658  0.25232529182843416  0.8089158214134142  1.0000
  H   H17       1.0  0.8816431160353279  0.7885542587227616  0.8396697339013668  1.0000
  H   H18       1.0  0.6183500069378097  0.7885496715645031  0.16032954316464296  1.0000
  H   H19       1.0  0.11835393935626123  0.2114485071749001  0.16033224984641237  1.0000
  H   H20       1.0  0.38164711976615  0.2114456237440976  0.8396701629816616  1.0000
  H   H21       1.0  0.995338632259454  0.8444730835807803  0.15835109080065723  1.0000
  H   H22       1.0  0.5046608485956908  0.8444767108971187  0.8416508243386855  1.0000
  H   H23       1.0  0.004662490095462614  0.15552501319373846  0.8416493645472582  1.0000
  H   H24       1.0  0.4953402737505429  0.15552512116992284  0.1583496310112622  1.0000
  H   H25       1.0  0.09414471604295471  0.650630342174473  0.22897348351422406  1.0000
  H   H26       1.0  0.4058516793362515  0.6506355695647769  0.7710275787991561  1.0000
  H   H27       1.0  0.9058564063141361  0.3493668207769075  0.7710269718331801  1.0000
  H   H28       1.0  0.5941494786553251  0.34936719632339913  0.22897173775258745  1.0000
  H   H29       1.0  0.007054995955016404  0.4424438153714545  0.16970159706056615  1.0000
  H   H30       1.0  0.4929424563067712  0.44244623669221994  0.830296391882072  1.0000
  H   H31       1.0  0.9929421485661861  0.5575542814055436  0.8302975396879047  1.0000
  H   H32       1.0  0.5070560438565793  0.5575555953748149  0.16970223540265286  1.0000
  H   H33       1.0  0.8463519669807837  0.32237911587797896  0.059770070484681484  1.0000
  H   H34       1.0  0.6536406117004745  0.32237899037394147  0.9402297186178995  1.0000
  H   H35       1.0  0.15364244840850458  0.677621782374416  0.9402306545962134  1.0000
  H   H36       1.0  0.34635515934180455  0.6776209740528214  0.05977049699671258  1.0000
  C   C1        1.0  0.643204429068419  0.7195848122221519  0.632135004582274  1.0000
  C   C2        1.0  0.8567943301530293  0.7195878384911436  0.3678655760266948  1.0000
  C   C3        1.0  0.35679271545278374  0.2804132845548537  0.367864132166197  1.0000
  C   C4        1.0  0.14321492610250894  0.2804121259146654  0.6321318225275903  1.0000
  C   C5        1.0  0.460482855354492  0.6693994647898193  0.6070844505841888  1.0000
  C   C6        1.0  0.0395201597320138  0.6694061368568213  0.3929163624071989  1.0000
  C   C7        1.0  0.5395130226303095  0.33060049963094673  0.3929123486342973  1.0000
  C   C8        1.0  0.9604944478253118  0.3305966290124047  0.607081275882919  1.0000
  C   C9        1.0  0.9279686471706726  0.7395160005955856  0.6366403227323545  1.0000
  C   C10       1.0  0.5720313394152259  0.7395140890472971  0.363360908879116  1.0000
  C   C11       1.0  0.07202840823176619  0.2604820961864148  0.3633616610128811  1.0000
  C   C12       1.0  0.4279791655507951  0.2604849415388841  0.6366393966050053  1.0000
  C   C13       1.0  0.960018313137198  0.8970287640811773  0.7443536896065763  1.0000
  C   C14       1.0  0.539975661242842  0.8970237577539562  0.2556451959436074  1.0000
  C   C15       1.0  0.0399747822487697  0.10297213417171489  0.2556464061413805  1.0000
  C   C16       1.0  0.46002815458997776  0.10297433901656917  0.7443548098721064  1.0000
  C   C17       1.0  0.004377924261213209  0.8259222046122188  0.8192339772255648  1.0000
  C   C18       1.0  0.49561640758832237  0.8259167859580002  0.18076436875598734  1.0000
  C   C19       1.0  0.9956178467745572  0.17408056128394375  0.18076623839056788  1.0000
  C   C20       1.0  0.5043833947654407  0.17408037699387785  0.8192354572584859  1.0000
  C   C21       1.0  0.10025552454916922  0.9080752855937314  0.8806733575070707  1.0000
  C   C22       1.0  0.39973840758492685  0.9080708189174584  0.11932564720382997  1.0000
  C   C23       1.0  0.89974293996233  0.09192841412156837  0.11932640857737907  1.0000
  C   C24       1.0  0.600258701288773  0.09192727786154357  0.8806746283433425  1.0000
  C   C25       1.0  0.9584123182363484  0.7531162363083225  0.13473559243012548  1.0000
  C   C26       1.0  0.5415835738087084  0.7531207902977285  0.8652660435717505  1.0000
  C   C27       1.0  0.04158611063849802  0.24688279429331308  0.8652653124504963  1.0000
  C   C28       1.0  0.45841487288338106  0.24688104177231196  0.13473429191103747  1.0000
  C   C29       1.0  0.0148724002882688  0.643289558503504  0.17378787688206634  1.0000
  C   C30       1.0  0.48512135356266833  0.643293852130597  0.8262130575816256  1.0000
  C   C31       1.0  0.9851273664158244  0.3567085382735086  0.8262130879316273  1.0000
  C   C32       1.0  0.5148771109531722  0.35670797993843456  0.17378670850180808  1.0000
  C   C33       1.0  0.9644811664736396  0.5295701887172226  0.14151442494121366  1.0000
  C   C34       1.0  0.535514498197742  0.5295738001039894  0.8584846304554643  1.0000
  C   C35       1.0  0.035517280224958404  0.470428841883411  0.8584859105400466  1.0000
  C   C36       1.0  0.46448396631810607  0.4704280319650421  0.14151513562796939  1.0000
  C   C37       1.0  0.8582096791918944  0.5253465121827715  0.07075428483163648  1.0000
  C   C38       1.0  0.6417860051176589  0.5253482449379802  0.9292447659713899  1.0000
  C   C39       1.0  0.14178475402548682  0.47465251842235273  0.9292458708488877  1.0000
  C   C40       1.0  0.35820842809320647  0.4746535871365437  0.07075538971065498  1.0000
  C   C41       1.0  0.8055049748127631  0.6414123265220579  0.03606130322069839  1.0000
  C   C42       1.0  0.6944941656232615  0.641413118629444  0.9639386229865392  1.0000
  C   C43       1.0  0.19449209840908568  0.35858763790520937  0.9639401111262057  1.0000
  C   C44       1.0  0.3055029254201714  0.3585877796199525  0.036062221961515185  1.0000
  C   C45       1.0  0.8027575615838388  0.41085979898213765  0.033799830046156394  1.0000
  C   C46       1.0  0.6972386549206038  0.41086059229132826  0.9661990962687735  1.0000
  C   C47       1.0  0.1972382094584404  0.5891401654446256  0.966200385568456  1.0000
  C   C48       1.0  0.3027557961161804  0.589140305959063  0.03380049001341229  1.0000
  N   N1        1.0  0.8564992853726495  0.7521898918863879  0.06854184638765298  1.0000
  N   N2        1.0  0.6434979666402469  0.7521897605071503  0.9314592791386358  1.0000
  N   N3        1.0  0.14349778784919925  0.24781007254087933  0.9314595679592512  1.0000
  N   N4        1.0  0.35649914222693724  0.24781113774125163  0.06854099641006428  1.0000
  N   N5        1.0  0.7920183899865377  0.6769620907272297  0.6004331100772545  1.0000
  N   N6        1.0  0.707981869554253  0.6769618462447864  0.3995686229162344  1.0000
  N   N7        1.0  0.20798003888614147  0.3230378736975368  0.3995677948038717  1.0000
  N   N8        1.0  0.2920326667145687  0.32303811815903316  0.6004312929697802  1.0000
  N   N9        1.0  0.8615593942050452  0.8170655097911136  0.6877839094888643  1.0000
  N   N10       1.0  0.6384362718841176  0.8170623300631233  0.31221551844689077  1.0000
  N   N11       1.0  0.1384350211864103  0.18293445463814345  0.31221681559152603  1.0000
  N   N12       1.0  0.36157293090016657  0.18293763434568425  0.6877835883054502  1.0000
  N   N13       1.0  0.6810384202340174  0.805453632075256  0.6861581891755292  1.0000
  N   N14       1.0  0.8189586376524645  0.8054537617713179  0.3138412860693761  1.0000
  N   N15       1.0  0.3189560308092894  0.19454446470573566  0.3138413971051292  1.0000
  N   N16       1.0  0.1810506007793222  0.1945462026354932  0.6861566818842559  1.0000
  O   O1        1.0  0.4599130241994942  0.5992346934184382  0.5468870390862504  1.0000
  O   O2        1.0  0.040093028358562315  0.5992378355571188  0.4531126786777263  1.0000
  O   O3        1.0  0.540090952038419  0.40076713863562197  0.45310784213731364  1.0000
  O   O4        1.0  0.9599201878982627  0.4007658641397283  0.5468866078773829  1.0000
  O   O5        1.0  0.33062616887464463  0.694512988328661  0.6436942726800792  1.0000
  O   O6        1.0  0.16937401816422684  0.6945220257827813  0.35630758655143774  1.0000
  O   O7        1.0  0.6693737760691506  0.3054841746152235  0.3563009981395665  1.0000
  O   O8        1.0  0.8306365402665393  0.30547980626979404  0.6436910107361412  1.0000
  O   O9        1.0  0.05524251163669193  0.9005824605414218  0.9493755933841822  1.0000
  O   O10       1.0  0.4447594822824427  0.9005813856272054  0.05062376278269198  1.0000
  O   O11       1.0  0.9447572550587182  0.09941937152811418  0.05062537143154338  1.0000
  O   O12       1.0  0.5552403022454017  0.09941671114880526  0.9493766326316474  1.0000
  O   O13       1.0  0.22318393627183047  0.9792753853331958  0.8620959110935187  1.0000
  O   O14       1.0  0.27680839836796867  0.9792656733175633  0.13790083350324514  1.0000
  O   O15       1.0  0.7768105325821962  0.020728314385593197  0.13790310579083345  1.0000
  O   O16       1.0  0.7231860526905294  0.020725886701505693  0.8620987527738604  1.0000
