data_image0
_chemical_formula_structural       Cd2H44C60N16O8
_chemical_formula_sum              "Cd2 H44 C60 N16 O8"
_cell_length_a       9.251631514241828
_cell_length_b       11.415255982148109
_cell_length_c       13.4577
_cell_angle_alpha    75.83180580487038
_cell_angle_beta     83.32803252452953
_cell_angle_gamma    80.29311790561621

_space_group_name_H-M_alt    "P 1"
_space_group_IT_number       1

loop_
  _space_group_symop_operation_xyz
  'x, y, z'

loop_
  _atom_site_type_symbol
  _atom_site_label
  _atom_site_symmetry_multiplicity
  _atom_site_fract_x
  _atom_site_fract_y
  _atom_site_fract_z
  _atom_site_occupancy
  Cd  Cd1       1.0  0.2755046108212937  0.6505143225739404  0.8120523082760085  1.0000
  Cd  Cd2       1.0  0.7244947350678501  0.3494865077342553  0.18794742296606864  1.0000
  H   H1        1.0  0.5939310234455488  0.7677519762634476  0.9899184880548545  1.0000
  H   H2        1.0  0.40607424405884274  0.2322461143564709  0.010082825168758787  1.0000
  H   H3        1.0  0.7044284896182161  0.8312049830610422  0.1252367183212612  1.0000
  H   H4        1.0  0.2955739609484382  0.1687967604765745  0.8747648045440639  1.0000
  H   H5        1.0  0.2731437736004167  0.9872621930810013  0.2281790926701034  1.0000
  H   H6        1.0  0.72685355587177  0.0127377239977662  0.7718239615098879  1.0000
  H   H7        1.0  0.1640314726625788  0.9184594883210552  0.09431718067501287  1.0000
  H   H8        1.0  0.8359727065812592  0.08153860229887042  0.9056819902635238  1.0000
  H   H9        1.0  0.6229597265728372  0.8664099773336177  0.3191319836204371  1.0000
  H   H10       1.0  0.37704086768101763  0.13358993974514993  0.6808685805864911  1.0000
  H   H11       1.0  0.6460860628037465  0.0086784192106961  0.23291902331204278  1.0000
  H   H12       1.0  0.3539146915542659  0.9913205846386504  0.7670817177127133  1.0000
  H   H13       1.0  0.44797006106956866  0.19148229258357935  0.24402061133564956  1.0000
  H   H14       1.0  0.5520306932884438  0.8085167112657672  0.7559786435510601  1.0000
  H   H15       1.0  0.22875257989834094  0.23237305324632734  0.3975634644422995  1.0000
  H   H16       1.0  0.7712472463032753  0.7676250373735911  0.6024360541842384  1.0000
  H   H17       1.0  0.9338649383270049  0.10603963449961643  0.695485398751863  1.0000
  H   H18       1.0  0.06613053483238925  0.893958456120302  0.30451298142462235  1.0000
  H   H19       1.0  0.994381495135144  0.8946936058061468  0.8084125992700775  1.0000
  H   H20       1.0  0.005615834337049796  0.1053063112726207  0.19158748263382105  1.0000
  H   H21       1.0  0.32729379331641434  0.8105787833038322  0.5909480534335286  1.0000
  H   H22       1.0  0.6727049446246482  0.1894193073160864  0.4090530382530559  1.0000
  H   H23       1.0  0.6009663392798714  0.6758591787619253  0.5188213233998553  1.0000
  H   H24       1.0  0.39903191834871876  0.3241416515462703  0.48117700862617596  1.0000
  H   H25       1.0  0.7971373893086093  0.6187814265691784  0.3885581322996002  1.0000
  H   H26       1.0  0.2028621166846918  0.381218490509589  0.6114410326912816  1.0000
  H   H27       1.0  0.8220116315437379  0.2414277229794664  0.5515122639236408  1.0000
  H   H28       1.0  0.17798803455371373  0.758571280869873  0.4484885640231154  1.0000
  H   H29       1.0  0.6313058272122305  0.3015967567704649  0.6847825107375554  1.0000
  H   H30       1.0  0.3686946069374669  0.6984040735377235  0.3152178766515518  1.0000
  H   H31       1.0  0.05777743738496349  0.3810878987020416  0.4262337731785734  1.0000
  H   H32       1.0  0.9422219085041804  0.6189129316061469  0.5737644719254574  1.0000
  H   H33       1.0  0.9469344514453367  0.3007191432945717  0.3757039348951991  1.0000
  H   H34       1.0  0.05306723106907185  0.699280773784203  0.6242950562516894  1.0000
  H   H35       1.0  0.10915263075892058  0.5904603556902899  0.3206569395316095  1.0000
  H   H36       1.0  0.8908470353385382  0.4095386481590566  0.6793438884151399  1.0000
  H   H37       1.0  0.05855430156402256  0.7135326321659862  0.1201911449705548  1.0000
  H   H38       1.0  0.9414448842209707  0.28646911137163045  0.8798084094536945  1.0000
  H   H39       1.0  0.9571464239244705  0.7399194831260871  0.9585072500136673  1.0000
  H   H40       1.0  0.04285292196467339  0.2600813471821084  0.0414932242974331  1.0000
  H   H41       1.0  0.6860868531245075  0.6216124377817566  0.7887660410337601  1.0000
  H   H42       1.0  0.31391450918159336  0.37838930575586016  0.2112325964774726  1.0000
  H   H43       1.0  0.6312967214375007  0.4536494557687618  0.9401960572840621  1.0000
  H   H44       1.0  0.36870480097275043  0.5463513745394337  0.05980201397597538  1.0000
  C   C1        1.0  0.30948987147353785  0.7911991417095834  0.9570363250180021  1.0000
  C   C2        1.0  0.6905143077703001  0.2087989489103421  0.0429650751276043  1.0000
  C   C3        1.0  0.37282033005889303  0.8373747610456235  0.03504941171806309  1.0000
  C   C4        1.0  0.627181192351358  0.1626260692625721  0.9649501456800136  1.0000
  C   C5        1.0  0.5250723846841012  0.8149284950475533  0.043323604031712606  1.0000
  C   C6        1.0  0.47493038609086824  0.1850714220312213  0.9566745571241454  1.0000
  C   C7        1.0  0.585728354276931  0.8507910145049848  0.11874342953957033  1.0000
  C   C8        1.0  0.41427473670634646  0.1492070761149336  0.8812573144590203  1.0000
  C   C9        1.0  0.4951755596087608  0.9113116416239961  0.18693147375521585  1.0000
  C   C10       1.0  0.5048188252900729  0.08868644899592232  0.8130662502742396  1.0000
  C   C11       1.0  0.3434193958310061  0.936919507885925  0.17714091019253425  1.0000
  C   C12       1.0  0.6565815186311638  0.0630785827339935  0.8228600076500499  1.0000
  C   C13       1.0  0.28231962974081176  0.8994232209900093  0.1022421210365393  1.0000
  C   C14       1.0  0.7176801964607974  0.1005748696299165  0.8977566545209754  1.0000
  C   C15       1.0  0.5652242859083145  0.9474536092849988  0.26902427667710066  1.0000
  C   C16       1.0  0.4347786449708124  0.0525453945643477  0.7309740612965852  1.0000
  C   C17       1.0  0.4045062083772351  0.1307479697794847  0.3119666351989352  1.0000
  C   C18       1.0  0.5954967225018918  0.869251034069862  0.6880331889127973  1.0000
  C   C19       1.0  0.2956255711267062  0.147738603202086  0.3886671195522808  1.0000
  C   C20       1.0  0.7043742550749029  0.8522594874178326  0.6113323990742572  1.0000
  C   C21       1.0  0.2936882486547531  0.0304571145002512  0.4547392556092618  1.0000
  C   C22       1.0  0.7063101690779944  0.9695428025785164  0.5452599963036204  1.0000
  C   C23       1.0  0.20590353863298816  0.9949214482551697  0.5512124277471527  1.0000
  C   C24       1.0  0.7941001602983773  0.0050793820530259  0.44878918501400017  1.0000
  C   C25       1.0  0.022456765749339504  0.03999762228664851  0.6713839488567003  1.0000
  C   C26       1.0  0.977540883931162  0.96000046833327  0.3286142574757846  1.0000
  C   C27       1.0  0.05403843916696618  0.9234895559852134  0.7341164684107184  1.0000
  C   C28       1.0  0.9459584099927553  0.07651310078182412  0.26588382610872685  1.0000
  C   C29       1.0  0.23812518558590054  0.8766554982348893  0.6138198740166843  1.0000
  C   C30       1.0  0.7618743204073937  0.1233444188438781  0.386180034043221  1.0000
  C   C31       1.0  0.4996932163010683  0.5299579931597407  0.6939984576063978  1.0000
  C   C32       1.0  0.5003053615358296  0.4700410106896059  0.30600394340040526  1.0000
  C   C33       1.0  0.608478736670186  0.492851655227618  0.6114401811606384  1.0000
  C   C34       1.0  0.39152060921895787  0.5071491750805777  0.3885595500814388  1.0000
  C   C35       1.0  0.6529528932347901  0.5813618509448234  0.5264946236135728  1.0000
  C   C36       1.0  0.3470464526543537  0.4186389793633722  0.4735036214904581  1.0000
  C   C37       1.0  0.7622397838485071  0.5486645846689342  0.45365432849326476  1.0000
  C   C38       1.0  0.23775988224895167  0.4513344191804052  0.5463457563844684  1.0000
  C   C39       1.0  0.8263252631330501  0.4266890967307546  0.4634484730482101  1.0000
  C   C40       1.0  0.17367392265193612  0.5733126468068548  0.5365495952379931  1.0000
  C   C41       1.0  0.7759506944072427  0.3371725221889506  0.545403495305038  1.0000
  C   C42       1.0  0.22404881158605855  0.662827394889817  0.45459715582389026  1.0000
  C   C43       1.0  0.6687219463438083  0.37006704602029583  0.6193514497358804  1.0000
  C   C44       1.0  0.3312761511806244  0.6299346975173208  0.38064819161036917  1.0000
  C   C45       1.0  0.9538584731309641  0.3895690603572818  0.39094365313824386  1.0000
  C   C46       1.0  0.04614228122704841  0.6104299434920648  0.6090548586794424  1.0000
  C   C47       1.0  0.040185949376848405  0.5739382089618985  0.267059132818069  1.0000
  C   C48       1.0  0.9598132364081378  0.42606353457571805  0.7329404216061803  1.0000
  C   C49       1.0  0.011638353883959989  0.6351017495949947  0.1672381046686908  1.0000
  C   C50       1.0  0.9883599037446302  0.3648990807132009  0.8327624565644027  1.0000
  C   C51       1.0  0.9158477112768965  0.5675602146687809  0.13764718432640413  1.0000
  C   C52       1.0  0.0841503862475363  0.4324415288688357  0.8623532000888615  1.0000
  C   C53       1.0  0.8513703987594567  0.5842522220699209  0.040342103279286265  1.0000
  C   C54       1.0  0.14862878702552956  0.4157495214676885  0.9596581942139861  1.0000
  C   C55       1.0  0.881601603929482  0.6774975123475286  0.9545456865433976  1.0000
  C   C56       1.0  0.11839758185550409  0.3225042311900879  0.04545386788085181  1.0000
  C   C57       1.0  0.7345924497057794  0.6118564078514339  0.8608920904505836  1.0000
  C   C58       1.0  0.2654087524961639  0.3881462489156037  0.13910637024282113  1.0000
  C   C59       1.0  0.7035436876595043  0.5179608982243593  0.9452793192051486  1.0000
  C   C60       1.0  0.2964567464902005  0.4820399320838291  0.054719582045905164  1.0000
  N   N1        1.0  0.4604241903306344  0.0097414182595514  0.3344124161078454  1.0000
  N   N2        1.0  0.5395765640273779  0.9902575855897952  0.6655883249169106  1.0000
  N   N3        1.0  0.39460600332012763  0.9460180126313915  0.42006781504193197  1.0000
  N   N4        1.0  0.6053947510378777  0.053980991217955  0.5799336690518473  1.0000
  N   N5        1.0  0.0971431995190102  0.07717884503149011  0.580657558835547  1.0000
  N   N6        1.0  0.9028556985262025  0.9228183323590073  0.4193414804617888  1.0000
  N   N7        1.0  0.16318776674058458  0.8418742424147752  0.7045792584441983  1.0000
  N   N8        1.0  0.836810650992163  0.1581256746639923  0.2954214796067305  1.0000
  N   N9        1.0  0.9652301552070812  0.47659434503201953  0.2925092238763724  1.0000
  N   N10       1.0  0.03476794231735167  0.5234073985055973  0.707489674400854  1.0000
  N   N11       1.0  0.8887225718603063  0.471955139561075  0.21510374914858224  1.0000
  N   N12       1.0  0.11127677402883757  0.5280456907471134  0.7848959820934949  1.0000
  N   N13       1.0  0.7625995671732183  0.5040295833701975  0.034101066070846286  1.0000
  N   N14       1.0  0.23740163502872483  0.4959730733968471  0.9658981376915745  1.0000
  N   N15       1.0  0.8242281998582329  0.6910872793973368  0.8647435216697231  1.0000
  N   N16       1.0  0.17577316244786798  0.30891446414027973  0.1352558589105257  1.0000
  O   O1        1.0  0.40366805644622855  0.7438545887115708  0.8936163885293381  1.0000
  O   O2        1.0  0.5963337861723375  0.2561444151377685  0.10638426557342476  1.0000
  O   O3        1.0  0.17203120948293096  0.7964036361936168  0.9571665318634359  1.0000
  O   O4        1.0  0.8279712410837234  0.20359810734399997  0.042833504863843096  1.0000
  O   O5        1.0  0.480494332431462  0.4560265919579082  0.7789928333886492  1.0000
  O   O6        1.0  0.5195040853012785  0.5439733251208665  0.22100641852423303  1.0000
  O   O7        1.0  0.43309575934861744  0.6410596583533419  0.6721207254425251  1.0000
  O   O8        1.0  0.5669024982799656  0.35894117195485364  0.3278798357905757  1.0000
