data_image0
_chemical_formula_structural       Al6H39C80Cl3O30
_chemical_formula_sum              "Al6 H39 C80 Cl3 O30"
_cell_length_a       12.652185745626607
_cell_length_b       12.242303679649634
_cell_length_c       28.025913425865703
_cell_angle_alpha    89.32747841867
_cell_angle_beta     89.97138061743193
_cell_angle_gamma    59.20487116384056

_space_group_name_H-M_alt    "P 1"
_space_group_IT_number       1

loop_
  _space_group_symop_operation_xyz
  'x, y, z'

loop_
  _atom_site_type_symbol
  _atom_site_label
  _atom_site_symmetry_multiplicity
  _atom_site_fract_x
  _atom_site_fract_y
  _atom_site_fract_z
  _atom_site_occupancy
  Al  Al1       1.0  0.4089865128479957  0.18938257244938944  0.49560239779421533  1.0000
  Al  Al2       1.0  0.41392610272111335  0.9252085195888354  0.4976428277833805  1.0000
  Al  Al3       1.0  0.6563468464754575  0.9160318231956953  0.4978160311396992  1.0000
  Al  Al4       1.0  0.9286471659979225  0.15190494709591465  0.9818969957243412  1.0000
  Al  Al5       1.0  0.6687601847247818  0.413999873050237  0.9813920079574104  1.0000
  Al  Al6       1.0  0.899019258025497  0.4281250743580288  0.9821352570752712  1.0000
  H   H1        1.0  0.24296981947775714  0.2821384135484806  0.19325830913342665  1.0000
  H   H2        1.0  0.005899186756757011  0.12588349434673063  0.20178301772202906  1.0000
  H   H3        1.0  0.04121898564380898  0.09641081097608155  0.2899031275461611  1.0000
  H   H4        1.0  0.4400941076896031  0.7826745223621929  0.6264138183006909  1.0000
  H   H5        1.0  0.7614869780731863  0.7671227896991939  0.7834302670709263  1.0000
  H   H6        1.0  0.7778159407913491  0.7185636165598909  0.8702144695705772  1.0000
  H   H7        1.0  0.4684321702909883  0.7438719712758868  0.7141036633237621  1.0000
  H   H8        1.0  0.5769413510512607  0.5567275304710365  0.7633173598273402  1.0000
  H   H9        1.0  0.5855371726932145  0.517326548499213  0.8507067231486618  1.0000
  H   H10       1.0  0.8184062858361615  0.6808086044413529  0.6143337441184473  1.0000
  H   H11       1.0  0.7786691042320016  0.9236462169122248  0.6300014073355769  1.0000
  H   H12       1.0  0.48141268392856057  0.31933046234601653  0.7746590629171025  1.0000
  H   H13       1.0  0.507327277101531  0.35267792191535824  0.8603685502481897  1.0000
  H   H14       1.0  0.7979393716450287  0.9580710022652356  0.7159462690135713  1.0000
  H   H15       1.0  0.8692912625232125  0.0437081441527738  0.766333740026397  1.0000
  H   H16       1.0  0.8919861741584681  0.07242265860949709  0.8528228965187524  1.0000
  H   H17       1.0  0.5190856132340187  0.35374086563471974  0.6983032036441871  1.0000
  H   H18       1.0  0.49537489621481967  0.31521299500271743  0.612773887539376  1.0000
  H   H19       1.0  0.2713348562538798  0.28411273229832557  0.6226267783992229  1.0000
  H   H20       1.0  0.8127403626056304  0.46601228042476345  0.20624064056128338  1.0000
  H   H21       1.0  0.22522035054125658  0.9854557365679002  0.7859542247933506  1.0000
  H   H22       1.0  0.15816472278419977  0.034048657886941704  0.8704348257239973  1.0000
  H   H23       1.0  0.2196347167911341  0.3153396908876972  0.7090823383077591  1.0000
  H   H24       1.0  0.06142430961097734  0.3878705289350323  0.7578707491147655  1.0000
  H   H25       1.0  0.15720438529133665  0.0007675853419471002  0.7076052961739522  1.0000
  H   H26       1.0  0.21374492778100065  0.9679350130939213  0.6215769396572953  1.0000
  H   H27       1.0  0.7973633541375234  0.4966283168573966  0.2941255011208028  1.0000
  H   H28       1.0  0.6902127345688951  0.30710696872462523  0.2955847984330902  1.0000
  H   H29       1.0  0.6889938691967569  0.3412649647675323  0.20788969933568782  1.0000
  H   H30       1.0  0.6721609344625747  0.0028316279006901013  0.18417958070136828  1.0000
  H   H31       1.0  0.6731164877765534  0.9690668921796757  0.2719141093303818  1.0000
  H   H32       1.0  0.12778251565217152  0.5036211035805707  0.8296148533093232  1.0000
  H   H33       1.0  0.11646583932892438  0.4608781755939901  0.8904785685526095  1.0000
  H   H34       1.0  0.0005547353013568558  0.6111219777797814  0.8660629604479056  1.0000
  H   H35       1.0  0.29075535306579775  0.39624326166919144  0.24531707062303107  1.0000
  H   H36       1.0  0.41642375911595053  0.2374112452016206  0.23461116764678283  1.0000
  H   H37       1.0  0.41336573707064866  0.3171382123070289  0.2882939340144688  1.0000
  H   H38       1.0  0.29135400291618657  0.3973598814257143  0.4658022305540116  1.0000
  H   H39       1.0  0.038879533849225836  0.9438539913670425  0.0122452392204337  1.0000
  C   C1        1.0  0.2730093283975562  0.107474007870664  0.4294583734890197  1.0000
  C   C2        1.0  0.7428999093166195  0.5562277173755773  0.22117688758980594  1.0000
  C   C3        1.0  0.7345156028784388  0.5731865506467813  0.27011721687492246  1.0000
  C   C4        1.0  0.6452805781576669  0.68986321096385  0.28979828553553233  1.0000
  C   C5        1.0  0.6622790294214411  0.6551516479167745  0.18976684077050984  1.0000
  C   C6        1.0  0.6710777640306985  0.6347792229602548  0.139960654395189  1.0000
  C   C7        1.0  0.6355354990242359  0.7088020117972677  0.3396986111057246  1.0000
  C   C8        1.0  0.6820319791674121  0.6115076242342427  0.09748359318635381  1.0000
  C   C9        1.0  0.662809491555606  0.1077318054098839  0.3817906833862423  1.0000
  C   C10       1.0  0.6872594491856105  0.24036869608355002  0.271013506700605  1.0000
  C   C11       1.0  0.6861911306095864  0.2595751025288066  0.22210443035105956  1.0000
  C   C12       1.0  0.6028322275529516  0.7775483966937957  0.43020052137302406  1.0000
  C   C13       1.0  0.6770124762828544  0.068518590007514  0.20872834867640933  1.0000
  C   C14       1.0  0.6781572098363214  0.0493571851923278  0.2576403492903765  1.0000
  C   C15       1.0  0.6826425895935698  0.13525441445595734  0.28956046171715855  1.0000
  C   C16       1.0  0.6809433928715121  0.1740060051446832  0.19018489334454367  1.0000
  C   C17       1.0  0.6824251702746903  0.1930267333850395  0.140383048837208  1.0000
  C   C18       1.0  0.6755721686427946  0.11926423662033872  0.33928772782855543  1.0000
  C   C19       1.0  0.6874194987714048  0.20901366378834746  0.09763573638808513  1.0000
  C   C20       1.0  0.216599273156298  0.1333210656814074  0.3830721140177715  1.0000
  C   C21       1.0  0.2190100166564974  0.22571676303093818  0.2640923205769355  1.0000
  C   C22       1.0  0.19886497947153012  0.2427856548620113  0.21496674011369526  1.0000
  C   C23       1.0  0.6273091517743834  0.09211981521219309  0.4290362621280579  1.0000
  C   C24       1.0  0.0643615907813171  0.1542724840947045  0.2196169611933101  1.0000
  C   C25       1.0  0.0839952757045452  0.13811460780763704  0.2685543515242658  1.0000
  C   C26       1.0  0.16095191956959093  0.17278619586342361  0.291757609570432  1.0000
  C   C27       1.0  0.12223082747212993  0.20653630990229746  0.19244555371381017  1.0000
  C   C28       1.0  0.1036298747453728  0.22192765585849372  0.14246566989587714  1.0000
  C   C29       1.0  0.18697968145765023  0.1518322918430428  0.34103876396330435  1.0000
  C   C30       1.0  0.0854933452569355  0.2343367028760639  0.09949891686451913  1.0000
  C   C31       1.0  0.62777438518453  0.7326689676722682  0.6147738363155144  1.0000
  C   C32       1.0  0.5294567800943851  0.7489188422331097  0.6430398394442065  1.0000
  C   C33       1.0  0.5460459013068899  0.7269795877365226  0.6919107310099761  1.0000
  C   C34       1.0  0.2861066983608467  0.10344917322178304  0.5666445225677137  1.0000
  C   C35       1.0  0.6595716475623661  0.6874881751184391  0.7147002847854935  1.0000
  C   C36       1.0  0.7573631236082503  0.6705603982622749  0.6852093235338046  1.0000
  C   C37       1.0  0.7419531231132055  0.6931473241797051  0.636165831849276  1.0000
  C   C38       1.0  0.7237479572419045  0.7113396901541621  0.7978277312110722  1.0000
  C   C39       1.0  0.7318129454707215  0.6856869848086832  0.8465817851117023  1.0000
  C   C40       1.0  0.6227907323514044  0.572956236442657  0.8356645571408736  1.0000
  C   C41       1.0  0.617741838664635  0.5958267340379706  0.7868038866629876  1.0000
  C   C42       1.0  0.6687741760307943  0.6646242030047561  0.7669464317091512  1.0000
  C   C43       1.0  0.681984330849822  0.6158688313299906  0.865889295147369  1.0000
  C   C44       1.0  0.636583422462401  0.11775875224068952  0.6163166132490262  1.0000
  C   C45       1.0  0.6065635739519021  0.771840893943143  0.5636926967781976  1.0000
  C   C46       1.0  0.7228319804643063  0.017567393450256902  0.6453388843570311  1.0000
  C   C47       1.0  0.7337231113360402  0.03773490415576221  0.6932917935900917  1.0000
  C   C48       1.0  0.6603355613599716  0.1586733692291773  0.7133634431710547  1.0000
  C   C49       1.0  0.5748958970817027  0.25873726255981216  0.6836844055020208  1.0000
  C   C50       1.0  0.5622648733155129  0.23860899783370118  0.6358651911052038  1.0000
  C   C51       1.0  0.5721385621530714  0.2665419843093347  0.7913971154845713  1.0000
  C   C52       1.0  0.5856940324678419  0.28443656751201013  0.8394347243344955  1.0000
  C   C53       1.0  0.8026462840719473  0.12528382181625372  0.8351144304750735  1.0000
  C   C54       1.0  0.7889667320611267  0.1091033061363049  0.7870593585627292  1.0000
  C   C55       1.0  0.6734939367346084  0.17873231296309203  0.7642915775185984  1.0000
  C   C56       1.0  0.6165434852139879  0.09450795790782962  0.5661887407289328  1.0000
  C   C57       1.0  0.7010435672328581  0.2133436350053799  0.8616814632188439  1.0000
  C   C58       1.0  0.24518532465121007  0.1246535682638026  0.6170723195933479  1.0000
  C   C59       1.0  0.24562788137196642  0.22333345011863773  0.6418050987059943  1.0000
  C   C60       1.0  0.21609949836312134  0.24038809646417286  0.6898577882019339  1.0000
  C   C61       1.0  0.1843005806813308  0.16053819833778965  0.7145287199916837  1.0000
  C   C62       1.0  0.18409520115103103  0.06190226533087181  0.6893406152486392  1.0000
  C   C63       1.0  0.21435375919932645  0.0439213072490929  0.641196664943543  1.0000
  C   C64       1.0  0.1759908970392559  0.08372719930459031  0.7978312220948497  1.0000
  C   C65       1.0  0.14081578892591298  0.1099951441793934  0.8452017886293959  1.0000
  C   C66       1.0  0.056036440502083465  0.33458504294868874  0.8299914465184914  1.0000
  C   C67       1.0  0.6251761232312842  0.728397767480651  0.3824628604465731  1.0000
  C   C68       1.0  0.08916098434588796  0.30769187541335447  0.7822747838746695  1.0000
  C   C69       1.0  0.15018392766240396  0.18303505275913784  0.7653102025223577  1.0000
  C   C70       1.0  0.0815331891199591  0.23496189821174343  0.8625271715847731  1.0000
  C   C71       1.0  0.7126857302477488  0.23185598189324005  0.04962730265661011  1.0000
  C   C72       1.0  0.7089685297728392  0.5632466907291089  0.04964327936068711  1.0000
  C   C73       1.0  0.04231298965631677  0.24966842192387168  0.051073325970818914  1.0000
  C   C74       1.0  0.721572340233962  0.2339354941305984  0.9120923361636033  1.0000
  C   C75       1.0  0.7030414752438787  0.5720688392542925  0.9163846415300656  1.0000
  C   C76       1.0  0.038013803443000316  0.25616032932517646  0.9126677227595579  1.0000
  C   C77       1.0  0.5648174164234375  0.7904552471620507  0.2585902675341316  1.0000
  C   C78       1.0  0.5732941536365884  0.77335240117025  0.20903156076354185  1.0000
  C   C79       1.0  0.06429664571963654  0.5108632261698177  0.858068850763303  1.0000
  C   C80       1.0  0.3569079244067907  0.3042680835356819  0.26204324198193524  1.0000
  Cl  Cl1       1.0  0.45815688363573037  0.9332588685389498  0.2822473013764224  1.0000
  Cl  Cl2       1.0  0.9032907890647195  0.6180464674103588  0.7084114959701824  1.0000
  Cl  Cl3       1.0  0.4767845091985592  0.8950891296610591  0.17114599954437892  1.0000
  O   O1        1.0  0.5205372455837675  0.1739695008549944  0.4421307275285714  1.0000
  O   O2        1.0  0.5039575184640055  0.7981801658742427  0.5448729200023765  1.0000
  O   O3        1.0  0.6889771758899029  0.7848408432264408  0.5422130150467339  1.0000
  O   O4        1.0  0.6955625368776877  0.9857680665298005  0.5484035637140395  1.0000
  O   O5        1.0  0.4945251297036108  0.007352697230089702  0.49652577097666045  1.0000
  O   O6        1.0  0.020852297454510376  0.16602080746578451  0.0360671567183459  1.0000
  O   O7        1.0  0.8161912812617941  0.1528678473709277  0.03276493214004721  1.0000
  O   O8        1.0  0.6287368434822653  0.3350093166499306  0.0289516602836883  1.0000
  O   O9        1.0  0.6331107446662186  0.5387541824403642  0.029572278975116707  1.0000
  O   O10       1.0  0.8109730587900258  0.5426480345101652  0.0323774394473588  1.0000
  O   O11       1.0  0.02400933202410726  0.3495307443204113  0.027724451952437303  1.0000
  O   O12       1.0  0.30281826866696787  0.18490217791215713  0.4446107164646237  1.0000
  O   O13       1.0  0.028140972057741513  0.1689062592977422  0.9328144680620769  1.0000
  O   O14       1.0  0.8249344021033095  0.15670863752944092  0.9304307641508134  1.0000
  O   O15       1.0  0.6345044667517  0.3321178961632186  0.9333906797632423  1.0000
  O   O16       1.0  0.6295719972514605  0.5399947298451551  0.9345111196978169  1.0000
  O   O17       1.0  0.797463221117546  0.5602641101960941  0.938125252896903  1.0000
  O   O18       1.0  0.009732213379628292  0.36255055183868024  0.9324018082501343  1.0000
  O   O19       1.0  0.8305652886429652  0.3338783141868619  0.9826172419694716  1.0000
  O   O20       1.0  0.2931515005085785  0.0046013282998203  0.4510691267240504  1.0000
  O   O21       1.0  0.5019248087779572  0.8018310352880961  0.449643929907147  1.0000
  O   O22       1.0  0.683108046960484  0.799314323989819  0.4479057624968378  1.0000
  O   O23       1.0  0.7061949421247745  0.9924682975157992  0.45300309768115465  1.0000
  O   O24       1.0  0.5216894932785648  0.17968253174755233  0.5447011857700234  1.0000
  O   O25       1.0  0.3091485290343669  0.18251147065923592  0.5472854693019402  1.0000
  O   O26       1.0  0.3004652184056765  0.0022793730792046  0.5463350691147185  1.0000
  O   O27       1.0  0.9901436516803414  0.46053610206897844  0.8423305715120863  1.0000
  O   O28       1.0  0.29440403772315443  0.25347815263086204  0.288468931464898  1.0000
  O   O29       1.0  0.33229889951832087  0.35587616942202527  0.4953664455485481  1.0000
  O   O30       1.0  0.018099299360493027  0.9854496073389357  0.9812893151786924  1.0000
