data_image0
_chemical_formula_structural       Tb2Ag6H36C42O48
_chemical_formula_sum              "Tb2 Ag6 H36 C42 O48"
_cell_length_a       8.825780248437159
_cell_length_b       10.587766724586713
_cell_length_c       16.576729401004183
_cell_angle_alpha    100.3672454302875
_cell_angle_beta     103.6147659047955
_cell_angle_gamma    96.9111900405092

_space_group_name_H-M_alt    "P 1"
_space_group_IT_number       1

loop_
  _space_group_symop_operation_xyz
  'x, y, z'

loop_
  _atom_site_type_symbol
  _atom_site_label
  _atom_site_symmetry_multiplicity
  _atom_site_fract_x
  _atom_site_fract_y
  _atom_site_fract_z
  _atom_site_occupancy
  Tb  Tb1       1.0  0.33522128429301296  0.8140469442902191  0.5798896780478131  1.0000
  Tb  Tb2       1.0  0.6647791249856211  0.1859505886904458  0.4201088006973492  1.0000
  Ag  Ag1       1.0  0.3976736822989936  0.08660271168724884  0.9552108571497158  1.0000
  Ag  Ag2       1.0  0.6023283315550998  0.9133967377595344  0.044788663083331015  1.0000
  Ag  Ag3       1.0  0.606470534351878  0.2982383479707665  0.06957439627402812  1.0000
  Ag  Ag4       1.0  0.39352704826994506  0.7017670817201634  0.9304234763985805  1.0000
  Ag  Ag5       1.0  0.388828624689026  0.40138776609056503  0.9407213119262039  1.0000
  Ag  Ag6       1.0  0.6111782676745178  0.5986125879308304  0.05927833797656488  1.0000
  H   H1        1.0  0.03143855326785429  0.2577724037812743  0.9452806468730515  1.0000
  H   H2        1.0  0.968569970208989  0.7422249645048141  0.05472005437187021  1.0000
  H   H3        1.0  0.0607003060705011  0.05332986817060001  0.697805077733733  1.0000
  H   H4        1.0  0.9393049817175837  0.9466685693846842  0.30219353068114435  1.0000
  H   H5        1.0  0.9476520077667273  0.6258140991821579  0.3194720125297863  1.0000
  H   H6        1.0  0.0523560531348508  0.3741763613340866  0.6805314084651286  1.0000
  H   H7        1.0  0.9647093316743847  0.42015365284056133  0.06941824427089928  1.0000
  H   H8        1.0  0.03529199463812199  0.5798477994726313  0.9305796221199074  1.0000
  H   H9        1.0  0.10992416483382783  0.7206985010293538  0.699370127126251  1.0000
  H   H10       1.0  0.890072684352134  0.2793088626747534  0.3006296972819697  1.0000
  H   H11       1.0  0.03483408911328211  0.917267872880416  0.9371928503822816  1.0000
  H   H12       1.0  0.9651699725351147  0.08273542974765755  0.06280860702077007  1.0000
  H   H13       1.0  0.41758603124075216  0.590068772815819  0.4643844522679644  1.0000
  H   H14       1.0  0.5824124679473143  0.40993069147601363  0.535617034266302  1.0000
  H   H15       1.0  0.539634747859253  0.6213708761673403  0.5558396475373684  1.0000
  H   H16       1.0  0.4603630408400932  0.37863055656428923  0.4441619879435876  1.0000
  H   H17       1.0  0.3030106901570591  0.04961764744692231  0.5026602182414734  1.0000
  H   H18       1.0  0.6969889703876219  0.9503817965958348  0.4973414140985781  1.0000
  H   H19       1.0  0.46556165850564907  0.0871382348922936  0.5781242361429406  1.0000
  H   H20       1.0  0.5344368330333751  0.9128612179240041  0.42187785132097133  1.0000
  H   H21       1.0  0.3582665792105288  0.6125645569410737  0.6790871944904353  1.0000
  H   H22       1.0  0.6417312171378596  0.3874368872660981  0.32091384006087514  1.0000
  H   H23       1.0  0.4771442469647909  0.7216413644610854  0.7529429234586119  1.0000
  H   H24       1.0  0.5228526134609268  0.27836107409051897  0.24705811266314734  1.0000
  H   H25       1.0  0.02260015022624636  0.8148954946863259  0.48735356233850524  1.0000
  H   H26       1.0  0.9773924197730963  0.18509830930948115  0.5126410483484563  1.0000
  H   H27       1.0  0.9788130804037111  0.8826882106165005  0.5702811431376915  1.0000
  H   H28       1.0  0.021183424533376204  0.11730748082281654  0.4297141997190792  1.0000
  H   H29       1.0  0.3115434293670063  0.9274196380689832  0.7603909964972432  1.0000
  H   H30       1.0  0.6884553335002366  0.07258085769591822  0.2396076327650505  1.0000
  H   H31       1.0  0.3982132822237999  0.03974995909294422  0.7289764108598292  1.0000
  H   H32       1.0  0.6017769232263817  0.960248764651347  0.2710191002205918  1.0000
  H   H33       1.0  0.06768469195177572  0.6000594958684361  0.5708001084224961  1.0000
  H   H34       1.0  0.9323170888193316  0.39993896800743295  0.4291998653639624  1.0000
  H   H35       1.0  0.16431471109143564  0.538753626629813  0.5073923386738883  1.0000
  H   H36       1.0  0.8356898203136538  0.4612467105120216  0.4926100242655309  1.0000
  C   C1        1.0  0.8257418605789084  0.1348545318903547  0.861868882972118  1.0000
  C   C2        1.0  0.1742612763865807  0.8651448399296485  0.13813378771492077  1.0000
  C   C3        1.0  0.980890857647644  0.1909070570047505  0.8839872593429448  1.0000
  C   C4        1.0  0.01910816484043216  0.8090895221296253  0.11601092622019855  1.0000
  C   C5        1.0  0.07811735960291338  0.1624701020734136  0.826108197924377  1.0000
  C   C6        1.0  0.9218746717983349  0.8375265641287726  0.1738909155929989  1.0000
  C   C7        1.0  0.995887209848952  0.07654831001449484  0.7453068302028213  1.0000
  C   C8        1.0  0.004110418199516617  0.9234473037980495  0.25469166310794833  1.0000
  C   C9        1.0  0.8404400224179297  0.0250798234368048  0.7288564722657185  1.0000
  C   C10       1.0  0.15956478796442036  0.974921568129169  0.2711418315424297  1.0000
  C   C11       1.0  0.712303468425503  0.15729136992961662  0.9160594526082164  1.0000
  C   C12       1.0  0.28770447461731413  0.8427137398131921  0.08394694347214231  1.0000
  C   C13       1.0  0.7416613881160501  0.9378834981248118  0.6461113952832136  1.0000
  C   C14       1.0  0.25833739004927736  0.06211702059116672  0.3538860321197959  1.0000
  C   C15       1.0  0.1637956274572261  0.6528142259553108  0.28511970216958105  1.0000
  C   C16       1.0  0.836205461713952  0.34718129268339487  0.71488103134746  1.0000
  C   C17       1.0  0.008556398482745899  0.6013061956163739  0.2703543872961873  1.0000
  C   C18       1.0  0.9914388533091767  0.39868937836553914  0.7296480209105098  1.0000
  C   C19       1.0  0.9239841889248055  0.5151260292669948  0.1903881326992689  1.0000
  C   C20       1.0  0.07600879369720562  0.48486966554183664  0.809609777388367  1.0000
  C   C21       1.0  0.018056871687917905  0.4860939466006899  0.1308508873979619  1.0000
  C   C22       1.0  0.9819395531680045  0.5139065667112633  0.8691486521120524  1.0000
  C   C23       1.0  0.17377021647288876  0.5408204070046809  0.15144641885567015  1.0000
  C   C24       1.0  0.8262301662678979  0.4591820281774092  0.8485520500352237  1.0000
  C   C25       1.0  0.26466542351393946  0.7473033870566045  0.36508770708741173  1.0000
  C   C26       1.0  0.7353328767780242  0.25269020093844574  0.6349136419248822  1.0000
  C   C27       1.0  0.2857765516152426  0.5193061749074988  0.09567044916047254  1.0000
  C   C28       1.0  0.714220839759527  0.480693389962184  0.9043266850605178  1.0000
  C   C29       1.0  0.8789846682994097  0.6899566556150634  0.7162090336761509  1.0000
  C   C30       1.0  0.12102445904715613  0.31004846830529  0.2837957054210634  1.0000
  C   C31       1.0  0.03429635272490831  0.7451479559847699  0.7407468955563773  1.0000
  C   C32       1.0  0.9656972031706416  0.2548554485561709  0.2592574561021266  1.0000
  C   C33       1.0  0.1016216223149442  0.8332965353801712  0.8219147384259884  1.0000
  C   C34       1.0  0.8983807699749206  0.16670969560551194  0.1780886722831241  1.0000
  C   C35       1.0  0.9941094423881794  0.8536595183706697  0.8743332988387706  1.0000
  C   C36       1.0  0.005893278363927799  0.1463428992643543  0.1256642598044095  1.0000
  C   C37       1.0  0.8397135084676678  0.7952953721195402  0.8446156346986556  1.0000
  C   C38       1.0  0.1602837915861812  0.20471393977528868  0.1553844844620329  1.0000
  C   C39       1.0  0.7175709575850674  0.810373440547551  0.8938651537262458  1.0000
  C   C40       1.0  0.2824259410858758  0.1896290553817508  0.1061328777473065  1.0000
  C   C41       1.0  0.7996223547819241  0.5949432793658362  0.632598650301567  1.0000
  C   C42       1.0  0.20038234492307794  0.40506288817062625  0.36740625387839293  1.0000
  O   O1        1.0  0.5743797924970765  0.09106231484626194  0.8851470544397699  1.0000
  O   O2        1.0  0.4256205519984846  0.9089400629581239  0.11485441909934486  1.0000
  O   O3        1.0  0.7678332199733049  0.2390675389942914  0.9859424257354661  1.0000
  O   O4        1.0  0.23216919885440748  0.7609337897899736  0.014060994827900733  1.0000
  O   O5        1.0  0.7557170028219886  0.05084572683050941  0.7864687024713319  1.0000
  O   O6        1.0  0.2442821956150495  0.9491566941740287  0.21353142340270642  1.0000
  O   O7        1.0  0.2236666222770296  0.2082152994235998  0.8426481030675887  1.0000
  O   O8        1.0  0.7763374164242266  0.791787968777854  0.15735515712438541  1.0000
  O   O9        1.0  0.6002968071935088  0.8958166302455626  0.6431294411410704  1.0000
  O   O10       1.0  0.399703147626525  0.10418389117242552  0.3568669302084402  1.0000
  O   O11       1.0  0.8088370855604339  0.9165756480654965  0.5865784285717979  1.0000
  O   O12       1.0  0.1911607566822227  0.08342586499491493  0.4134190004016601  1.0000
  O   O13       1.0  0.3917437328240964  0.806040728621234  0.3590586697892774  1.0000
  O   O14       1.0  0.6082475840300886  0.19395295791716907  0.6409430062476034  1.0000
  O   O15       1.0  0.2081312683717584  0.7568121181818628  0.42975288469653355  1.0000
  O   O16       1.0  0.7918677194617986  0.2431794669467707  0.5702501181580005  1.0000
  O   O17       1.0  0.245804139299544  0.6247533060301649  0.22652433806067765  1.0000
  O   O18       1.0  0.7541901806280434  0.37524821039975376  0.7734756581436457  1.0000
  O   O19       1.0  0.7784397615771752  0.469205790221814  0.17595659123184498  1.0000
  O   O20       1.0  0.2215587682070677  0.5307937199721807  0.8240424915838531  1.0000
  O   O21       1.0  0.42153400119094897  0.5882743259177944  0.12430075857393062  1.0000
  O   O22       1.0  0.5784666258725863  0.4117241696826925  0.8756984684770971  1.0000
  O   O23       1.0  0.22952978536641666  0.4346212826723246  0.026554440466625816  1.0000
  O   O24       1.0  0.7704715256479987  0.5653801466897904  0.9734446277834649  1.0000
  O   O25       1.0  0.8843723517709491  0.5748898804399618  0.5814119101671906  1.0000
  O   O26       1.0  0.1156363782510397  0.42511337561844453  0.41858832767006504  1.0000
  O   O27       1.0  0.657125751540299  0.5431773750728156  0.6210806426393916  1.0000
  O   O28       1.0  0.34287734358925087  0.4568268759975282  0.3789232200526769  1.0000
  O   O29       1.0  0.7807700545447885  0.7148725509401005  0.7667411279099027  1.0000
  O   O30       1.0  0.2192296100582283  0.2851318412062369  0.2332580908573263  1.0000
  O   O31       1.0  0.2455496548248419  0.8884025941682411  0.8443543302255563  1.0000
  O   O32       1.0  0.7544553350971839  0.11159970263986449  0.1556477265366851  1.0000
  O   O33       1.0  0.5799208244330316  0.7457137291101078  0.858935712297388  1.0000
  O   O34       1.0  0.42007793843420416  0.25428676665478633  0.14106291696490564  1.0000
  O   O35       1.0  0.7675739807598417  0.8858632854244919  0.9666529327917885  1.0000
  O   O36       1.0  0.23242221866212992  0.11413625379209692  0.033346459341984803  1.0000
  O   O37       1.0  0.46754411118649125  0.6606674182768516  0.515828220489496  1.0000
  O   O38       1.0  0.5324553774675564  0.33933113199932313  0.48416905796682397  1.0000
  O   O39       1.0  0.3699159525342424  0.018004555294318405  0.5494185211420657  1.0000
  O   O40       1.0  0.6300835131726713  0.9819939605552434  0.45058056010318376  1.0000
  O   O41       1.0  0.39727442906293925  0.7058801075913267  0.6973318287065522  1.0000
  O   O42       1.0  0.6027266641665749  0.29412035915096624  0.30266649123765893  1.0000
  O   O43       1.0  0.06666875286940413  0.8524163670781068  0.5477898432870134  1.0000
  O   O44       1.0  0.9333224375208004  0.14756660981532124  0.45220809950429697  1.0000
  O   O45       1.0  0.3210858401638673  0.9593360586738343  0.7084352418654872  1.0000
  O   O46       1.0  0.6789161966373598  0.040663425199568316  0.29156247557862974  1.0000
  O   O47       1.0  0.17515742693957034  0.60322064665543  0.5614677476047376  1.0000
  O   O48       1.0  0.8248457253240032  0.39677874811565766  0.438533721223024  1.0000
