data_image0
_chemical_formula_structural       Mn2H32C24N8O12
_chemical_formula_sum              "Mn2 H32 C24 N8 O12"
_cell_length_a       5.216061991040318
_cell_length_b       8.814884708357843
_cell_length_c       15.519340255726087
_cell_angle_alpha    92.34442170104504
_cell_angle_beta     89.99990433395831
_cell_angle_gamma    90.00037580180961

_space_group_name_H-M_alt    "P 1"
_space_group_IT_number       1

loop_
  _space_group_symop_operation_xyz
  'x, y, z'

loop_
  _atom_site_type_symbol
  _atom_site_label
  _atom_site_symmetry_multiplicity
  _atom_site_fract_x
  _atom_site_fract_y
  _atom_site_fract_z
  _atom_site_occupancy
  Mn  Mn1       1.0  0.011899000531982997  0.0197677345903955  0.2089818457703956  1.0000
  Mn  Mn2       1.0  0.9880934452100973  0.5197574266312588  0.7089841637853666  1.0000
  H   H1        1.0  0.4505273750195045  0.9221842645009846  0.12225083079838578  1.0000
  H   H2        1.0  0.5494616989920401  0.42218031673474593  0.6222522182978378  1.0000
  H   H3        1.0  0.19365555206321255  0.9008746133462681  0.0696323174552305  1.0000
  H   H4        1.0  0.8063337703537171  0.4008820774304169  0.5696338957297726  1.0000
  H   H5        1.0  0.5759459681877173  0.1947190889751269  0.21381474554021904  1.0000
  H   H6        1.0  0.42405374326895634  0.6947049284275197  0.7138054818496186  1.0000
  H   H7        1.0  0.8336005670895899  0.28672755999268423  0.2032994812810358  1.0000
  H   H8        1.0  0.1664019664800307  0.7867133216724511  0.7032883267619283  1.0000
  H   H9        1.0  0.9682900997372951  0.660383681480866  0.1897717966487349  1.0000
  H   H10       1.0  0.03170758946750139  0.16037277597202157  0.6897718405863742  1.0000
  H   H11       1.0  0.623172248576381  0.4725908060948997  0.2706383736825372  1.0000
  H   H12       1.0  0.3768371277150492  0.9725889637171793  0.7706351704409541  1.0000
  H   H13       1.0  0.15728692708934489  0.7308673681557707  0.3952054358276626  1.0000
  H   H14       1.0  0.8427192653705191  0.23086928672691442  0.8952023834015534  1.0000
  H   H15       1.0  0.1643740768908302  0.5512309232613575  0.3410319439430936  1.0000
  H   H16       1.0  0.8356194672165244  0.05123166274971421  0.8410275797662832  1.0000
  H   H17       1.0  0.5056389499880395  0.6429115608266757  0.4973423488625953  1.0000
  H   H18       1.0  0.4943905343838963  0.14291077937406274  0.9973457438998139  1.0000
  H   H19       1.0  0.5177759221362519  0.4684762169093303  0.44013188100297634  1.0000
  H   H20       1.0  0.48221283617951366  0.9684794379109295  0.9401326300561478  1.0000
  H   H21       1.0  0.0419449260177132  0.24054875258991615  0.3798137462113472  1.0000
  H   H22       1.0  0.9580691491324413  0.7405529952214778  0.8798079916051049  1.0000
  H   H23       1.0  0.37946322739950483  0.21349813698359546  0.5176435003259101  1.0000
  H   H24       1.0  0.6205478685286322  0.7135039938671855  0.0176401900213321  1.0000
  H   H25       1.0  0.8656722576781063  0.0472054233341908  0.5040059988030308  1.0000
  H   H26       1.0  0.13433172276776867  0.5472169528691924  0.004000954747191097  1.0000
  H   H27       1.0  0.7936121298478154  0.864320340259802  0.4592023217731622  1.0000
  H   H28       1.0  0.20638129592835938  0.3643272394126101  0.9591981912951864  1.0000
  H   H29       1.0  0.42277437944724017  0.8524579971642086  0.5707455219292967  1.0000
  H   H30       1.0  0.5772087520770767  0.35246641686516256  0.07074629069474979  1.0000
  H   H31       1.0  0.5429090276818654  0.023559212861016504  0.6177768940637519  1.0000
  H   H32       1.0  0.4570803762096104  0.5235711333759383  0.11777502491845127  1.0000
  C   C1        1.0  0.5667134459804757  0.8337573163079739  0.3159609641994621  1.0000
  C   C2        1.0  0.43328665113738635  0.33375283951981066  0.8159636493356004  1.0000
  C   C3        1.0  0.8162059591913858  0.6896069600697602  0.2350422514852184  1.0000
  C   C4        1.0  0.18379353024663198  0.18959905876338473  0.7350455530884188  1.0000
  C   C5        1.0  0.6435157158302899  0.5950840307080371  0.2730401777207163  1.0000
  C   C6        1.0  0.356484534901348  0.09508030562336241  0.7730396695562048  1.0000
  C   C7        1.0  0.2810868551946157  0.6333429512673874  0.3786425976395122  1.0000
  C   C8        1.0  0.7189128570634934  0.13334088851065226  0.8786394844763876  1.0000
  C   C9        1.0  0.38776822057847926  0.562437774373315  0.4589347740994967  1.0000
  C   C10       1.0  0.6122397795872557  0.06243636212891352  0.9589329811937757  1.0000
  C   C11       1.0  0.18049831228174895  0.5001027599689396  0.516375433729479  1.0000
  C   C12       1.0  0.8194974780368367  8.727316015470001e-05  0.016369226342043  1.0000
  C   C13       1.0  0.4417536757107995  0.9644638263649911  0.35914520782442577  1.0000
  C   C14       1.0  0.5582510578395058  0.46446217404506024  0.8591447079051517  1.0000
  C   C15       1.0  0.1942414115520492  0.15886542249998578  0.38892572793563557  1.0000
  C   C16       1.0  0.8057622762639484  0.6588666975286587  0.8889212270043103  1.0000
  C   C17       1.0  0.36041433324197664  0.1478881048772109  0.45737199586584854  1.0000
  C   C18       1.0  0.6395944391775996  0.6478920032929524  0.957366288403257  1.0000
  C   C19       1.0  0.7116521272859301  0.9637302199189932  0.49412769461764566  1.0000
  C   C20       1.0  0.28834572553279253  0.46373978674408517  0.9941255380985651  1.0000
  C   C21       1.0  0.5975233295268436  0.9199329355253599  0.5802897227368076  1.0000
  C   C22       1.0  0.4024679907454142  0.41994165726753613  0.080287949999736  1.0000
  C   C23       1.0  0.7940388041279005  0.8347728904223147  0.6323299886243987  1.0000
  C   C24       1.0  0.20594749230544807  0.33477957451825097  0.1323294961996169  1.0000
  N   N1        1.0  0.7688451013214034  0.8374673687903282  0.2625529991816932  1.0000
  N   N2        1.0  0.23115163871452882  0.33746077991675355  0.7625511647758997  1.0000
  N   N3        1.0  0.48645681465799834  0.6869637769212815  0.323459210085609  1.0000
  N   N4        1.0  0.5135380815543369  0.18696193300782235  0.8234606469338813  1.0000
  N   N5        1.0  0.24511669828201826  0.0439651631808999  0.3284545270673647  1.0000
  N   N6        1.0  0.7548845544908714  0.5439616656835966  0.8284505810898678  1.0000
  N   N7        1.0  0.5154944636992269  0.024978401113344303  0.4379149556684254  1.0000
  N   N8        1.0  0.4845114613669565  0.5249827359029596  0.9379118610322619  1.0000
  O   O1        1.0  0.24275368041868003  0.4818804373427454  0.5955806331798996  1.0000
  O   O2        1.0  0.7572572345644416  0.9818789924362434  0.0955784382842637  1.0000
  O   O3        1.0  0.9634146043364921  0.46696674609689387  0.4849866113355573  1.0000
  O   O4        1.0  0.03657951879088729  0.9669337868823361  0.9849808934965479  1.0000
  O   O5        1.0  0.7270565462020996  0.7091018991687366  0.664485881138745  1.0000
  O   O6        1.0  0.27293411766828507  0.20911229524454464  0.1644848092244544  1.0000
  O   O7        1.0  0.015003043310642296  0.8930988670810367  0.6403118366030041  1.0000
  O   O8        1.0  0.9849932907244179  0.39311263578685646  0.1403184451465762  1.0000
  O   O9        1.0  0.27477771607866686  0.8783793932110129  0.1269012432056371  1.0000
  O   O10       1.0  0.7252128472016677  0.37837283970432634  0.626900614145562  1.0000
  O   O11       1.0  0.7481505440574096  0.20883298370368664  0.24074278967714946  1.0000
  O   O12       1.0  0.25185098597141575  0.7088214346298116  0.7407342533310908  1.0000
