data_image0
_chemical_formula_structural       Ag2H68C42S8N2O6
_chemical_formula_sum              "Ag2 H68 C42 S8 N2 O6"
_cell_length_a       8.006328562
_cell_length_b       11.728455759305263
_cell_length_c       13.8066
_cell_angle_alpha    90.0
_cell_angle_beta     90.0
_cell_angle_gamma    92.13502459944843

_space_group_name_H-M_alt    "P 1"
_space_group_IT_number       1

loop_
  _space_group_symop_operation_xyz
  'x, y, z'

loop_
  _atom_site_type_symbol
  _atom_site_label
  _atom_site_symmetry_multiplicity
  _atom_site_fract_x
  _atom_site_fract_y
  _atom_site_fract_z
  _atom_site_occupancy
  Ag  Ag1       1.0  0.6099500338167729  0.4185263314772882  0.7217801631103953  1.0000
  Ag  Ag2       1.0  0.3900409503186708  0.5814682124401997  0.22178016311039525  1.0000
  H   H1        1.0  0.9182534777088449  0.5509903599171935  0.47226978401634057  1.0000
  H   H2        1.0  0.08173700243460051  0.44901783551173935  0.9722668868512157  1.0000
  H   H3        1.0  0.753046313446504  0.6176293598221322  0.5317449625541428  1.0000
  H   H4        1.0  0.2469489299259848  0.3823745695094729  0.0317362710587688  1.0000
  H   H5        1.0  0.9689989968583677  0.6885045943727023  0.6304405139570903  1.0000
  H   H6        1.0  0.031006005790935397  0.3114950688615679  0.1304390653745315  1.0000
  H   H7        1.0  0.9264224926311471  0.558299891077141  0.6917112105804506  1.0000
  H   H8        1.0  0.0735787629823221  0.4416997721571364  0.19170758912404295  1.0000
  H   H9        1.0  0.972984008046261  0.3549230864301833  0.6401163211797254  1.0000
  H   H10       1.0  0.027012344646927  0.6450782832430235  0.14011487259716657  1.0000
  H   H11       1.0  0.8296510324054083  0.2430975836384732  0.6078752190981118  1.0000
  H   H12       1.0  0.1703416663794499  0.7569054924736636  0.10787594338939499  1.0000
  H   H13       1.0  0.03947595092366641  0.38075686540310744  0.4585987860878119  1.0000
  H   H14       1.0  0.9605206811520122  0.6192496235868958  0.95859661321397  1.0000
  H   H15       1.0  0.9263400654126246  0.2510487358363918  0.4369685512725781  1.0000
  H   H16       1.0  0.0736590646869359  0.7489577531536044  0.9369707241464196  1.0000
  H   H17       1.0  0.43948057426086257  0.326077442744463  0.3182470702417675  1.0000
  H   H18       1.0  0.5605231328127545  0.6739213672703528  0.8182463459504845  1.0000
  H   H19       1.0  0.47655022570560857  0.3538429105870122  0.4415113061868965  1.0000
  H   H20       1.0  0.5234546838161975  0.6461550462083352  0.9415105818956133  1.0000
  H   H21       1.0  0.3436169122768149  0.1632720768960141  0.408587197427316  1.0000
  H   H22       1.0  0.6563755071255529  0.8367258798993336  0.9085893703011577  1.0000
  H   H23       1.0  0.172665229594017  0.222673216076096  0.35087784103254893  1.0000
  H   H24       1.0  0.8273325583661092  0.7773315664749775  0.8508800139063906  1.0000
  H   H25       1.0  0.43501473299225074  0.5135980168467071  0.5193842075529105  1.0000
  H   H26       1.0  0.5649876319419249  0.486399086729172  0.0193820346790687  1.0000
  H   H27       1.0  0.4435222239979382  0.633829437811393  0.4395064679211415  1.0000
  H   H28       1.0  0.5564812968206854  0.3661659593255635  0.9395050193385757  1.0000
  H   H29       1.0  0.2799164546774833  0.7083214696757311  0.5589775904277658  1.0000
  H   H30       1.0  0.7200834122328034  0.2916756339001481  0.05897831471904878  1.0000
  H   H31       1.0  0.1310056265519037  0.6540140507039922  0.4766191531586372  1.0000
  H   H32       1.0  0.8689967383822718  0.3459830528718868  0.9766184288673543  1.0000
  H   H33       1.0  0.0688984221221389  0.4497046771813729  0.7743658829835025  1.0000
  H   H34       1.0  0.9310962159216345  0.5502881602971783  0.2743680558573444  1.0000
  H   H35       1.0  0.22506988547272755  0.5196917102684823  0.8447612011646584  1.0000
  H   H36       1.0  0.7749297951825724  0.4803019804295375  0.3447612011646584  1.0000
  H   H37       1.0  0.22938238960356475  0.6542811083966598  0.7278214766850652  1.0000
  H   H38       1.0  0.7706196959481276  0.34571087586243016  0.2278214766850652  1.0000
  H   H39       1.0  0.37510438212268593  0.5617238607917301  0.6761997885069488  1.0000
  H   H40       1.0  0.6248952054051244  0.4382681234673598  0.17620051279822485  1.0000
  H   H41       1.0  0.2953721024189022  0.17310457801510643  0.7112199962336873  1.0000
  H   H42       1.0  0.7046263757882016  0.8268899659023816  0.2112214448162462  1.0000
  H   H43       1.0  0.10488049213447684  0.2441478968003636  0.7093469789810669  1.0000
  H   H44       1.0  0.8951180326363755  0.7558475003365857  0.2093484275636257  1.0000
  H   H45       1.0  0.40774630186595573  0.2668128186788437  0.5745281242304401  1.0000
  H   H46       1.0  0.5922521763411482  0.7331817252386443  0.07452957281300597  1.0000
  H   H47       1.0  0.2691646429624441  0.3809471333438879  0.5807997624324628  1.0000
  H   H48       1.0  0.7308375822804934  0.6190474105736001  0.0807983138498969  1.0000
  H   H49       1.0  0.05691048610547261  0.0658079641456553  0.4701954137876071  1.0000
  H   H50       1.0  0.9430771235041107  0.9341934055275518  0.9701983109527318  1.0000
  H   H51       1.0  0.044156847228187204  0.09702555794515182  0.5953725030058122  1.0000
  H   H52       1.0  0.9558280781025204  0.9029723988501956  0.0953782973360546  1.0000
  H   H53       1.0  0.2377203304679583  0.0597270690158567  0.5435849521243482  1.0000
  H   H54       1.0  0.762269777165514  0.9402743006573503  0.043590022163314784  1.0000
  H   H55       1.0  0.0241362146472781  0.2029860301318109  0.9281546506743152  1.0000
  H   H56       1.0  0.9758554213806151  0.7970204588581922  0.4281488563440661  1.0000
  H   H57       1.0  0.2846405365953117  0.09506059351637222  0.9443121405704529  1.0000
  H   H58       1.0  0.7153642880082318  0.9049586937656146  0.4443020004925202  1.0000
  H   H59       1.0  0.37042649846073766  0.8305425984336878  0.8006996653774292  1.0000
  H   H60       1.0  0.6295839193100579  0.1694647437757766  0.3006974925035877  1.0000
  H   H61       1.0  0.37261968485316294  0.8677088383458482  0.9257304477568695  1.0000
  H   H62       1.0  0.6274005387582025  0.1322950909857568  0.42572610200918587  1.0000
  H   H63       1.0  0.476874127094476  0.9586261981383117  0.8413012617154151  1.0000
  H   H64       1.0  0.5231412867240977  0.0413811440711598  0.3412947430938829  1.0000
  H   H65       1.0  0.10204915384555592  0.856708279778644  0.7287398780293515  1.0000
  H   H66       1.0  0.8979708369470674  0.1432913834556331  0.22872828936885264  1.0000
  H   H67       1.0  0.8414643098043586  0.9667710311548704  0.7115705532136827  1.0000
  H   H68       1.0  0.1585528104544025  0.0332218063236809  0.21155751597062525  1.0000
  C   C1        1.0  0.8519327823585243  0.5561506312438382  0.5416460243651569  1.0000
  C   C2        1.0  0.1480613051295094  0.44385500452669663  0.0416416786174736  1.0000
  C   C3        1.0  0.9719279652293551  0.5940984201862847  0.6224979357698501  1.0000
  C   C4        1.0  0.0280684340275812  0.40590380270638354  0.12249648718728418  1.0000
  C   C5        1.0  0.8983857164885833  0.3193839360385198  0.5804564483652754  1.0000
  C   C6        1.0  0.10161072933210143  0.6806191400736239  0.0804557240739925  1.0000
  C   C7        1.0  0.0028438149812614996  0.2981848452015683  0.4911086002346677  1.0000
  C   C8        1.0  0.997156517566495  0.7018207905689666  0.9911093245259508  1.0000
  C   C9        1.0  0.37689520194418685  0.3408185154479142  0.3876551794069485  1.0000
  C   C10       1.0  0.6231071629899888  0.6591785881279719  0.8876544551156726  1.0000
  C   C11       1.0  0.2625210804243708  0.2369211279285537  0.4104479017281619  1.0000
  C   C12       1.0  0.7374789261771539  0.7630785353057234  0.9104486260194378  1.0000
  C   C13       1.0  0.3607935625940399  0.5681844385836214  0.47273477901872946  1.0000
  C   C14       1.0  0.6392050553043022  0.4318126649922576  0.9727333304361706  1.0000
  C   C15       1.0  0.2247481947506458  0.627565953716001  0.5291027479611188  1.0000
  C   C16       1.0  0.775249174135759  0.372431149859878  0.029101299378559996  1.0000
  C   C17       1.0  0.2009843147401895  0.4790750508383113  0.7740341575768139  1.0000
  C   C18       1.0  0.7990115257517871  0.5209169334207786  0.2740341575768142  1.0000
  C   C19       1.0  0.24196126799273548  0.5680462170302292  0.6953246997812669  1.0000
  C   C20       1.0  0.7580383660988163  0.431946620448322  0.19532542407254275  1.0000
  C   C21       1.0  0.23823766385031325  0.2538319377324783  0.6921450610577577  1.0000
  C   C22       1.0  0.7617607677930494  0.7461617529655413  0.19214650964031676  1.0000
  C   C23       1.0  0.2768130763755465  0.2881100297543071  0.5875602972491407  1.0000
  C   C24       1.0  0.7231879929829361  0.7118862206021106  0.0875610215404237  1.0000
  C   C25       1.0  0.1654430145823227  0.2325065704146567  0.5076492402184485  1.0000
  C   C26       1.0  0.8345533381108652  0.7674947992585572  0.0076506888010073  1.0000
  C   C27       1.0  0.1235415942469302  0.10689048140393  0.5308729158518374  1.0000
  C   C28       1.0  0.8764460619264013  0.8931117414887453  0.0308765373082451  1.0000
  C   C29       1.0  0.9166876199076415  0.08972029288252512  0.8198854171193515  1.0000
  C   C30       1.0  0.08331507097275902  0.9102827832296116  0.3198745527501359  1.0000
  C   C31       1.0  0.0409728783986196  0.1260870661556197  0.885571393391565  1.0000
  C   C32       1.0  0.9590300918642641  0.8739211292733132  0.38556342618747397  1.0000
  C   C33       1.0  0.1860380302025177  0.0655963657182426  0.8947032578621829  1.0000
  C   C34       1.0  0.8139723875682849  0.934410976491229  0.39469311778425004  1.0000
  C   C35       1.0  0.2094485932297019  0.9670560064563105  0.8391015890950726  1.0000
  C   C36       1.0  0.7905654784494376  0.0329496293142242  0.3390936218909815  1.0000
  C   C37       1.0  0.36565612459870084  0.9021242987016009  0.8516832529370006  1.0000
  C   C38       1.0  0.6343553559290598  0.09787963062999692  0.3516781828980342  1.0000
  C   C39       1.0  0.0843089372777897  0.9321559174442129  0.7734938362811972  1.0000
  C   C40       1.0  0.9157076324252318  0.0678497183263218  0.2734894905335139  1.0000
  C   C41       1.0  0.938293409393566  0.9928744274788529  0.7634225660191516  1.0000
  C   C42       1.0  0.06172056915807641  0.0071295018527522  0.2634131502324948  1.0000
  S   S1        1.0  0.7358564656054937  0.4209025476883852  0.5591832891515622  1.0000
  S   S2        1.0  0.2641400267789393  0.5791013816432198  0.059183289151562186  1.0000
  S   S3        1.0  0.2759540740922191  0.4777534138864326  0.3741869830370987  1.0000
  S   S4        1.0  0.7240457928180675  0.5222436896894465  0.8741877073283817  1.0000
  S   S5        1.0  0.32593288661501413  0.352396703593179  0.7816182115799677  1.0000
  S   S6        1.0  0.6740656381558381  0.6475986935437703  0.2816203844538094  1.0000
  S   S7        1.0  0.7342755135492425  0.17158243448886176  0.8077557110367479  1.0000
  S   S8        1.0  0.2657204666339723  0.8284121094286263  0.30775136528906427  1.0000
  N   N1        1.0  0.1434543945254134  0.5584833332622026  0.6060079961757407  1.0000
  N   N2        1.0  0.8565404763371022  0.4415137703136836  0.106007996175741  1.0000
  O   O1        1.0  0.8067471800151296  0.2906654220531379  0.8041060072718835  1.0000
  O   O2        1.0  0.1932401036482219  0.7093299750838185  0.3041031101067588  1.0000
  O   O3        1.0  0.653737657594185  0.1372011029117175  0.7162639607144425  1.0000
  O   O4        1.0  0.3462523103480493  0.8627977071030912  0.2162530963452269  1.0000
  O   O5        1.0  0.6317132584435329  0.15039614194389372  0.8941846653049978  1.0000
  O   O6        1.0  0.368275460486757  0.8496026680709222  0.3941810438485973  1.0000
