data_image0
_chemical_formula_structural       Zn4H40C48N8O20
_chemical_formula_sum              "Zn4 H40 C48 N8 O20"
_cell_length_a       8.00001406368471
_cell_length_b       9.91370659502986
_cell_length_c       16.992517576196683
_cell_angle_alpha    83.49587478497821
_cell_angle_beta     76.64576999397455
_cell_angle_gamma    66.20982332396147

_space_group_name_H-M_alt    "P 1"
_space_group_IT_number       1

loop_
  _space_group_symop_operation_xyz
  'x, y, z'

loop_
  _atom_site_type_symbol
  _atom_site_label
  _atom_site_symmetry_multiplicity
  _atom_site_fract_x
  _atom_site_fract_y
  _atom_site_fract_z
  _atom_site_occupancy
  Zn  Zn1       1.0  0.963161478905043  0.8130596886461845  0.7128479149835629  1.0000
  Zn  Zn2       1.0  0.48901843318942867  0.6871650816449204  0.7861789722895056  1.0000
  Zn  Zn3       1.0  0.036836195151984316  0.1869398294932907  0.28715176618126753  1.0000
  Zn  Zn4       1.0  0.5109775319440216  0.3128333338389027  0.2138191137236447  1.0000
  H   H1        1.0  0.8504757143982287  0.2607549071509538  0.8649679868854963  1.0000
  H   H2        1.0  0.9768363896989523  0.23950562998170713  0.6350762236919394  1.0000
  H   H3        1.0  0.14951224203763752  0.7392457136441806  0.13503184186276943  1.0000
  H   H4        1.0  0.023164125050023035  0.7604938881577681  0.3649244790148317  1.0000
  H   H5        1.0  0.2596159535599582  0.6053634690624037  0.9602027149857477  1.0000
  H   H6        1.0  0.8247431839413079  0.8946154090171561  0.5398481847299267  1.0000
  H   H7        1.0  0.7403845611890174  0.3946360490770715  0.0397979877210233  1.0000
  H   H8        1.0  0.1752540000493709  0.1053907250562673  0.46015507460590055  1.0000
  H   H9        1.0  0.28136581899167357  0.1754997770501916  0.04556142222237719  1.0000
  H   H10       1.0  0.5016827040746603  0.3249261584310403  0.45448910220132893  1.0000
  H   H11       1.0  0.7186353250335317  0.8244975357779722  0.9544346178802601  1.0000
  H   H12       1.0  0.49832020484432576  0.6750843862650129  0.5455190736845809  1.0000
  H   H13       1.0  0.1189843383784322  0.3492838218978349  0.8171023778576301  1.0000
  H   H14       1.0  0.2866523985575  0.1504033342930953  0.6822123914494611  1.0000
  H   H15       1.0  0.8810215263606478  0.6507190042086108  0.18289387520571415  1.0000
  H   H16       1.0  0.7133520147585557  0.8495972865020391  0.3177941538219643  1.0000
  H   H17       1.0  0.3733966500088215  0.9599973762088113  0.9702660261934782  1.0000
  H   H18       1.0  0.3038103821285885  0.5402097515917816  0.5300046198365538  1.0000
  H   H19       1.0  0.6266033731341166  0.040002141930664  0.029731305885441397  1.0000
  H   H20       1.0  0.6961856366655611  0.45979086920335277  0.4699935836099203  1.0000
  H   H21       1.0  0.20088769384900443  0.9139637078334459  0.9430123835229127  1.0000
  H   H22       1.0  0.05852853085323058  0.5863172978961799  0.556749766672148  1.0000
  H   H23       1.0  0.7991140911083716  0.0860358103060292  0.05698318674156871  1.0000
  H   H24       1.0  0.9414702531999521  0.4136789122763318  0.44324790414985676  1.0000
  H   H25       1.0  0.1380568828556221  0.029046155321069  0.028422643688507804  1.0000
  H   H26       1.0  0.19521588017973096  0.47154076788611127  0.4713229796694237  1.0000
  H   H27       1.0  0.8619422115057909  0.9709588760966952  0.9715715389674318  1.0000
  H   H28       1.0  0.8047877195661215  0.5284466210411338  0.5286794903742307  1.0000
  H   H29       1.0  0.5572229146651677  0.0250854162005254  0.8115227943910456  1.0000
  H   H30       1.0  0.3951259935758171  0.47321129120672367  0.6882433904327743  1.0000
  H   H31       1.0  0.44277020977634846  0.9749129992832978  0.18847427008015674  1.0000
  H   H32       1.0  0.6048745305195881  0.5267827136544696  0.3117510818416919  1.0000
  H   H33       1.0  0.5287977285245729  0.2780643956571467  0.8816442219086869  1.0000
  H   H34       1.0  0.6896909442264839  0.220480409272966  0.6185708985241264  1.0000
  H   H35       1.0  0.4711926088856868  0.7219362251379948  0.11835193845389111  1.0000
  H   H36       1.0  0.3103198746452944  0.7795146982438865  0.3814255949283024  1.0000
  H   H37       1.0  0.09690979424370022  0.0221369149732666  0.7888678354858387  1.0000
  H   H38       1.0  0.9082140734457267  0.4790046440294732  0.7108653324410029  1.0000
  H   H39       1.0  0.9030837899153564  0.9778615005105564  0.2111339189130064  1.0000
  H   H40       1.0  0.09177956437402897  0.5209959767656613  0.2891365393911657  1.0000
  C   C1        1.0  0.18659225827973783  0.48918325840077165  0.8818920913385357  1.0000
  C   C2        1.0  0.5580234873521946  0.0106869386292558  0.6177293691774325  1.0000
  C   C3        1.0  0.8134106592158472  0.510818465050022  0.11810637971564832  1.0000
  C   C4        1.0  0.4419736647500016  0.9893191954441676  0.3822752094581646  1.0000
  C   C5        1.0  0.24157970108142707  0.5054628665231675  0.9514913675143791  1.0000
  C   C6        1.0  0.6983486814060312  0.9945876841741067  0.5484678370397164  1.0000
  C   C7        1.0  0.7584225754819868  0.49453665161630767  0.04850757337796099  1.0000
  C   C8        1.0  0.3016548038983301  0.0054217578662872  0.4515390332081708  1.0000
  C   C9        1.0  0.27318117909018713  0.3926159839131458  0.01007253793579819  1.0000
  C   C10       1.0  0.6753825703161879  0.1076247054176847  0.48997987058663045  1.0000
  C   C11       1.0  0.7268182567812782  0.6073835342263294  0.989925381414594  1.0000
  C   C12       1.0  0.32462322129949667  0.8923836339670501  0.510025251508573  1.0000
  C   C13       1.0  0.2528202641640718  0.2622445949437804  0.9991814691167494  1.0000
  C   C14       1.0  0.513995344300497  0.23800822359927307  0.5007499457408571  1.0000
  C   C15       1.0  0.7471865075843238  0.737750512573065  0.0008164966364673683  1.0000
  C   C16       1.0  0.48600978538064515  0.7619990131298024  0.4992576838588292  1.0000
  C   C17       1.0  0.19742376209661924  0.2468559325923749  0.9294784642822267  1.0000
  C   C18       1.0  0.37421362794481905  0.2532645672718203  0.5702317782213698  1.0000
  C   C19       1.0  0.8025820489817691  0.7531446882027595  0.07051767134779403  1.0000
  C   C20       1.0  0.625790989127914  0.7467437721129144  0.4297745184167853  1.0000
  C   C21       1.0  0.1626217608758509  0.3610899560191143  0.8711820062941771  1.0000
  C   C22       1.0  0.39566699174885384  0.1388430923833681  0.6283754098874257  1.0000
  C   C23       1.0  0.8373862499623071  0.6389084594647088  0.1288156207159474  1.0000
  C   C24       1.0  0.6043392269260649  0.8611619390343961  0.3716322470357626  1.0000
  C   C25       1.0  0.14890265536609346  0.6111788749982949  0.820270488726216  1.0000
  C   C26       1.0  0.5806936139504232  0.888431716091766  0.6790952074736867  1.0000
  C   C27       1.0  0.8510985430896412  0.3888239511081508  0.17972914320917255  1.0000
  C   C28       1.0  0.41930856617770457  0.11156449408073851  0.3209042169185637  1.0000
  C   C29       1.0  0.3350092035471591  0.4115717373154837  0.08351387706094471  1.0000
  C   C30       1.0  0.8291997798763828  0.0884837058649381  0.416843458032247  1.0000
  C   C31       1.0  0.6649866869232282  0.5884255755126802  0.9164861291852164  1.0000
  C   C32       1.0  0.17080254100129363  0.9115235308641374  0.5831618307257217  1.0000
  C   C33       1.0  0.2251143692421349  0.0002558161124639  0.9676379730710709  1.0000
  C   C34       1.0  0.19329941645933957  0.5000256714776796  0.5322467471224357  1.0000
  C   C35       1.0  0.7748897329126758  0.9997437020270185  0.03235656740727674  1.0000
  C   C36       1.0  0.8067033190517847  0.499970538694825  0.46775340929811193  1.0000
  C   C37       1.0  0.6643661796458454  0.0619736585553596  0.8169906572365307  1.0000
  C   C38       1.0  0.5444189468669904  0.4369504599208156  0.6827817387133879  1.0000
  C   C39       1.0  0.33562691290718044  0.9380247569284635  0.18300772653445566  1.0000
  C   C40       1.0  0.45558034979460144  0.5630446475960298  0.31721726507014847  1.0000
  C   C41       1.0  0.647157698644186  0.1860213173308694  0.8523373856125789  1.0000
  C   C42       1.0  0.6866025694066379  0.3129612418951311  0.6476979804132698  1.0000
  C   C43       1.0  0.3528320304922232  0.8139804061199243  0.14766139968780587  1.0000
  C   C44       1.0  0.3134024724158094  0.6870338656217143  0.3523004278545941  1.0000
  C   C45       1.0  0.946638149219275  0.0557094717669955  0.8044159106684392  1.0000
  C   C46       1.0  0.8073294482784517  0.4447330035490964  0.6953412022246968  1.0000
  C   C47       1.0  0.053352594247840585  0.9442889437168276  0.19558482218846515  1.0000
  C   C48       1.0  0.1926686847262927  0.5552632066234082  0.30465969446834157  1.0000
  N   N1        1.0  0.8520673313249388  0.9821188540028772  0.7868568135899567  1.0000
  N   N2        1.0  0.6218339643903122  0.5177166788412535  0.7126797644110854  1.0000
  N   N3        1.0  0.14792572933960457  0.0178795614809459  0.2131428894808138  1.0000
  N   N4        1.0  0.37816254524003046  0.4822806339869103  0.28731833526381934  1.0000
  N   N5        1.0  0.8253188309590198  0.1790955371482141  0.8440876823305035  1.0000
  N   N6        1.0  0.8492497497955751  0.3207956103392959  0.6559309859476131  1.0000
  N   N7        1.0  0.17467308705105453  0.8209028783356089  0.15591187598343484  1.0000
  N   N8        1.0  0.15075187494955575  0.6792005998332087  0.3440677064163325  1.0000
  O   O1        1.0  0.039635180162299596  0.6184122961093053  0.7742155302210066  1.0000
  O   O2        1.0  0.4327357830465457  0.8814144154895658  0.7246138752991841  1.0000
  O   O3        1.0  0.9603653237005714  0.3815861193745107  0.22578445411921422  1.0000
  O   O4        1.0  0.5672692051152025  0.1185784867159683  0.27538441553537046  1.0000
  O   O5        1.0  0.22027204892268062  0.7069864197381364  0.8163313322048112  1.0000
  O   O6        1.0  0.7435330288721714  0.792329762291466  0.6834173307051473  1.0000
  O   O7        1.0  0.7797257861164367  0.2930197143352871  0.18366870125997542  1.0000
  O   O8        1.0  0.25647082752121253  0.2076642425697273  0.3165815337391323  1.0000
  O   O9        1.0  0.3006694363272472  0.5379779765416757  0.10541668970103761  1.0000
  O   O10       1.0  0.9424735969647454  0.9619964909152543  0.3950918629976457  1.0000
  O   O11       1.0  0.6993194597762624  0.46201823363082895  0.8945870068367514  1.0000
  O   O12       1.0  0.057533731706321554  0.0380052325355393  0.6049137835827241  1.0000
  O   O13       1.0  0.42725055862101136  0.2897470323448204  0.11902238503155621  1.0000
  O   O14       1.0  0.8356710116374515  0.210134191241778  0.38147688476494335  1.0000
  O   O15       1.0  0.5727527960500748  0.7102491778276914  0.8809758648177424  1.0000
  O   O16       1.0  0.16433072119890793  0.789869737520327  0.6185255168650701  1.0000
  O   O17       1.0  0.17568279549949034  0.12402891362934548  0.9125084267853438  1.0000
  O   O18       1.0  0.21300133693254955  0.3760750463999969  0.5871708039499239  1.0000
  O   O19       1.0  0.8243292725783177  0.8759672965431662  0.08748497189111501  1.0000
  O   O20       1.0  0.7870003321268438  0.6239288823621081  0.4128342362796431  1.0000
