data_image0
_chemical_formula_structural       Sm2P4H34C32O22
_chemical_formula_sum              "Sm2 P4 H34 C32 O22"
_cell_length_a       5.609879312046415
_cell_length_b       9.385762509759909
_cell_length_c       18.358233004226037
_cell_angle_alpha    104.96539956927467
_cell_angle_beta     91.76689017075998
_cell_angle_gamma    96.38368963343471

_space_group_name_H-M_alt    "P 1"
_space_group_IT_number       1

loop_
  _space_group_symop_operation_xyz
  'x, y, z'

loop_
  _atom_site_type_symbol
  _atom_site_label
  _atom_site_symmetry_multiplicity
  _atom_site_fract_x
  _atom_site_fract_y
  _atom_site_fract_z
  _atom_site_occupancy
  Sm  Sm1       1.0  0.12078707049065682  0.8045416067297071  0.0028934784195583626  1.0000
  Sm  Sm2       1.0  0.8792163908926439  0.19546972609747124  0.9971101607465086  1.0000
  P   P1        1.0  0.3840466931220021  0.10033256446461541  0.10731635126415279  1.0000
  P   P2        1.0  0.6159533357463828  0.8996709956169512  0.8926851439415341  1.0000
  P   P3        1.0  0.25832457027021866  0.5331040988119541  0.10717804602094105  1.0000
  P   P4        1.0  0.7416750066386939  0.46689723363279273  0.8928220638287668  1.0000
  H   H1        1.0  0.597599792614517  0.14521741442528216  0.3182289867242786  1.0000
  H   H2        1.0  0.40238609499048283  0.8547617463508888  0.6817675240990011  1.0000
  H   H3        1.0  0.47775980217351594  0.0055545789501252  0.4103610098226937  1.0000
  H   H4        1.0  0.5222268799806428  0.9944112035441677  0.5896294078804728  1.0000
  H   H5        1.0  0.7718432945925002  0.8819008269817418  0.2989003347796312  1.0000
  H   H6        1.0  0.2281218487387733  0.1180973635423612  0.7010940531562966  1.0000
  H   H7        1.0  0.8882506854291847  0.0254966273292894  0.2064775890587001  1.0000
  H   H8        1.0  0.11173104936383987  0.9745125957406487  0.7935206139408348  1.0000
  H   H9        1.0  0.49781439181248993  0.2622489094917882  0.22803480258948375  1.0000
  H   H10       1.0  0.5021901350009942  0.7377513056598064  0.7719712125002542  1.0000
  H   H11       1.0  0.19620666181371146  0.2668451771291772  0.19961373405622135  1.0000
  H   H12       1.0  0.8037985387934724  0.7331661520036478  0.8003915595167895  1.0000
  H   H13       1.0  0.5272198909073396  0.6532147471799874  0.31265637509718397  1.0000
  H   H14       1.0  0.47278564711247373  0.3467976754823355  0.6873452519613252  1.0000
  H   H15       1.0  0.4721728301549604  0.5205027520678557  0.41259325191752777  1.0000
  H   H16       1.0  0.5278409210526077  0.4795062751618673  0.587406940554878  1.0000
  H   H17       1.0  0.7473581732745843  0.3572240135938572  0.32551572306552856  1.0000
  H   H18       1.0  0.2526633711650064  0.6427716129682111  0.6744833592173618  1.0000
  H   H19       1.0  0.8016067189926588  0.4850242166925229  0.2225913345704313  1.0000
  H   H20       1.0  0.1983989676408342  0.5149637086344825  0.7774038310865733  1.0000
  H   H21       1.0  0.343023448282743  0.7461516547557567  0.21224542833449075  1.0000
  H   H22       1.0  0.6569742598947812  0.25385747673436043  0.7877551316491347  1.0000
  H   H23       1.0  0.03299304144142209  0.6981778028806148  0.1867422123460968  1.0000
  H   H24       1.0  0.9670052342739693  0.3018257634314241  0.8132581733517127  1.0000
  H   H25       1.0  0.16948528499429472  0.8135833018771522  0.5113143964233301  1.0000
  H   H26       1.0  0.8305101623543151  0.18642361835106414  0.48868584829267536  1.0000
  H   H27       1.0  0.5448458391488629  0.388692938750225  0.10408027093772176  1.0000
  H   H28       1.0  0.45515513542579805  0.6113150689966462  0.8959223602827392  1.0000
  H   H29       1.0  0.19976552300339992  0.303124516592419  0.5226220429901645  1.0000
  H   H30       1.0  0.8002363885254836  0.6968712419076726  0.47737845718254585  1.0000
  H   H31       1.0  0.71766027952863  0.6703997024189405  0.08337480936008743  1.0000
  H   H32       1.0  0.2823410366041657  0.3296016263314456  0.9166269548965642  1.0000
  H   H33       1.0  0.6680877775497223  0.8374568399520614  0.09067322175697966  1.0000
  H   H34       1.0  0.3319155316449097  0.16254559385015452  0.9093297997864909  1.0000
  C   C1        1.0  0.2522142607551601  0.09590677234837133  0.2555013657535028  1.0000
  C   C2        1.0  0.7477725952372866  0.9040935304690765  0.7444990032480162  1.0000
  C   C3        1.0  0.41637959402520147  0.08699738125826431  0.3127499550135227  1.0000
  C   C4        1.0  0.5836124677728806  0.9129850591678021  0.6872426990833276  1.0000
  C   C5        1.0  0.35034763262041935  0.008837632260487302  0.3651001216347111  1.0000
  C   C6        1.0  0.6496508752833137  0.9911414214995561  0.6348905332672173  1.0000
  C   C7        1.0  0.11710594159956145  0.9347047419845681  0.36047784597556637  1.0000
  C   C8        1.0  0.8828761399286549  0.0652811026406894  0.6395156780985687  1.0000
  C   C9        1.0  0.9530547051732725  0.9395987853689433  0.30227986367717097  1.0000
  C   C10       1.0  0.0469302872648427  0.06039261704567172  0.6977171434966748  1.0000
  C   C11       1.0  0.01934491125468441  0.0202551080907725  0.2505670683491275  1.0000
  C   C12       1.0  0.9806444733337399  0.9797485121986468  0.7494326739008128  1.0000
  C   C13       1.0  0.3297967377785723  0.1917167075962496  0.20431789468279493  1.0000
  C   C14       1.0  0.6702064011527683  0.8082846022431058  0.795682254586431  1.0000
  C   C15       1.0  0.0492682937499822  0.8547803157867764  0.4180024942353099  1.0000
  C   C16       1.0  0.9507283861781488  0.14521545633250105  0.5819935876156278  1.0000
  C   C17       1.0  0.1693905506598838  0.5755981626652655  0.2595763573310989  1.0000
  C   C18       1.0  0.830615356776285  0.424407575928349  0.7404233129654755  1.0000
  C   C19       1.0  0.35695295585176007  0.5855358669442837  0.3136175461408968  1.0000
  C   C20       1.0  0.643046011731947  0.41447103828687665  0.6863843726918119  1.0000
  C   C21       1.0  0.32723422019154924  0.5121951096624076  0.3703918214607639  1.0000
  C   C22       1.0  0.6727716454572885  0.4878106365395498  0.6296094835329953  1.0000
  C   C23       1.0  0.10791318191476049  0.4278106680086254  0.37382308280839976  1.0000
  C   C24       1.0  0.8921026222166049  0.572191681602476  0.626178986905259  1.0000
  C   C25       1.0  0.9189118207796553  0.4192365018836315  0.3204497227458418  1.0000
  C   C26       1.0  0.0811030515745443  0.5807613975260537  0.6795506660539842  1.0000
  C   C27       1.0  0.9493678206868523  0.49140179796793854  0.26375371768654776  1.0000
  C   C28       1.0  0.05064683961672498  0.5085949850872211  0.7362454335362256  1.0000
  C   C29       1.0  0.19845036020821277  0.6525380694171334  0.19770297497755954  1.0000
  C   C30       1.0  0.801556848421477  0.3474654353091893  0.8022964194709201  1.0000
  C   C31       1.0  0.0668787720574073  0.3462275026795751  0.4320107457620991  1.0000
  C   C32       1.0  0.9331260503813681  0.6537738136098669  0.5679932375103148  1.0000
  O   O1        1.0  0.457426357102463  0.9436082312433953  0.09742004220418463  1.0000
  O   O2        1.0  0.5425745896139703  0.056399781575706194  0.9025836788144019  1.0000
  O   O3        1.0  0.1416798284111067  0.07259745133776362  0.058763648926323186  1.0000
  O   O4        1.0  0.8583208923255936  0.9274094476629244  0.94123937941427  1.0000
  O   O5        1.0  0.5740937058235928  0.2080055039157642  0.08250221965324298  1.0000
  O   O6        1.0  0.4259092478838014  0.7920036114190482  0.9175022137530886  1.0000
  O   O7        1.0  0.21684447666085296  0.8750756703707269  0.4728391519787322  1.0000
  O   O8        1.0  0.7831439761504057  0.1249234997172763  0.5271589093573752  1.0000
  O   O9        1.0  0.8513082896746481  0.7764596390654362  0.4145140393511537  1.0000
  O   O10       1.0  0.1486655090202476  0.2235296136729943  0.5854836438044017  1.0000
  O   O11       1.0  0.2556446466916  0.6232962196029989  0.04933767168488856  1.0000
  O   O12       1.0  0.744357163187999  0.37670732917587213  0.9506638432305577  1.0000
  O   O13       1.0  0.5293385277148205  0.4985119700873853  0.11778674193504905  1.0000
  O   O14       1.0  0.4706721412880129  0.5014993023123183  0.8822137066756921  1.0000
  O   O15       1.0  0.0880266783028603  0.3894192716176903  0.08896077804786268  1.0000
  O   O16       1.0  0.9119695904215772  0.6105831921786377  0.9110388952621873  1.0000
  O   O17       1.0  0.24373387114357567  0.36387538629179533  0.4838436222612116  1.0000
  O   O18       1.0  0.7562721379418845  0.6361225620230401  0.5161550332926267  1.0000
  O   O19       1.0  0.8722741327730857  0.26583103082845844  0.43046171045774867  1.0000
  O   O20       1.0  0.12773028824560842  0.7341847471279124  0.5695425198240327  1.0000
  O   O21       1.0  0.7962642708588062  0.7688253483417997  0.08266504074530447  1.0000
  O   O22       1.0  0.2037372573246117  0.2311770967631119  0.9173379610883995  1.0000
