data_image0
_chemical_formula_structural       Zn6H48C36N48O6
_chemical_formula_sum              "Zn6 H48 C36 N48 O6"
_cell_length_a       13.077650366345948
_cell_length_b       15.123250562412554
_cell_length_c       15.121984419318613
_cell_angle_alpha    112.04369267445293
_cell_angle_beta     106.74788705976289
_cell_angle_gamma    106.76228683240365

_space_group_name_H-M_alt    "P 1"
_space_group_IT_number       1

loop_
  _space_group_symop_operation_xyz
  'x, y, z'

loop_
  _atom_site_type_symbol
  _atom_site_label
  _atom_site_symmetry_multiplicity
  _atom_site_fract_x
  _atom_site_fract_y
  _atom_site_fract_z
  _atom_site_occupancy
  Zn  Zn1       1.0  0.774340198879443  0.521738839106547  0.8090830835503053  1.0000
  Zn  Zn2       1.0  0.2526225257804668  0.287370464583283  0.4782693591925451  1.0000
  Zn  Zn3       1.0  0.965220211929065  0.19089812744321216  0.7126506056038977  1.0000
  Zn  Zn4       1.0  0.22565990886918286  0.47826111703902535  0.19091709333095241  1.0000
  Zn  Zn5       1.0  0.7473775819681592  0.7126294915622822  0.5217308176887057  1.0000
  Zn  Zn6       1.0  0.0347798958195541  0.8091018287023604  0.28734957127736044  1.0000
  H   H1        1.0  0.9849070224183691  0.479493214864739  0.7180466499506223  1.0000
  H   H2        1.0  0.5053507256591131  0.23863104555697834  0.520528989218505  1.0000
  H   H3        1.0  0.2667288608786222  0.2819750603280653  0.7614532046696922  1.0000
  H   H4        1.0  0.015093484066035437  0.5205075386739536  0.2819539256128321  1.0000
  H   H5        1.0  0.4946493820895128  0.7613689105885939  0.47947118766274593  1.0000
  H   H6        1.0  0.7332712468699969  0.7180248958175071  0.23854697221155874  1.0000
  H   H7        1.0  0.06059026742973837  0.409409024677757  0.7545383559530662  1.0000
  H   H8        1.0  0.6511693239368056  0.34515884853512796  0.5905965887906319  1.0000
  H   H9        1.0  0.3060364435958931  0.24552977095528664  0.6549272423091566  1.0000
  H   H10       1.0  0.9394102390546665  0.590591728860936  0.24546221961038847  1.0000
  H   H11       1.0  0.3488319814513616  0.6548419050721748  0.4094035248767581  1.0000
  H   H12       1.0  0.6939616682987974  0.7544693877031959  0.34507213729244046  1.0000
  H   H13       1.0  0.10147717658110621  0.5208009600081951  0.9475089117590869  1.0000
  H   H14       1.0  0.5806961112372234  0.4267663637484773  0.4791951975476109  1.0000
  H   H15       1.0  0.15399882577205656  0.052527723864883996  0.5733012325047895  1.0000
  H   H16       1.0  0.8985229311675197  0.4791989961373701  0.05249126512216398  1.0000
  H   H17       1.0  0.4193039968560868  0.5732335924187169  0.5208043181388502  1.0000
  H   H18       1.0  0.8460004841068667  0.947472232276965  0.4266974226881499  1.0000
  H   H19       1.0  0.17186918723439965  0.5913627642722475  0.893447472087459  1.0000
  H   H20       1.0  0.5804796365430532  0.3021318692549215  0.40865528422646946  1.0000
  H   H21       1.0  0.2783783412031724  0.10663417684916963  0.697973653842581  1.0000
  H   H22       1.0  0.8281317190732976  0.40863719192029885  0.10655290409251704  1.0000
  H   H23       1.0  0.41952047120556557  0.6978680868906508  0.5913448926547814  1.0000
  H   H24       1.0  0.7216197706915181  0.893364981809313  0.30202572575900866  1.0000
  H   H25       1.0  0.17631941618545688  0.7593885534582864  0.011895680358989422  1.0000
  H   H26       1.0  0.4168283002186683  0.25257165782104357  0.24060652213940162  1.0000
  H   H27       1.0  0.16429602300958382  0.9880840306548961  0.7474190954105707  1.0000
  H   H28       1.0  0.8236822872491201  0.24061299749887866  0.9881061543801974  1.0000
  H   H29       1.0  0.5831726060890289  0.7474282983715099  0.7593938540405816  1.0000
  H   H30       1.0  0.8357044834748211  0.011916722883796601  0.25258148015289095  1.0000
  H   H31       1.0  0.1275268858479207  0.6859606095798583  0.07238673154163418  1.0000
  H   H32       1.0  0.4415209598596874  0.3864812196146801  0.3140600515101894  1.0000
  H   H33       1.0  0.05501155444912341  0.9276086257765997  0.6135288902616054  1.0000
  H   H34       1.0  0.8724732219007051  0.31403934656571414  0.9276134453396168  1.0000
  H   H35       1.0  0.5584799467927012  0.6135187365995023  0.6859396634749898  1.0000
  H   H36       1.0  0.944986956579484  0.0723897354924929  0.38647161234609934  1.0000
  H   H37       1.0  0.07783159494113077  0.841036055900716  0.10786048052354145  1.0000
  H   H38       1.0  0.236719853290289  0.2668736249636154  0.15900802340324557  1.0000
  H   H39       1.0  0.9699435059259897  0.8921188307066359  0.733210572136393  1.0000
  H   H40       1.0  0.9221685128074952  0.1589639002448564  0.8921396963577095  1.0000
  H   H41       1.0  0.7632806535388068  0.7331271285966989  0.8409918909654193  1.0000
  H   H42       1.0  0.030056601822629096  0.1078811254389365  0.2667896047448579  1.0000
  H   H43       1.0  0.9888518749165698  0.781901014307238  0.9685218895275726  1.0000
  H   H44       1.0  0.20687719873280488  0.1866788377854576  0.21815522321563915  1.0000
  H   H45       1.0  0.020272377434473295  0.0314537234464751  0.8134026001457285  1.0000
  H   H46       1.0  0.01114943155911161  0.2180981445608055  0.03147762607413537  1.0000
  H   H47       1.0  0.7931225095372124  0.8133219157278828  0.7818444918543006  1.0000
  H   H48       1.0  0.9797269317550814  0.9685462326521093  0.18659737743679727  1.0000
  C   C1        1.0  0.8949506230349087  0.37398929813948456  0.7609355711086393  1.0000
  C   C2        1.0  0.5209815585090566  0.3870137813886032  0.6260483879464828  1.0000
  C   C3        1.0  0.13397590428827746  0.2390751930654531  0.6130321597003244  1.0000
  C   C4        1.0  0.10504988379418725  0.6260114554208299  0.2390643432600256  1.0000
  C   C5        1.0  0.479018149760968  0.6129869721247303  0.3739513271234499  1.0000
  C   C6        1.0  0.8660234052459613  0.7609247630547672  0.3869671566874047  1.0000
  C   C7        1.0  0.007438083980673648  0.45097538591128483  0.7746649299508731  1.0000
  C   C8        1.0  0.5564583951618616  0.32376176591098027  0.5490516918111013  1.0000
  C   C9        1.0  0.23271504615625094  0.2253592316581248  0.6763156766454512  1.0000
  C   C10       1.0  0.9925624228484223  0.5490253676490369  0.22533498441778474  1.0000
  C   C11       1.0  0.4435425100583215  0.6762397850208258  0.450949282434557  1.0000
  C   C12       1.0  0.7672846632012734  0.774639927115956  0.323683440358799  1.0000
  C   C13       1.0  0.08457181934221575  0.5461441113610447  0.8872055224381582  1.0000
  C   C14       1.0  0.5384162431283241  0.3411210230755727  0.4538727177931462  1.0000
  C   C15       1.0  0.197305023351845  0.11282406436644983  0.658951838306912  1.0000
  C   C16       1.0  0.9154282887511017  0.4538558448061494  0.11279399324829596  1.0000
  C   C17       1.0  0.46158386462030165  0.6588789330699996  0.5461274590881046  1.0000
  C   C18       1.0  0.8026938871019238  0.8871750943390141  0.34104774059340315  1.0000
  C   C19       1.0  0.09640013337159566  0.7065464949367951  0.010399135423241983  1.0000
  C   C20       1.0  0.3897925296649873  0.3039169624294971  0.29348331259886606  1.0000
  C   C21       1.0  0.08588935037334987  0.98958112335972  0.6960978152936547  1.0000
  C   C22       1.0  0.9036007718485948  0.2934550559950182  0.9896018388224234  1.0000
  C   C23       1.0  0.6102075780836317  0.6960829937160684  0.7065168642823849  1.0000
  C   C24       1.0  0.9141099591608892  0.010418832760500197  0.3039015010940743  1.0000
  C   C25       1.0  0.020820569873095034  0.7646449369500277  0.0329568374520832  1.0000
  C   C26       1.0  0.2561131689231927  0.26836352729822  0.23540196284227474  1.0000
  C   C27       1.0  0.9877995095434713  0.9670147371861829  0.7317020934838822  1.0000
  C   C28       1.0  0.979180336779294  0.2353550192641549  0.9670428775331031  1.0000
  C   C29       1.0  0.7438877373845045  0.7316364288943333  0.7645984133377083  1.0000
  C   C30       1.0  0.0121997996460763  0.0329852189124011  0.2682978840986435  1.0000
  C   C31       1.0  0.9173021123083842  0.7022459538448873  0.04235003802894977  1.0000
  C   C32       1.0  0.21498766055810134  0.34014600695647346  0.2977903054962211  1.0000
  C   C33       1.0  0.8748682182748908  0.9576116029108306  0.659939704420587  1.0000
  C   C34       1.0  0.08269839452071179  0.2977547997154275  0.9576498763397153  1.0000
  C   C35       1.0  0.7850124471905173  0.6598539491890988  0.7022098713850294  1.0000
  C   C36       1.0  0.1251314907379495  0.04238755584162129  0.3400600737784599  1.0000
  N   N1        1.0  0.8059519440316902  0.394618241998856  0.7755201272412292  1.0000
  N   N2        1.0  0.41135400631750924  0.3809581913201683  0.6054142291343112  1.0000
  N   N3        1.0  0.03037769668295452  0.22447680965240835  0.6190627489446284  1.0000
  N   N4        1.0  0.1940477638936428  0.6053825114928485  0.22448024902350025  1.0000
  N   N5        1.0  0.5886461017758008  0.6190417648470258  0.394585286552143  1.0000
  N   N6        1.0  0.9696208139475219  0.7755231463991948  0.3809370293391652  1.0000
  N   N7        1.0  0.7209911242647422  0.3024265718000123  0.7555430403225287  1.0000
  N   N8        1.0  0.4185849793296796  0.45315677631592166  0.6976084433916299  1.0000
  N   N9        1.0  0.9654183920651035  0.24443084378269478  0.546823510552727  1.0000
  N   N10       1.0  0.2790089838285752  0.6975733843671891  0.24445647536392554  1.0000
  N   N11       1.0  0.5814147296831607  0.5468423824365302  0.30239133480741726  1.0000
  N   N12       1.0  0.03458091746913533  0.7555691123375182  0.453175805835002  1.0000
  N   N13       1.0  0.7568067909277758  0.2289082361660917  0.7298769669879874  1.0000
  N   N14       1.0  0.5279242293836149  0.5010092488236993  0.7711334327362493  1.0000
  N   N15       1.0  0.0269315478012757  0.27009618841118777  0.4989756615376351  1.0000
  N   N16       1.0  0.24319371555662875  0.771092517372601  0.27012360857547424  1.0000
  N   N17       1.0  0.47207507946124855  0.4989907072532632  0.22886720604107322  1.0000
  N   N18       1.0  0.973067761732963  0.7299037677090253  0.501023654850094  1.0000
  N   N19       1.0  0.8652417716614096  0.2712307525580044  0.7323135514926946  1.0000
  N   N20       1.0  0.5940390762323844  0.4611413047297716  0.7288102680208508  1.0000
  N   N21       1.0  0.1329260429749723  0.2676835330252203  0.5388839980106042  1.0000
  N   N22       1.0  0.13475913464628772  0.7287692036345489  0.26768682468728133  1.0000
  N   N23       1.0  0.40596023330185455  0.5388586513904486  0.2711890483668781  1.0000
  N   N24       1.0  0.8670732665592666  0.7323164230949929  0.461115318377125  1.0000
  N   N25       1.0  0.8186711441414045  0.6142416028918306  0.9618430153062717  1.0000
  N   N26       1.0  0.20439256654660198  0.34766330352482566  0.38581764915257816  1.0000
  N   N27       1.0  0.8567812173902921  0.03813087789210811  0.652446239194802  1.0000
  N   N28       1.0  0.1813297621662925  0.3857583533007228  0.038157360873711334  1.0000
  N   N29       1.0  0.795607941370001  0.6523358552962364  0.6141816671503973  1.0000
  N   N30       1.0  0.1432176930634768  0.9618682808133627  0.347553339705513  1.0000
  N   N31       1.0  0.7491770719614689  0.5796467889017903  0.005248240480902626  1.0000
  N   N32       1.0  0.1695184695604226  0.4256666694108517  0.42042433820051167  1.0000
  N   N33       1.0  0.7439204146171858  0.9947300177821603  0.574400649138212  1.0000
  N   N34       1.0  0.2508222372280855  0.4203531671967938  0.994751737101623  1.0000
  N   N35       1.0  0.8304812394524248  0.5743324893416001  0.5795754399985285  1.0000
  N   N36       1.0  0.2560788949170529  0.0052699383380528  0.4255986672495169  1.0000
  N   N37       1.0  0.803109527931447  0.644152662783611  0.10756226291604767  1.0000
  N   N38       1.0  0.15892308866371951  0.4634566770317717  0.3559000397650393  1.0000
  N   N39       1.0  0.6955206409640269  0.8924162558770945  0.536577426057164  1.0000
  N   N40       1.0  0.1968909788976489  0.35584809077670343  0.8924376514526101  1.0000
  N   N41       1.0  0.8410770194295907  0.5365432791354223  0.6440994759214149  1.0000
  N   N42       1.0  0.3044794671292835  0.10758370029009971  0.46342208962929016  1.0000
  N   N43       1.0  0.9087965960907166  0.7223204212851043  0.1334524307321131  1.0000
  N   N44       1.0  0.18640698506193587  0.4111649426141  0.2777171340247548  1.0000
  N   N45       1.0  0.7752672500598551  0.8665122336753088  0.5888800173627331  1.0000
  N   N46       1.0  0.09120351165790906  0.27767953486046076  0.8665477461491378  1.0000
  N   N47       1.0  0.8135935217671602  0.5888358109462146  0.7222827803439102  1.0000
  N   N48       1.0  0.22473285768876386  0.1334877224702637  0.4111201595185178  1.0000
  O   O1        1.0  0.025857046256710686  0.6127477828383832  0.9082944150805474  1.0000
  O   O2        1.0  0.4130830067804396  0.2956067637640131  0.387283307620315  1.0000
  O   O3        1.0  0.11743888475636063  0.0916898632630776  0.7044055405912673  1.0000
  O   O4        1.0  0.9741450576905349  0.38725297081590065  0.09170589788556785  1.0000
  O   O5        1.0  0.5869171013128704  0.704393192403188  0.6127162080661462  1.0000
  O   O6        1.0  0.8825584292686344  0.9083092953916819  0.2955923173220042  1.0000
