data_image0
_chemical_formula_structural       Zn6H46C76Br2O26
_chemical_formula_sum              "Zn6 H46 C76 Br2 O26"
_cell_length_a       21.676438654406656
_cell_length_b       21.6761555149279
_cell_length_c       23.478180575205734
_cell_angle_alpha    62.060565175541115
_cell_angle_beta     62.05923054042376
_cell_angle_gamma    89.19522179946136

_space_group_name_H-M_alt    "P 1"
_space_group_IT_number       1

loop_
  _space_group_symop_operation_xyz
  'x, y, z'

loop_
  _atom_site_type_symbol
  _atom_site_label
  _atom_site_symmetry_multiplicity
  _atom_site_fract_x
  _atom_site_fract_y
  _atom_site_fract_z
  _atom_site_occupancy
  Zn  Zn1       1.0  0.4989610539985847  0.05951122302185041  0.5003712593752354  1.0000
  Zn  Zn2       1.0  0.0393481004102725  0.039531880863592085  0.423147440794537  1.0000
  Zn  Zn3       1.0  0.9604909259579132  0.960703814362276  0.5767836025374039  1.0000
  Zn  Zn4       1.0  0.9404798507424843  0.5010328789908485  0.4996491943923687  1.0000
  Zn  Zn5       1.0  0.4985022093493611  0.9337656571021143  0.5038649140370027  1.0000
  Zn  Zn6       1.0  0.0662104321959944  0.5014915867117224  0.4961518153340664  1.0000
  H   H1        1.0  0.2610521813170692  0.6936212216955441  0.1275541531434214  1.0000
  H   H2        1.0  0.7548008023842173  0.2754919804017746  0.11832025827057177  1.0000
  H   H3        1.0  0.7244940969451577  0.2452026595086068  0.8816949741815988  1.0000
  H   H4        1.0  0.9519949045060017  0.4384278383454472  0.7284747462788703  1.0000
  H   H5        1.0  0.5615426226112135  0.0479953726295292  0.2715458564516595  1.0000
  H   H6        1.0  0.8886629121839249  0.37098723045421167  0.8690103347476994  1.0000
  H   H7        1.0  0.628996038707335  0.11132486968250532  0.13100491025343075  1.0000
  H   H8        1.0  0.3060333758138398  0.7389734854530089  0.8724583552824968  1.0000
  H   H9        1.0  0.26158155483334156  0.8520654274794736  0.58738455425884  1.0000
  H   H10       1.0  0.1479348115104102  0.7383757287044544  0.412702044220872  1.0000
  H   H11       1.0  0.13984330662808017  0.8563272797397017  0.6049627729065111  1.0000
  H   H12       1.0  0.14368901948061813  0.8601238257172381  0.3950936652093661  1.0000
  H   H13       1.0  0.211618119665097  0.1436193134790216  0.4729240593943445  1.0000
  H   H14       1.0  0.8564167212963981  0.78849327066019  0.526834381149719  1.0000
  H   H15       1.0  0.3652058762541516  0.1361228245856907  0.37876618576953563  1.0000
  H   H16       1.0  0.8638069506035888  0.6348874641063061  0.6210794023146992  1.0000
  H   H17       1.0  0.18562425400236293  0.6170860394286849  0.2684398674830959  1.0000
  H   H18       1.0  0.3825760090696164  0.8143626953990547  0.7315775377485352  1.0000
  H   H19       1.0  0.33273007189573883  0.13881789135242426  0.46294376110332564  1.0000
  H   H20       1.0  0.8612073686140607  0.6673510204726725  0.5368590241489386  1.0000
  H   H21       1.0  0.9919387181608174  0.6239737578340794  0.2596806002422556  1.0000
  H   H22       1.0  0.3763529175003627  0.0080547629826739  0.7403172306407343  1.0000
  H   H23       1.0  0.06652935299927522  0.7006739962316004  0.11856969081959794  1.0000
  H   H24       1.0  0.7543248804185722  0.13237616441556105  0.36534765824387694  1.0000
  H   H25       1.0  0.29973705318498395  0.9334762171177146  0.8814601133125066  1.0000
  H   H26       1.0  0.6526466667567589  0.8541685886442777  0.5909339057438672  1.0000
  H   H27       1.0  0.1458421728081518  0.347281886572219  0.4092344363930566  1.0000
  H   H28       1.0  0.759385838463473  0.862225928864099  0.6034127336210487  1.0000
  H   H29       1.0  0.1378336919893854  0.24058716875750719  0.39669158315236075  1.0000
  H   H30       1.0  0.8674891875222955  0.24576508650997647  0.634442465899795  1.0000
  H   H31       1.0  0.823680052637002  0.1514516334810665  0.4464928230503561  1.0000
  H   H32       1.0  0.8486099895427088  0.1764713998672676  0.5531553888620593  1.0000
  H   H33       1.0  0.8687543436620332  0.1376076667054136  0.369066744365348  1.0000
  H   H34       1.0  0.8623146619113697  0.13134147725011758  0.6306756710704846  1.0000
  H   H35       1.0  0.7092124698006614  0.1428522031200288  0.4447974655256672  1.0000
  H   H36       1.0  0.857141818362429  0.2909076872170431  0.554893448633898  1.0000
  H   H37       1.0  0.7409602325901902  0.3980205881926651  0.7045489735366104  1.0000
  H   H38       1.0  0.6751406515318338  0.3156050739573146  0.7868663507103548  1.0000
  H   H39       1.0  0.6954499716381048  0.2642151517906085  0.7040201620545049  1.0000
  H   H40       1.0  0.6662276578389807  0.34477020204585784  0.6746021799435908  1.0000
  H   H41       1.0  0.7593223322333102  0.34777954827377044  0.6232244373419535  1.0000
  H   H42       1.0  0.6019913608207687  0.25903461574389997  0.29544937317116654  1.0000
  H   H43       1.0  0.6844138142238165  0.3248327416706117  0.21316093503501327  1.0000
  H   H44       1.0  0.7357565754167936  0.3044818685247037  0.2960520471026982  1.0000
  H   H45       1.0  0.655220555558877  0.33372691220522194  0.32543574656808977  1.0000
  H   H46       1.0  0.6521723102004842  0.24062841804163776  0.37682724216546165  1.0000
  C   C1        1.0  0.6115298880952907  0.9681928367409114  0.5087070130643526  1.0000
  C   C2        1.0  0.251794401552047  0.7880533750758829  0.9658637297510496  1.0000
  C   C3        1.0  0.027649026401469698  0.8330309991858442  0.46612743311694527  1.0000
  C   C4        1.0  0.22332545041236776  0.034834714314222  0.4900717654564134  1.0000
  C   C5        1.0  0.9651605333748067  0.7767196655783266  0.5098263459366165  1.0000
  C   C6        1.0  0.24389680851855647  0.1166301552384041  0.44428344548897775  1.0000
  C   C7        1.0  0.8833661439731911  0.7561926555092311  0.5555242772137846  1.0000
  C   C8        1.0  0.31980356606205623  0.11424193608841186  0.4369041350979828  1.0000
  C   C9        1.0  0.21198534018602536  0.7482759225485296  0.034158911952054984  1.0000
  C   C10       1.0  0.8857448637782144  0.680271529737574  0.5629311744891085  1.0000
  C   C11       1.0  0.023967335750093414  0.9028402255373678  0.4637315312497066  1.0000
  C   C12       1.0  0.09718320304144612  0.9760551053555345  0.5362119816495864  1.0000
  C   C13       1.0  0.8705398593184198  0.9825246548786309  0.5260379619923512  1.0000
  C   C14       1.0  0.0175269532547659  0.12949635975313356  0.4738941487339404  1.0000
  C   C15       1.0  0.5723457997152296  0.087450863907037  0.3582052130542975  1.0000
  C   C16       1.0  0.9125331605822636  0.4276391587881817  0.641823863298555  1.0000
  C   C17       1.0  0.2021778802484349  0.6783893355071839  0.15662509136324576  1.0000
  C   C18       1.0  0.3214189340439972  0.7978406548210656  0.84339380571074  1.0000
  C   C19       1.0  0.1604173257897656  0.6358734022692047  0.23479171511605307  1.0000
  C   C20       1.0  0.7278153490902071  0.034444305141057896  0.4746741996294547  1.0000
  C   C21       1.0  0.36392918795250745  0.8395769681942794  0.7652289513537485  1.0000
  C   C22       1.0  0.08452497246164371  0.6166492714848671  0.2722746109510226  1.0000
  C   C23       1.0  0.38334962007573387  0.9154620801792176  0.7277420736412384  1.0000
  C   C24       1.0  0.05082909380288209  0.6396235122795915  0.2301638204940772  1.0000
  C   C25       1.0  0.36055763902965765  0.9491638902194098  0.7698552189542411  1.0000
  C   C26       1.0  0.9655327963583674  0.2722581708751264  0.5251831480810979  1.0000
  C   C27       1.0  0.09237181842588882  0.6823215754385217  0.1516645528899616  1.0000
  C   C28       1.0  0.317896019000834  0.9076360383002818  0.8483567338881033  1.0000
  C   C29       1.0  0.7238939882050986  0.3392456910424002  0.7297782285246016  1.0000
  C   C30       1.0  0.710509501475677  0.32285669837936126  0.6799750630193773  1.0000
  C   C31       1.0  0.6607564342526544  0.27608016787326045  0.2702478136695562  1.0000
  C   C32       1.0  0.6771235181957138  0.2894374648713622  0.3200728755651597  1.0000
  C   C33       1.0  0.6771963937527872  0.9688885227732269  0.5137289009516055  1.0000
  C   C34       1.0  0.03109206885257268  0.32283672871738384  0.486234888706207  1.0000
  C   C35       1.0  0.031786929012071086  0.38847097118814833  0.4912972961162653  1.0000
  C   C36       1.0  0.6910287432731083  0.9065703169813586  0.5590685344095763  1.0000
  C   C37       1.0  0.0934331115622058  0.308951488254813  0.44098942876420477  1.0000
  C   C38       1.0  0.7513969122745722  0.9110223752161061  0.5657864375540174  1.0000
  C   C39       1.0  0.0890044707829958  0.24861127301132768  0.4342399241876649  1.0000
  C   C40       1.0  0.803455560755836  0.9774432516844485  0.5237838210636668  1.0000
  C   C41       1.0  0.022580495823163498  0.1965842887905396  0.4761440596951801  1.0000
  C   C42       1.0  0.7903021879424159  0.03832502893280321  0.4775185892300586  1.0000
  C   C43       1.0  0.9616630550653582  0.2097954862660245  0.5223034366128444  1.0000
  C   C44       1.0  0.818249531915086  0.1197272127274616  0.4230275794525156  1.0000
  C   C45       1.0  0.880255803160772  0.1818785851467908  0.5767091152878407  1.0000
  C   C46       1.0  0.7466759752598479  0.11532786600180596  0.4207816028723175  1.0000
  C   C47       1.0  0.8846290403169945  0.25344051645066656  0.5789737955994597  1.0000
  C   C48       1.0  0.4268301045978761  0.9573895996001556  0.6437138976435789  1.0000
  C   C49       1.0  0.04258920229559489  0.5731603625035646  0.35630566532997693  1.0000
  C   C50       1.0  0.7733088863839016  0.2887581807911984  0.8488772037756366  1.0000
  C   C51       1.0  0.16858572645328  0.7029140678363532  0.113909091996092  1.0000
  C   C52       1.0  0.7112321377866379  0.22667774696498802  0.1511395096837589  1.0000
  C   C53       1.0  0.8079368576392555  0.3280850059657752  0.7701588093244782  1.0000
  C   C54       1.0  0.6719085045596884  0.19205124477122837  0.22985385616509285  1.0000
  C   C55       1.0  0.8723687494048421  0.3835058580446784  0.7260955535032424  1.0000
  C   C56       1.0  0.6164775444193182  0.1276209106619888  0.2739231796489605  1.0000
  C   C57       1.0  0.29710916754362415  0.8314378682593143  0.8861159690857291  1.0000
  C   C58       1.0  0.9012235704676215  0.3969038613018085  0.7630138960188476  1.0000
  C   C59       1.0  0.6030778219862328  0.0987602660901885  0.23700396646440677  1.0000
  C   C60       1.0  0.8662347025812169  0.3590919008506929  0.8412142729291221  1.0000
  C   C61       1.0  0.6408924174260804  0.13376191175105834  0.15879606370523908  1.0000
  C   C62       1.0  0.8011321031297528  0.304258130013416  0.8856329271218542  1.0000
  C   C63       1.0  0.6957378577132046  0.198861144312076  0.11437530439628327  1.0000
  C   C64       1.0  0.7648605986599721  0.26596585145492213  0.9655905605584392  1.0000
  C   C65       1.0  0.7340261967837876  0.23513780148894636  0.034413279875806696  1.0000
  C   C66       1.0  0.2899964445110967  0.03271093379733969  0.4846565698609312  1.0000
  C   C67       1.0  0.9672833121314711  0.7100524074363931  0.5152536089462175  1.0000
  C   C68       1.0  0.30657021750410246  0.9677765626161018  0.5182411592633688  1.0000
  C   C69       1.0  0.03222329508773921  0.6934459871469656  0.48173040808047324  1.0000
  C   C70       1.0  0.25095165422993665  0.9041807837638914  0.5604799508569868  1.0000
  C   C71       1.0  0.0958270524078983  0.7490317245786003  0.4395472989266338  1.0000
  C   C72       1.0  0.3788437662637348  0.9687910839973733  0.5100247455273109  1.0000
  C   C73       1.0  0.031190668172527605  0.6211525696376157  0.48998059746198647  1.0000
  C   C74       1.0  0.18232598778480025  0.9065635586650417  0.5699444225908438  1.0000
  C   C75       1.0  0.0934488027776723  0.8176574197443357  0.4300702233739316  1.0000
  C   C76       1.0  0.16697668187315876  0.9723621689594137  0.5338335962518175  1.0000
  Br  Br1       1.0  0.24886394036302312  0.1635176898771462  0.3466375650873205  1.0000
  Br  Br2       1.0  0.8363669179406303  0.7512159836243412  0.6531914905026143  1.0000
  O   O1        1.0  0.588330203098316  0.0243570576475634  0.4993022718579212  1.0000
  O   O2        1.0  0.051242403054608594  0.1353639306689658  0.40883536891685424  1.0000
  O   O3        1.0  0.8646549794993705  0.9488021187418383  0.5911105567635958  1.0000
  O   O4        1.0  0.9292439499672511  0.0205020657754531  0.462557122687926  1.0000
  O   O5        1.0  0.9795585573152438  0.07079494119935252  0.5373796873132903  1.0000
  O   O6        1.0  0.5827113416369369  0.9132981418853273  0.5130145501491729  1.0000
  O   O7        1.0  0.0866662623716365  0.4172683686139179  0.48701860846600914  1.0000
  O   O8        1.0  0.9756205003933972  0.4116717846488526  0.5007110444127392  1.0000
  O   O9        1.0  0.44454168381285813  0.027379130563957695  0.607782842758084  1.0000
  O   O10       1.0  0.972603934294142  0.5554623298640351  0.3922251962591403  1.0000
  O   O11       1.0  0.4438745283228442  0.9212226122624471  0.6114052705661877  1.0000
  O   O12       1.0  0.07875756094073685  0.5561025889454425  0.38861848101884533  1.0000
  O   O13       1.0  0.4102596228280504  0.025527846619873198  0.4994363285663468  1.0000
  O   O14       1.0  0.9744447030334769  0.5897262567565349  0.500589291200953  1.0000
  O   O15       1.0  0.40506732009554014  0.9142927373260009  0.5132991302352181  1.0000
  O   O16       1.0  0.08569662845950894  0.5949355123492382  0.48669997275248267  1.0000
  O   O17       1.0  0.5546010970669784  0.12433537016086399  0.390799913379638  1.0000
  O   O18       1.0  0.875639171978712  0.44536964395114603  0.6092437389945927  1.0000
  O   O19       1.0  0.553656392580642  0.018687595566127906  0.392272872302911  1.0000
  O   O20       1.0  0.9812971101173246  0.44632740663112697  0.6077567851187387  1.0000
  O   O21       1.0  0.9855152855676222  0.8967446035967013  0.5275022172817643  1.0000
  O   O22       1.0  0.10326711054649  0.014494414499580398  0.47245226014617714  1.0000
  O   O23       1.0  0.7816251784870332  0.3081994517656099  0.7362958209116928  1.0000
  O   O24       1.0  0.05836668068712216  0.9631037012538003  0.39966284327557833  1.0000
  O   O25       1.0  0.691795448029609  0.2183446070794162  0.26372891961431577  1.0000
  O   O26       1.0  0.03691874032266178  0.9416562481704884  0.6002762389488795  1.0000
