data_image0
_chemical_formula_structural       Co2H24C24N16O4
_chemical_formula_sum              "Co2 H24 C24 N16 O4"
_cell_length_a       6.50997917605206
_cell_length_b       9.788254844004777
_cell_length_c       10.70152477105309
_cell_angle_alpha    111.0667002611214
_cell_angle_beta     89.99971174654853
_cell_angle_gamma    90.00041143413503

_space_group_name_H-M_alt    "P 1"
_space_group_IT_number       1

loop_
  _space_group_symop_operation_xyz
  'x, y, z'

loop_
  _atom_site_type_symbol
  _atom_site_label
  _atom_site_symmetry_multiplicity
  _atom_site_fract_x
  _atom_site_fract_y
  _atom_site_fract_z
  _atom_site_occupancy
  Co  Co1       1.0  1.1211249600000007e-06  1.560797360012698e-08  0.5000000142135121  1.0000
  Co  Co2       1.0  0.5000022319589024  0.4999995105681448  0.4999991160728641  1.0000
  H   H1        1.0  0.42161323207225365  0.9825329058875661  0.3814631344042993  1.0000
  H   H2        1.0  0.9216099671095251  0.5174675083641203  0.6185416077479856  1.0000
  H   H3        1.0  0.5783958400854702  0.017458518598630197  0.6185429151881294  1.0000
  H   H4        1.0  0.07840064128136962  0.48254132941922706  0.38145419860350666  1.0000
  H   H5        1.0  0.8874188253772815  0.7386524239421702  0.2666587562479776  1.0000
  H   H6        1.0  0.38742166665141303  0.7613521386951658  0.7333343575405706  1.0000
  H   H7        1.0  0.11257795811190623  0.2613596738652005  0.733334368658987  1.0000
  H   H8        1.0  0.6125751166907352  0.23863816665944879  0.2666675915862129  1.0000
  H   H9        1.0  0.6048656904564569  0.8217529692837714  0.18083689804344522  1.0000
  H   H10       1.0  0.10485778643010948  0.6782428111222814  0.8191673601752215  1.0000
  H   H11       1.0  0.39514030949779066  0.17823734824831655  0.8191669239358814  1.0000
  H   H12       1.0  0.8951451414416952  0.3217671335922602  0.18083067379922105  1.0000
  H   H13       1.0  0.05302580592630331  0.5595164189427418  0.07594386425384404  1.0000
  H   H14       1.0  0.553018383888933  0.9404801928437293  0.924054288683962  1.0000
  H   H15       1.0  0.9469679052926238  0.4404858683030425  0.9240526228750382  1.0000
  H   H16       1.0  0.44696611062872904  0.059512314221990395  0.0759502428249235  1.0000
  H   H17       1.0  0.5797279158965694  0.623374465366524  0.9569523721258902  1.0000
  H   H18       1.0  0.07971429418093831  0.8766255810106993  0.043052414743243575  1.0000
  H   H19       1.0  0.4202734757845121  0.37662240265730407  0.04305076909574978  1.0000
  H   H20       1.0  0.9202778809251982  0.12337892620585926  0.956949464049366  1.0000
  H   H21       1.0  0.35971021505378786  0.4793393289283755  0.7918395880301716  1.0000
  H   H22       1.0  0.8597040414324298  0.02066722191694479  0.20816346629035107  1.0000
  H   H23       1.0  0.640289640548403  0.520661906093224  0.20816309935160146  1.0000
  H   H24       1.0  0.14029120585944102  0.9793329122261979  0.7918379299102227  1.0000
  C   C1        1.0  0.3446050929177886  0.8878902078871461  0.31054994884638626  1.0000
  C   C2        1.0  0.8445991804087783  0.6121065756686335  0.6894510608420106  1.0000
  C   C3        1.0  0.6553978348530479  0.11210227490216336  0.6894508369236405  1.0000
  C   C4        1.0  0.1554022113440112  0.38790119162104014  0.310548136484968  1.0000
  C   C5        1.0  0.04850844527739181  0.7518263557202899  0.24887103141846714  1.0000
  C   C6        1.0  0.5485034576145013  0.7481778942747964  0.7511286766475678  1.0000
  C   C7        1.0  0.951486802061851  0.24818031068765833  0.751126874728719  1.0000
  C   C8        1.0  0.4514887174515039  0.25182006851912314  0.24887481933744482  1.0000
  C   C9        1.0  0.4482505371763069  0.7940342913432941  0.19871160782093256  1.0000
  C   C10       1.0  0.9482447218030999  0.705962945940065  0.801291084835043  1.0000
  C   C11       1.0  0.5517539267141984  0.20596146973952756  0.8012893057819781  1.0000
  C   C12       1.0  0.051755133826397105  0.2940415491350166  0.1987089210895476  1.0000
  C   C13       1.0  0.14404937021135572  0.6514170172021777  0.13827599878405283  1.0000
  C   C14       1.0  0.6440460932032934  0.8485821658891054  0.8617217604610943  1.0000
  C   C15       1.0  0.8559489493172452  0.34858527005342654  0.8617204883406017  1.0000
  C   C16       1.0  0.3559491540599637  0.15141250646328067  0.13827973482582928  1.0000
  C   C17       1.0  0.34876145549434057  0.6714804558450992  0.109249752442274  1.0000
  C   C18       1.0  0.8487592807110647  0.8285207124273837  0.8907507957863743  1.0000
  C   C19       1.0  0.6512337917968835  0.32851857742939927  0.8907503525728799  1.0000
  C   C20       1.0  0.15123443049336774  0.17148159913408986  0.10924943706447722  1.0000
  C   C21       1.0  0.45214645581447144  0.5662381222958854  0.9855461866809492  1.0000
  C   C22       1.0  0.9521383826373081  0.9337623977131738  0.014454753812515231  1.0000
  C   C23       1.0  0.5478518636674041  0.4337587335635645  0.01445508168252015  1.0000
  C   C24       1.0  0.04785686466738069  0.06624102079913287  0.9855477066528452  1.0000
  N   N1        1.0  0.14549058516005434  0.8692268636020584  0.336976988781437  1.0000
  N   N2        1.0  0.6454942884152358  0.6307723317231435  0.6630217042472921  1.0000
  N   N3        1.0  0.854510806544063  0.13077216968552818  0.6630231162280893  1.0000
  N   N4        1.0  0.3545147838037012  0.36922449984352557  0.3369758183843529  1.0000
  N   N5        1.0  0.2570487424631835  0.15733115741610956  0.5248124422314291  1.0000
  N   N6        1.0  0.7570468848867123  0.34267277863937545  0.475191963526811  1.0000
  N   N7        1.0  0.74295572144608  0.8426656741407469  0.4751850804044437  1.0000
  N   N8        1.0  0.24296372346043432  0.6573295208002462  0.5248063964475732  1.0000
  N   N9        1.0  0.3552927217759105  0.4076346838295136  0.6098601578679634  1.0000
  N   N10       1.0  0.8553012299878449  0.09236635604150219  0.39013832146646626  1.0000
  N   N11       1.0  0.6447132782286787  0.5923610590198152  0.39013794644205996  1.0000
  N   N12       1.0  0.14470016175342693  0.9076403286162883  0.6098623939665727  1.0000
  N   N13       1.0  0.30472065900431033  0.281080473771837  0.5633449207517032  1.0000
  N   N14       1.0  0.8047224315634408  0.2189236593131979  0.4366584612309339  1.0000
  N   N15       1.0  0.6952884132366393  0.718922932612081  0.4366556668400108  1.0000
  N   N16       1.0  0.1952881767544454  0.7810720774670228  0.5633387066443802  1.0000
  O   O1        1.0  0.30020141558311764  0.517633965187187  0.8837002371087265  1.0000
  O   O2        1.0  0.8001945859871358  0.982370286638975  0.11630240078842033  1.0000
  O   O3        1.0  0.699796903906652  0.4823639793830593  0.11630044957917818  1.0000
  O   O4        1.0  0.1997975891147306  0.017633125787867198  0.8836991232492579  1.0000
