data_image0
_chemical_formula_structural       Zn2H22C27N4O8
_chemical_formula_sum              "Zn2 H22 C27 N4 O8"
_cell_length_a       9.882664199903932
_cell_length_b       10.973810731146056
_cell_length_c       13.991224634136275
_cell_angle_alpha    91.67063073964957
_cell_angle_beta     99.34064975708785
_cell_angle_gamma    89.17513665385113

_space_group_name_H-M_alt    "P 1"
_space_group_IT_number       1

loop_
  _space_group_symop_operation_xyz
  'x, y, z'

loop_
  _atom_site_type_symbol
  _atom_site_label
  _atom_site_symmetry_multiplicity
  _atom_site_fract_x
  _atom_site_fract_y
  _atom_site_fract_z
  _atom_site_occupancy
  Zn  Zn1       1.0  0.6413755575098747  0.4917645144095601  0.5085586385346799  1.0000
  Zn  Zn2       1.0  0.34635840191816675  0.49507150199792005  0.4971803946441609  1.0000
  H   H1        1.0  0.6464403852125996  0.5227744230647035  0.035490086124020985  1.0000
  H   H2        1.0  0.716915709139805  0.4392361872415053  0.32849768603897894  1.0000
  H   H3        1.0  0.8643923053994271  0.4250359606951974  0.2727853045968728  1.0000
  H   H4        1.0  0.9554228150154741  0.4506523316916784  0.8274982213641591  1.0000
  H   H5        1.0  0.8146970604517135  0.40624610343351  0.7381910236814802  1.0000
  H   H6        1.0  0.9812296422894415  0.34248778562966453  0.7342918014455859  1.0000
  H   H7        1.0  0.2715346489553668  0.6891660825463005  0.6921694629882961  1.0000
  H   H8        1.0  0.1007843925193512  0.7465322679696557  0.665303725525085  1.0000
  H   H9        1.0  0.16923997617080033  0.7046279651051747  0.7857797224147944  1.0000
  H   H10       1.0  0.22217019225677603  0.47036127310094156  0.9790576657247384  1.0000
  H   H11       1.0  0.3095352924921145  0.489228031977639  0.8823683473752195  1.0000
  H   H12       1.0  0.9014612008432008  0.6137821986873604  0.7061963051351012  1.0000
  H   H13       1.0  0.7590617347971715  0.7686746386133265  0.6713291357904578  1.0000
  H   H14       1.0  0.8926545292897216  0.8743370716787808  0.7139932955692384  1.0000
  H   H15       1.0  0.7191867771537729  0.9111827812915507  0.7236780020326206  1.0000
  H   H16       1.0  0.1813753203364072  0.48449916995709685  0.7290307400147852  1.0000
  H   H17       1.0  0.28382327102274013  0.10527606969002079  0.4349371103862507  1.0000
  H   H18       1.0  0.286416277298791  0.878619726295824  0.4338042592700332  1.0000
  H   H19       1.0  0.8350566375776581  0.8795532063244025  0.5323790339095139  1.0000
  H   H20       1.0  0.7810949652339119  0.11214096908369703  0.6485821798581312  1.0000
  H   H21       1.0  0.8330130763265658  0.10724516478074261  0.5321860653172691  1.0000
  H   H22       1.0  0.09314130456359491  0.45234829588127917  0.35315815293105857  1.0000
  C   C1        1.0  0.4940455796729353  0.26021960346521666  0.49898612248492197  1.0000
  C   C2        1.0  0.7642122244774683  0.0667641032024306  0.5765911204068813  1.0000
  C   C3        1.0  0.08205575939243198  0.5143905206314373  0.5798375322659979  1.0000
  C   C4        1.0  0.5281606997995566  0.5082035297731551  0.6909890111166205  1.0000
  C   C5        1.0  0.0502077198562674  0.4681209225623348  0.4196039474690067  1.0000
  C   C6        1.0  0.9054257365890451  0.4606466526868544  0.4179277732898114  1.0000
  C   C7        1.0  0.9429327588904572  0.5040912078534845  0.5797474095190509  1.0000
  C   C8        1.0  0.9557585634999269  0.5302971848305305  0.6882627190899482  1.0000
  C   C9        1.0  0.11523825777113932  0.551268304820333  0.6860561221769002  1.0000
  C   C10       1.0  0.5015507615422763  0.726284184400903  0.49393258019574654  1.0000
  C   C11       1.0  0.4352072200065252  0.48688829396017047  0.30751845915832376  1.0000
  C   C12       1.0  0.5441250044214528  0.5143663327361239  0.7949431314333208  1.0000
  C   C13       1.0  0.4270460577237003  0.49194919905979617  0.20341560627404925  1.0000
  C   C14       1.0  0.42919534451591085  0.5032369480744093  0.01583359532331488  1.0000
  C   C15       1.0  0.5529877478357434  0.514744605051014  0.9826868014405219  1.0000
  C   C16       1.0  0.5560674119684634  0.5163055312783911  0.8835918000466093  1.0000
  C   C17       1.0  0.4265185468062144  0.4981008982356061  0.1165211570350237  1.0000
  C   C18       1.0  0.9246986250478741  0.42564662483049176  0.7503831572743918  1.0000
  C   C19       1.0  0.16735235497099407  0.6804996526813554  0.7087571057227746  1.0000
  C   C20       1.0  0.7858166089230635  0.8657674881673216  0.6774166526042222  1.0000
  C   C21       1.0  0.6154812015705957  0.057582896920202076  0.5289728892398742  1.0000
  C   C22       1.0  0.49697306612919323  0.12452643642551209  0.49607956818100246  1.0000
  C   C23       1.0  0.37844571952190614  0.05598381462228731  0.4612397012276118  1.0000
  C   C24       1.0  0.37997832991284514  0.9288335152820861  0.4605034606912639  1.0000
  C   C25       1.0  0.5007151972605612  0.8620193978499839  0.49373425993284303  1.0000
  C   C26       1.0  0.6171863009142202  0.9304040833339188  0.52739905601706  1.0000
  C   C27       1.0  0.7653944471010875  0.9221220070361865  0.5778006044919477  1.0000
  N   N1        1.0  0.13888644126422633  0.49618652734281443  0.49976506022341727  1.0000
  N   N2        1.0  0.8496460987609495  0.4798865038797402  0.5009769355997378  1.0000
  N   N3        1.0  0.8225524082734381  0.43368157031630983  0.333961577775291  1.0000
  N   N4        1.0  0.30637170451373663  0.4994238505527592  0.9543799382274896  1.0000
  O   O1        1.0  0.6097653501460486  0.31282817382049194  0.5221867380652012  1.0000
  O   O2        1.0  0.3780039968303726  0.313657660536272  0.47877405770411485  1.0000
  O   O3        1.0  0.6345292851244223  0.528393548618716  0.6529323719266387  1.0000
  O   O4        1.0  0.40852969323316307  0.4827971934429626  0.6460398987022983  1.0000
  O   O5        1.0  0.6143236986594687  0.6724127410982703  0.48489578146217827  1.0000
  O   O6        1.0  0.39002840626259433  0.67481916072218  0.5038270287270448  1.0000
  O   O7        1.0  0.5541715823137495  0.46379907743794047  0.3551056348501333  1.0000
  O   O8        1.0  0.3262883259599861  0.5058970957962359  0.3426003190485218  1.0000
