data_image0
_chemical_formula_structural       Al6H66C112N12O32
_chemical_formula_sum              "Al6 H66 C112 N12 O32"
_cell_length_a       13.599511128619978
_cell_length_b       13.828304536768318
_cell_length_c       33.48138412997058
_cell_angle_alpha    83.61879082200812
_cell_angle_beta     84.08473002505045
_cell_angle_gamma    62.57147161503054

_space_group_name_H-M_alt    "P 1"
_space_group_IT_number       1

loop_
  _space_group_symop_operation_xyz
  'x, y, z'

loop_
  _atom_site_type_symbol
  _atom_site_label
  _atom_site_symmetry_multiplicity
  _atom_site_fract_x
  _atom_site_fract_y
  _atom_site_fract_z
  _atom_site_occupancy
  Al  Al1       1.0  0.5768233995352646  0.5935518180047835  0.49019648174368785  1.0000
  Al  Al2       1.0  0.5789593216596955  0.35931518026006865  0.5036768582324671  1.0000
  Al  Al3       1.0  0.3588685165454778  0.5590651148921141  0.5042089982351713  1.0000
  Al  Al4       1.0  0.0746430783273553  0.08091327379288062  0.013915083860631205  1.0000
  Al  Al5       1.0  0.3089378447479021  0.0870909530264043  0.004750490248312597  1.0000
  Al  Al6       1.0  0.1016582398320693  0.3004340969164403  0.004838359710063903  1.0000
  H   H1        1.0  0.1522857522100196  0.4274993070097394  0.8918323939955077  1.0000
  H   H2        1.0  0.2030989530147308  0.7590463943970749  0.6015879197186325  1.0000
  H   H3        1.0  0.44674739762447047  0.9277762249743303  0.9008651340563463  1.0000
  H   H4        1.0  0.5149133572685187  0.7737383429874924  0.6621354070310377  1.0000
  H   H5        1.0  0.181788170401596  0.8108921560323809  0.672767742196662  1.0000
  H   H6        1.0  0.46994336081849053  0.8782764835467488  0.829399524095088  1.0000
  H   H7        1.0  0.12775249136294067  0.932334989845458  0.9138037157455446  1.0000
  H   H8        1.0  0.15029084076370228  0.8821315147233832  0.8421520303386604  1.0000
  H   H9        1.0  0.7619548258181935  0.2256863246900949  0.6043706525983058  1.0000
  H   H10       1.0  0.7204361104433515  0.5544308599358061  0.591264877759855  1.0000
  H   H11       1.0  0.9189398881567216  0.1489349880360109  0.9155791311478301  1.0000
  H   H12       1.0  0.18184882553476464  0.4443678365031402  0.8169994014101366  1.0000
  H   H13       1.0  0.8299937853405197  0.2014319550625245  0.6734625995861736  1.0000
  H   H14       1.0  0.7826098528902181  0.5329610587585378  0.661404947062785  1.0000
  H   H15       1.0  0.943198324801088  0.4489453095779013  0.9024546603823825  1.0000
  H   H16       1.0  0.9115573765857832  0.46715601994169015  0.8287908999754312  1.0000
  H   H17       1.0  0.5560360010249993  0.22533907726364796  0.4052050857236794  1.0000
  H   H18       1.0  0.23897846432156206  0.5104965068762225  0.4084647083685412  1.0000
  H   H19       1.0  0.4506385633571881  0.12709650243922974  0.10090284449410802  1.0000
  H   H20       1.0  0.5387554815513127  0.21285642140696842  0.332511136221605  1.0000
  H   H21       1.0  0.220964597723146  0.49847558890265026  0.33615060706124933  1.0000
  H   H22       1.0  0.4814876168756896  0.1611481681693832  0.16932116337467565  1.0000
  H   H23       1.0  0.14841053305497814  0.42791832974876337  0.09773077245568375  1.0000
  H   H24       1.0  0.17699915296347513  0.4610259695473644  0.16670275390735168  1.0000
  H   H25       1.0  0.12641099449035662  0.9291861242502862  0.12145059128764764  1.0000
  H   H26       1.0  0.19858577472369626  0.7596196821532148  0.31882116922414383  1.0000
  H   H27       1.0  0.4648132194245351  0.8023694475363429  0.39613531557239423  1.0000
  H   H28       1.0  0.46709554913680773  0.8737302525387776  0.18357811822114914  1.0000
  H   H29       1.0  0.44780634039251777  0.9189867773851076  0.10926650817855693  1.0000
  H   H30       1.0  0.24678629276048983  0.5186258523833588  0.61610260775484  1.0000
  H   H31       1.0  0.9411556278356132  0.43663063774040733  0.11184034930981575  1.0000
  H   H32       1.0  0.8885647633396021  0.4560497826681385  0.18564895338965218  1.0000
  H   H33       1.0  0.6875410901483364  0.5488127287035738  0.37595201070234213  1.0000
  H   H34       1.0  0.7896571762405244  0.2072251428616951  0.4062617700755667  1.0000
  H   H35       1.0  0.8692878591579999  0.15188551269583433  0.19523477097302339  1.0000
  H   H36       1.0  0.9203824247792981  0.13468738686292883  0.12099602124532542  1.0000
  H   H37       1.0  0.8494191840141099  0.16931804032220302  0.33393996588672803  1.0000
  H   H38       1.0  0.5317797688652348  0.20453516412226952  0.6105787661738805  1.0000
  H   H39       1.0  0.47547935143278147  0.1338143523480255  0.822241738210572  1.0000
  H   H40       1.0  0.44563974326503347  0.1187334890746357  0.8970869682766821  1.0000
  H   H41       1.0  0.5103661128396271  0.16982255479388902  0.6851994202535254  1.0000
  H   H42       1.0  0.5337842114263793  0.7265289369279484  0.590440319194727  1.0000
  H   H43       1.0  0.8130180402746987  0.09065835259981009  0.887604995805056  1.0000
  H   H44       1.0  0.9582041991684634  0.014752804258925799  0.8738267247974254  1.0000
  H   H45       1.0  0.8569475875719944  0.019437115816572297  0.8422241417984542  1.0000
  H   H46       1.0  0.08534504732252662  0.5891260236407234  0.6584429431569563  1.0000
  H   H47       1.0  0.18102177335642722  0.6427024149618816  0.6638516074063079  1.0000
  H   H48       1.0  0.08267413236595902  0.6463596951055096  0.7044487331325942  1.0000
  H   H49       1.0  0.050110325404958286  0.8342825373674215  0.16461895847123034  1.0000
  H   H50       1.0  0.9898678059844103  0.9775869840172575  0.17184938227221383  1.0000
  H   H51       1.0  0.9807218600166365  0.8841846036227493  0.21214559004418734  1.0000
  H   H52       1.0  0.04395660201502947  0.8442342686229982  0.40074605375181716  1.0000
  H   H53       1.0  0.12947247675874965  0.7936393940337323  0.44347872269120375  1.0000
  H   H54       1.0  0.05470924363138623  0.7242116863598864  0.4309507727511958  1.0000
  H   H55       1.0  0.33405294837464083  0.007003504789345501  0.2829351902779608  1.0000
  H   H56       1.0  0.4459246323349931  0.09723287145070002  0.2517171127893435  1.0000
  H   H57       1.0  0.637632592746492  0.0352078500764534  0.27187990876326756  1.0000
  H   H58       1.0  0.7191041208195726  0.8765069419780078  0.32293542596297453  1.0000
  H   H59       1.0  0.609295338339372  0.7825172456382676  0.35255336761688494  1.0000
  H   H60       1.0  0.5621446557129843  0.6043548270040161  0.298533441303448  1.0000
  H   H61       1.0  0.5352999019000748  0.7521965647670044  0.24528899095170698  1.0000
  H   H62       1.0  0.6984401794011958  0.7710121772952762  0.2115706224611956  1.0000
  H   H63       1.0  0.8891924069806054  0.6402323870054757  0.23203617368088209  1.0000
  H   H64       1.0  0.9155490646710264  0.49056037307692435  0.28483479721492005  1.0000
  H   H65       1.0  0.6984343411292571  0.6614645232912366  0.4604890620218642  1.0000
  H   H66       1.0  0.015025298997223087  0.949227187148949  0.0375668186890863  1.0000
  C   C1        1.0  0.6960456103596044  0.4081050651052678  0.5532355447578612  1.0000
  C   C2        1.0  0.36740137461627853  0.32473022770433596  0.693288548528294  1.0000
  C   C3        1.0  0.29118128805935584  0.4243712202318264  0.6734883890309578  1.0000
  C   C4        1.0  0.3024937565855268  0.44258356138092836  0.6318214958356807  1.0000
  C   C5        1.0  0.23963132804588835  0.373610592784843  0.8347610185084735  1.0000
  C   C6        1.0  0.22351496273859084  0.364504811151008  0.8763333807622617  1.0000
  C   C7        1.0  0.38923082288791727  0.19010635041090757  0.8792388304556484  1.0000
  C   C8        1.0  0.4055852795904897  0.1983686969717695  0.8376795867464326  1.0000
  C   C9        1.0  0.3306885937307271  0.2902005683020121  0.8146161211344708  1.0000
  C   C10       1.0  0.345554572018358  0.2989330930216454  0.7722201861488929  1.0000
  C   C11       1.0  0.35685824962461504  0.30859792664988106  0.7355283508982996  1.0000
  C   C12       1.0  0.406676635067022  0.38917943050373793  0.5657760289091416  1.0000
  C   C13       1.0  0.2978244370047847  0.2725316471295613  0.8990433947802008  1.0000
  C   C14       1.0  0.3705785229294065  0.7379386822134109  0.5923684790188446  1.0000
  C   C15       1.0  0.45748385441951445  0.7449873098103412  0.6089884579030527  1.0000
  C   C16       1.0  0.4467462262056899  0.7714954844472146  0.64851315362737  1.0000
  C   C17       1.0  0.34786507314154136  0.7929663118913483  0.6719049049276579  1.0000
  C   C18       1.0  0.2586730846393337  0.7916354725127874  0.65451195622439  1.0000
  C   C19       1.0  0.2703787569847052  0.7633877545196055  0.615105427236472  1.0000
  C   C20       1.0  0.323200383859117  0.8509382496314971  0.789521133700909  1.0000
  C   C21       1.0  0.3394712887243188  0.8127596426054924  0.714602030588772  1.0000
  C   C22       1.0  0.39552099473319663  0.889866529865742  0.848131118862611  1.0000
  C   C23       1.0  0.3916838038433709  0.6938799370562949  0.5520419467272292  1.0000
  C   C24       1.0  0.3827265387349572  0.917060518948318  0.8877273946003047  1.0000
  C   C25       1.0  0.20225659116196967  0.9194257860696309  0.8948380781844709  1.0000
  C   C26       1.0  0.2146839000436531  0.8920761408707775  0.8553640938298206  1.0000
  C   C27       1.0  0.3112521481481781  0.87773687617139  0.831539451851356  1.0000
  C   C28       1.0  0.2857595336666209  0.93287612185231  0.9112132459315776  1.0000
  C   C29       1.0  0.7390004585011313  0.391010160877279  0.5938684768052769  1.0000
  C   C30       1.0  0.7684898990508059  0.2916494465917054  0.6169776438727654  1.0000
  C   C31       1.0  0.8051895516929902  0.27858383106268997  0.6553435712556779  1.0000
  C   C32       1.0  0.8108548929623255  0.3656394720265724  0.6713161266506946  1.0000
  C   C33       1.0  0.7786247822804311  0.46607785452933836  0.6484725040419195  1.0000
  C   C34       1.0  0.69537393407127  0.4060943502916103  0.4374530425635756  1.0000
  C   C35       1.0  0.7441282510472719  0.4781065081296206  0.6098430673805526  1.0000
  C   C36       1.0  0.8919119654668678  0.3276944342170793  0.7865226726693354  1.0000
  C   C37       1.0  0.8515713677582043  0.3509924408105364  0.7114800283582527  1.0000
  C   C38       1.0  0.8958506152467081  0.22907076219513564  0.8551080338574554  1.0000
  C   C39       1.0  0.9152240063568161  0.2184829157467902  0.8959092314663554  1.0000
  C   C40       1.0  0.9291161625949298  0.38871459491472393  0.8889392810372103  1.0000
  C   C41       1.0  0.9116976826964985  0.39853440020244346  0.8482468692062783  1.0000
  C   C42       1.0  0.8984313805646734  0.31836244764281935  0.8302694097749569  1.0000
  C   C43       1.0  0.9336533019236911  0.296697168360275  0.9125458764924946  1.0000
  C   C44       1.0  0.39780202236222817  0.3677728081800494  0.411371740183654  1.0000
  C   C45       1.0  0.41481701166125634  0.3850612271774025  0.4526890155135066  1.0000
  C   C46       1.0  0.4822413629522088  0.28345102636527025  0.3899423943204995  1.0000
  C   C47       1.0  0.4729839104085798  0.2769792704227854  0.3494887446910796  1.0000
  C   C48       1.0  0.3790317999264232  0.35535450393076945  0.32973758405071163  1.0000
  C   C49       1.0  0.29318325510143955  0.43774396930341913  0.3515788019348209  1.0000
  C   C50       1.0  0.30260783588646223  0.44378907853780464  0.3920324962387981  1.0000
  C   C51       1.0  0.3493350251061996  0.33406327181879913  0.21224243785872696  1.0000
  C   C52       1.0  0.37170666038624484  0.35328382960194915  0.2863973957571632  1.0000
  C   C53       1.0  0.40887398661542573  0.21933036834565206  0.15344081736640905  1.0000
  C   C54       1.0  0.39232726068666324  0.20079064932171778  0.11530710087144772  1.0000
  C   C55       1.0  0.2213559632055677  0.37062028028094557  0.11360955263169366  1.0000
  C   C56       1.0  0.3736704368614383  0.6948467911386728  0.43956298737541755  1.0000
  C   C57       1.0  0.23697385871010823  0.3887734158305848  0.15189628810869493  1.0000
  C   C58       1.0  0.3315393431704337  0.3137521579809929  0.17206044863837633  1.0000
  C   C59       1.0  0.29898157167579603  0.2767798045456402  0.09494248105406915  1.0000
  C   C60       1.0  0.34148418135379893  0.7472327527900546  0.3985387272628104  1.0000
  C   C61       1.0  0.4058119430593266  0.7951579315667131  0.3784867047264911  1.0000
  C   C62       1.0  0.39749654684217717  0.8328585499999904  0.33801705079161354  1.0000
  C   C63       1.0  0.32431275509941326  0.8151656568622984  0.31555688406206184  1.0000
  C   C64       1.0  0.25600104192167805  0.7714747998246881  0.3357290364684503  1.0000
  C   C65       1.0  0.2607539380066727  0.7410197007127621  0.37682557953148443  1.0000
  C   C66       1.0  0.21095947659365777  0.8891785355273003  0.17705466312693832  1.0000
  C   C67       1.0  0.3893798728758712  0.36325355626834  0.6093274776270621  1.0000
  C   C68       1.0  0.2006815786269271  0.9145026074644278  0.13580246562734294  1.0000
  C   C69       1.0  0.3827490129612699  0.9097046600871934  0.12855002529626353  1.0000
  C   C70       1.0  0.39309995823987975  0.884865003642915  0.16975964045501976  1.0000
  C   C71       1.0  0.3080200685194329  0.8746285049709215  0.194828486118695  1.0000
  C   C72       1.0  0.3153700153232534  0.8526397697313401  0.23681254479129885  1.0000
  C   C73       1.0  0.31954645813909377  0.8369797660449193  0.27336845230200885  1.0000
  C   C74       1.0  0.28605623729720264  0.9253251466244093  0.11154120412030726  1.0000
  C   C75       1.0  0.7365780379172833  0.38007100456283643  0.39526032522748294  1.0000
  C   C76       1.0  0.7815448205890476  0.2729248470278449  0.3835721980661547  1.0000
  C   C77       1.0  0.8145129357107949  0.2520653610365713  0.34351893514175214  1.0000
  C   C78       1.0  0.46443776574104595  0.26464030878941003  0.6284539279709309  1.0000
  C   C79       1.0  0.8024393702717065  0.33801219783470055  0.3142909841430353  1.0000
  C   C80       1.0  0.7563362491072568  0.44688567606804236  0.3260161684211838  1.0000
  C   C81       1.0  0.7240541249650506  0.4659506394945295  0.36635161758441376  1.0000
  C   C82       1.0  0.8963136232833618  0.385646491173354  0.17130806546470012  1.0000
  C   C83       1.0  0.924911731460206  0.3750918598381078  0.13041165297887863  1.0000
  C   C84       1.0  0.9132433229598506  0.2040643659533217  0.13584459927771061  1.0000
  C   C85       1.0  0.8854124810548855  0.21354382254073562  0.17668493134961955  1.0000
  C   C86       1.0  0.8779021330412676  0.3038481763803844  0.19514889176245737  1.0000
  C   C87       1.0  0.8528477796005235  0.3115738795453211  0.23700396959976203  1.0000
  C   C88       1.0  0.831916222609017  0.3188760695705994  0.2731922258814735  1.0000
  C   C89       1.0  0.45275541400018676  0.2458709737166913  0.669868633790337  1.0000
  C   C90       1.0  0.9347814744266929  0.2837959509931594  0.11247504400727594  1.0000
  C   C91       1.0  0.2648349641756624  0.9726142933929225  0.9523111233244071  1.0000
  C   C92       1.0  0.27442769753342594  0.2565114819379986  0.9428076091276342  1.0000
  C   C93       1.0  0.9698536174464181  0.2730351516033522  0.9545012678425739  1.0000
  C   C94       1.0  0.26621370549163725  0.9636498198742415  0.0684815247187487  1.0000
  C   C95       1.0  0.2769985905645811  0.2540429072017361  0.05528749119808651  1.0000
  C   C96       1.0  0.9759883398327249  0.2643482988901624  0.06984253027403041  1.0000
  C   C97       1.0  0.8755473047675012  0.0656167491660469  0.8621881139688558  1.0000
  C   C98       1.0  0.13593862808641438  0.5996624615251632  0.6796073390044557  1.0000
  C   C99       1.0  0.03262875458371895  0.8948151956232807  0.18653144633219657  1.0000
  C   C100      1.0  0.09937084209078514  0.7706967186895  0.4186883611956419  1.0000
  C   C101      1.0  0.4637669041747756  0.887802109138143  0.3198178728154702  1.0000
  C   C102      1.0  0.41903120701682894  0.9771023376245296  0.29128779608795  1.0000
  C   C103      1.0  0.4817493446905632  0.028659690245199  0.2739901733861317  1.0000
  C   C104      1.0  0.5897282949825139  0.9934392047364968  0.28530157101717185  1.0000
  C   C105      1.0  0.634637689705812  0.9055291458907676  0.3140233560299351  1.0000
  C   C106      1.0  0.5724548281096276  0.8529761407079021  0.33100535483011145  1.0000
  C   C107      1.0  0.7405619401052946  0.5379124847174098  0.29520885378146744  1.0000
  C   C108      1.0  0.6337919021567302  0.6122862962840685  0.2838509439789761  1.0000
  C   C109      1.0  0.6189825294594301  0.6951404826617849  0.25364482078422423  1.0000
  C   C110      1.0  0.71046364589553  0.7054215704068197  0.23485390442332496  1.0000
  C   C111      1.0  0.8172015047040588  0.6322813736138571  0.24632551603840383  1.0000
  C   C112      1.0  0.8322690541556382  0.548561438185459  0.276151259952215  1.0000
  N   N1        1.0  0.4155515131296638  0.8418736068399967  0.767115135738216  1.0000
  N   N2        1.0  0.462169551841029  0.2840597470555437  0.2648960562051173  1.0000
  N   N3        1.0  0.27793109049184755  0.4281344687338304  0.26888559472127593  1.0000
  N   N4        1.0  0.2666900770732354  0.41854289749453244  0.23122709906326128  1.0000
  N   N5        1.0  0.423649204159709  0.8227659082936256  0.7290234154149291  1.0000
  N   N6        1.0  0.2512603789991489  0.8135675401371998  0.7377494268894795  1.0000
  N   N7        1.0  0.2428700164312758  0.8332804784983454  0.7758000475550377  1.0000
  N   N8        1.0  0.9304162284068199  0.23615946089370254  0.7663329487453939  1.0000
  N   N9        1.0  0.9094159626486161  0.2481584159206847  0.7280982330408893  1.0000
  N   N10       1.0  0.8422336690281541  0.439241844105382  0.7286106238642918  1.0000
  N   N11       1.0  0.8626684865611196  0.42754737736989756  0.7668574786754336  1.0000
  N   N12       1.0  0.4505480329593325  0.27393214446940567  0.2272058821397637  1.0000
  O   O1        1.0  0.4810849350838782  0.6806853191145663  0.5326755550384236  1.0000
  O   O2        1.0  0.5076537148649009  0.3194909756845874  0.4677426860790137  1.0000
  O   O3        1.0  0.33967459579589837  0.4681940935636959  0.46979039236457265  1.0000
  O   O4        1.0  0.3077598032143029  0.664613395218048  0.46192004521230967  1.0000
  O   O5        1.0  0.5042157092267204  0.5027865642751976  0.4995740639830546  1.0000
  O   O6        1.0  0.983436862401497  0.18283600263093552  0.9724004016432776  1.0000
  O   O7        1.0  0.1711446382766442  0.9944708079668557  0.9698592464880992  1.0000
  O   O8        1.0  0.3420406173443241  0.986502111953243  0.9665059940224628  1.0000
  O   O9        1.0  0.34337212639885445  0.1691572248223778  0.9617511379123659  1.0000
  O   O10       1.0  0.1837539888767523  0.32731697417740696  0.959086143065662  1.0000
  O   O11       1.0  0.9909324078814309  0.3438153497638439  0.9690651242648873  1.0000
  O   O12       1.0  0.6742828853125858  0.49778816807976506  0.5332769237602122  1.0000
  O   O13       1.0  0.9899728262715755  0.1759863287578298  0.057109399928684516  1.0000
  O   O14       1.0  0.17391196016152594  0.9829422434089778  0.05579771364795502  1.0000
  O   O15       1.0  0.3426977731933433  0.9797473444133615  0.04700069068482551  1.0000
  O   O16       1.0  0.34311540434241994  0.16200328161966132  0.04139582476552312  1.0000
  O   O17       1.0  0.18990628159145465  0.32588409546266217  0.03834571075524452  1.0000
  O   O18       1.0  0.9993499824573819  0.33662599677378324  0.0490765162690963  1.0000
  O   O19       1.0  0.16305674117194968  0.15680095194613847  0.007880291282951597  1.0000
  O   O20       1.0  0.6804551806634151  0.3300282503070378  0.5417323644172003  1.0000
  O   O21       1.0  0.49661054542227123  0.3244857463222672  0.5472847421956221  1.0000
  O   O22       1.0  0.33290489072347645  0.4784245861946487  0.5493904278932151  1.0000
  O   O23       1.0  0.3202681329103357  0.6670604121836449  0.5405918825565126  1.0000
  O   O24       1.0  0.4674305266147487  0.6788904741152421  0.44944044972530156  1.0000
  O   O25       1.0  0.6661371695492163  0.5023043273258878  0.4466679217054905  1.0000
  O   O26       1.0  0.688381905021501  0.32993717766646574  0.4618195482943792  1.0000
  O   O27       1.0  0.8731243395712199  0.15823056330645363  0.8377067622694272  1.0000
  O   O28       1.0  0.21157965989656452  0.49667325037462023  0.697866704876603  1.0000
  O   O29       1.0  0.13220678261420474  0.8787457377920304  0.20306245684746937  1.0000
  O   O30       1.0  0.18999766941816174  0.6994404332184205  0.393222937221772  1.0000
  O   O31       1.0  0.643743169642164  0.6773814289836578  0.48286432439863375  1.0000
  O   O32       1.0  0.9925855116187137  0.011754685983476098  0.01822210274215761  1.0000
