data_image0
_chemical_formula_structural       Cu6H64Au6C44S8N12
_chemical_formula_sum              "Cu6 H64 Au6 C44 S8 N12"
_cell_length_a       11.107703035164025
_cell_length_b       11.206972118806306
_cell_length_c       15.116
_cell_angle_alpha    73.25296603649603
_cell_angle_beta     89.66247623754228
_cell_angle_gamma    66.04373496182922

_space_group_name_H-M_alt    "P 1"
_space_group_IT_number       1

loop_
  _space_group_symop_operation_xyz
  'x, y, z'

loop_
  _atom_site_type_symbol
  _atom_site_label
  _atom_site_symmetry_multiplicity
  _atom_site_fract_x
  _atom_site_fract_y
  _atom_site_fract_z
  _atom_site_occupancy
  Cu  Cu1       1.0  0.8838741201692955  0.0563252053346517  0.17890753498567596  1.0000
  Cu  Cu2       1.0  0.11612632601711678  0.943674626284924  0.8210934252251649  1.0000
  Cu  Cu3       1.0  0.9695996149865422  0.2681905434231311  0.9183064547540882  1.0000
  Cu  Cu4       1.0  0.03040347053893555  0.7318072322693965  0.08169493324214729  1.0000
  Cu  Cu5       1.0  0.4365074841058884  0.2686377075557829  0.564858343138731  1.0000
  Cu  Cu6       1.0  0.5634938623722902  0.7313621240637929  0.435141290073581  1.0000
  H   H1        1.0  0.01776792884398756  0.270355434603296  0.16513307392435192  1.0000
  H   H2        1.0  0.9822293970893695  0.7296454249798074  0.8348670186374679  1.0000
  H   H3        1.0  0.9818608029072209  0.3972924823200401  0.05362962272463528  1.0000
  H   H4        1.0  0.018136942403913253  0.6027073492995286  0.9463713491777241  1.0000
  H   H5        1.0  0.8409085038490005  0.5267542084501287  0.14738184121547704  1.0000
  H   H6        1.0  0.15908882208436376  0.4732466511329676  0.8526169282449915  1.0000
  H   H7        1.0  0.7990025924866656  0.3895488330986865  0.20658022730759745  1.0000
  H   H8        1.0  0.20099431406892868  0.6104530544479375  0.7934189859136753  1.0000
  H   H9        1.0  0.7134360595908902  0.5712362460323206  0.002129613317301011  1.0000
  H   H10       1.0  0.28656168572024393  0.4287635855872551  0.9978687123823634  1.0000
  H   H11       1.0  0.6073026010199953  0.5507571567202376  0.08750913679225648  1.0000
  H   H12       1.0  0.3926960445829052  0.44924267489933817  0.9124891850102373  1.0000
  H   H13       1.0  0.6657068417528079  0.4033883060134826  0.9632315192210968  1.0000
  H   H14       1.0  0.33429312351962176  0.5966104976425726  0.03676701647408719  1.0000
  H   H15       1.0  0.6455742630453685  0.3250245907018368  0.08017803546565014  1.0000
  H   H16       1.0  0.35442432102131244  0.6749731849906908  0.9198220489151013  1.0000
  H   H17       1.0  0.8241178306873705  0.9940653981993038  0.8655521962556849  1.0000
  H   H18       1.0  0.1758843545463478  0.0059323774932238  0.13444985718840036  1.0000
  H   H19       1.0  0.7944088525928662  0.0892272338263567  0.9459375117657561  1.0000
  H   H20       1.0  0.20559159359354592  0.9107725977932192  0.0540641099957568  1.0000
  H   H21       1.0  0.6019250745475587  0.1757622311850753  0.8048361403872165  1.0000
  H   H22       1.0  0.3980757294804107  0.8242345165439318  0.19516547709041276  1.0000
  H   H23       1.0  0.6469868777131395  0.3026478807256581  0.8240565484595521  1.0000
  H   H24       1.0  0.3530121872675309  0.6973509229303971  0.1759452988861838  1.0000
  H   H25       1.0  0.7551551753844662  0.1404043978360932  0.6865437942400663  1.0000
  H   H26       1.0  0.24484520926573336  0.8595933778564344  0.3134582669983601  1.0000
  H   H27       1.0  0.6591792050035465  0.3201880223244942  0.6553095697560425  1.0000
  H   H28       1.0  0.34082117964665304  0.6798097533680334  0.344691829931712  1.0000
  H   H29       1.0  0.8405280825113977  0.3551531736075546  0.7185910154320184  1.0000
  H   H30       1.0  0.15947098246926567  0.6448456300484935  0.2814095088123666  1.0000
  H   H31       1.0  0.9285206885757091  0.21922350098858354  0.6705315723901395  1.0000
  H   H32       1.0  0.07147969607449058  0.7807742747039441  0.32947048884829405  1.0000
  H   H33       1.0  0.3806107879543816  0.1764067643142084  0.7624479503324795  1.0000
  H   H34       1.0  0.6193878576485118  0.8235930673053602  0.2375516945713586  1.0000
  H   H35       1.0  0.2927183628163093  0.3053514247920575  0.814901400333085  1.0000
  H   H36       1.0  0.7072802827865843  0.6946484068275183  0.185097583020081  1.0000
  H   H37       1.0  0.12031710185579671  0.24993493921203944  0.765610893651548  1.0000
  H   H38       1.0  0.8796820246610866  0.7500659203710569  0.2343885295652442  1.0000
  H   H39       1.0  0.18593754871729828  0.2349400352970079  0.6596455929858608  1.0000
  H   H40       1.0  0.8140610968855952  0.7650597963225678  0.340352728816626  1.0000
  H   H41       1.0  0.045949234514367276  0.49881621581265284  0.712973015033299  1.0000
  H   H42       1.0  0.9540489917107494  0.5011846437704435  0.28702641208067103  1.0000
  H   H43       1.0  0.9973594894225357  0.4647947350440234  0.6153982172161108  1.0000
  H   H44       1.0  0.0026409567638764953  0.5352050965755524  0.3846007583427068  1.0000
  H   H45       1.0  0.14406485880243033  0.614214372979859  0.5997578901597791  1.0000
  H   H46       1.0  0.8559346870922226  0.3857854586397167  0.4002410892962161  1.0000
  H   H47       1.0  0.17126605807405323  0.49986268267942086  0.5327289500521389  1.0000
  H   H48       1.0  0.828734807490136  0.5001361209766273  0.46727156639789763  1.0000
  H   H49       1.0  0.3927865118699216  0.3694583139984289  0.353668590102295  1.0000
  H   H50       1.0  0.6072130955609437  0.630543573548195  0.6463312729781309  1.0000
  H   H51       1.0  0.47286105377247617  0.4806860231514207  0.3068895546555765  1.0000
  H   H52       1.0  0.5271399348641452  0.5193168923587308  0.693109421289954  1.0000
  H   H53       1.0  0.530172960883675  0.255163161691776  0.2515369484161171  1.0000
  H   H54       1.0  0.469825326877661  0.7448397538183684  0.7484633623222836  1.0000
  H   H55       1.0  0.6599366889827891  0.3002270266281784  0.2755536502050831  1.0000
  H   H56       1.0  0.34006465749538245  0.6997728049913974  0.7244459830072361  1.0000
  H   H57       1.0  0.7332592661903518  0.05575057372509921  0.3665908482054263  1.0000
  H   H58       1.0  0.26673896003476466  0.944250285857997  0.6334092404592229  1.0000
  H   H59       1.0  0.5791396351767871  0.09178377910891561  0.4126218328166687  1.0000
  H   H60       1.0  0.42085775229278977  0.9082191364012288  0.5873778202682303  1.0000
  H   H61       1.0  0.7915140712144932  0.1887464384484474  0.44804169452312703  1.0000
  H   H62       1.0  0.20848637497191885  0.8112533931711283  0.5519579425863627  1.0000
  H   H63       1.0  0.7199419871422066  0.098321627117393  0.5330263300477115  1.0000
  H   H64       1.0  0.2800567199968996  0.9016802604292309  0.4669735369298849  1.0000
  Au  Au1       1.0  0.10860142813142197  0.17688271142552034  0.3976346205686241  1.0000
  Au  Au2       1.0  0.8914003992607389  0.823118148157576  0.6023647909566423  1.0000
  Au  Au3       1.0  0.4359963285825827  0.1197998969741647  0.06147108754511522  1.0000
  Au  Au4       1.0  0.5640043022124813  0.8802061024265484  0.9385285542349782  1.0000
  Au  Au5       1.0  0.7085825516399424  0.7790493519117732  0.764550008703111  1.0000
  Au  Au6       1.0  0.29141783301025725  0.2209484237807544  0.23545072943397122  1.0000
  C   C1        1.0  0.21805357283957955  0.2362907793666835  0.46137532486526583  1.0000
  C   C2        1.0  0.7819474157970348  0.7637121361434609  0.5386236510802578  1.0000
  C   C3        1.0  0.004531505407989304  0.1141903000272677  0.3326656675530232  1.0000
  C   C4        1.0  0.9954710992034989  0.8858064477017322  0.667335942130258  1.0000
  C   C5        1.0  0.6129105251107771  0.0761443420647439  0.11943143317006392  1.0000
  C   C6        1.0  0.38709082136740147  0.9238554895548319  0.8805721693463014  1.0000
  C   C7        1.0  0.25817468654546616  0.1749922865060896  0.9994457797285181  1.0000
  C   C8        1.0  0.7418285835886563  0.8250116569675825  0.000551643634267371  1.0000
  C   C9        1.0  0.809255668233561  0.5799359013303871  0.8231382637841949  1.0000
  C   C10       1.0  0.19074381612487906  0.4200618743621405  0.17686313980074433  1.0000
  C   C11       1.0  0.6039336392261206  0.9749257453581421  0.6961491990739364  1.0000
  C   C12       1.0  0.3960668069602987  0.0250740862614336  0.3038484533835303  1.0000
  C   C13       1.0  0.9391451747254609  0.3438897772822642  0.1080081518635012  1.0000
  C   C14       1.0  0.060853051499663004  0.656111082300832  0.8919912752504688  1.0000
  C   C15       1.0  0.8195613020180303  0.4429268670119058  0.1390440827343085  1.0000
  C   C16       1.0  0.18043692420709334  0.5570739925711976  0.8609553443796616  1.0000
  C   C17       1.0  0.7021978016890599  0.4971550267589322  0.0635884840283794  1.0000
  C   C18       1.0  0.2977999436220741  0.5028448048606435  0.9364098416712853  1.0000
  C   C19       1.0  0.7017674270825793  0.3753197620085444  0.03698587311925651  1.0000
  C   C20       1.0  0.2982334384816099  0.6246790416475108  0.963013981780108  1.0000
  C   C21       1.0  0.8023231635899392  0.0952829669423849  0.87259645902018  1.0000
  C   C22       1.0  0.19767770197424278  0.9047158367136703  0.12740471898053582  1.0000
  C   C23       1.0  0.6831898518844495  0.2078994548154114  0.8042852887649021  1.0000
  C   C24       1.0  0.3168114330575095  0.7920983208771162  0.19571610702568173  1.0000
  C   C25       1.0  0.7332272440981809  0.231107787281978  0.7090372270583318  1.0000
  C   C26       1.0  0.2667731405520186  0.7688899884105496  0.2909635110787505  1.0000
  C   C27       1.0  0.8599500670889454  0.2501929580564024  0.7205427306906956  1.0000
  C   C28       1.0  0.14004989818348432  0.7498058455996528  0.2794584512071908  1.0000
  C   C29       1.0  0.30047142949448613  0.2793100248551497  0.7498873045844762  1.0000
  C   C30       1.0  0.6995272161084073  0.720689806764419  0.2501123403193688  1.0000
  C   C31       1.0  0.1684398936912288  0.2930210023295317  0.7094601512424958  1.0000
  C   C32       1.0  0.8315592328256542  0.7069798572535717  0.2905392719742964  1.0000
  C   C33       1.0  0.08420655253086551  0.4463695168515898  0.6608256399450668  1.0000
  C   C34       1.0  0.9157916736942581  0.5536313427315136  0.33917312561822394  1.0000
  C   C35       1.0  0.17219114088717188  0.5067819051550586  0.6035648560532821  1.0000
  C   C36       1.0  0.8278084050074809  0.4932179264645171  0.3964347849533852  1.0000
  C   C37       1.0  0.48853810024260713  0.3758553310042032  0.34694240662825854  1.0000
  C   C38       1.0  0.5114659471108496  0.6241445006153725  0.6530578764432066  1.0000
  C   C39       1.0  0.5839535319697048  0.2676405829381352  0.3066168759496506  1.0000
  C   C40       1.0  0.4160451751694082  0.7323613046084816  0.6933836525786178  1.0000
  C   C41       1.0  0.6510766059747651  0.1341667151764341  0.3872472426599459  1.0000
  C   C42       1.0  0.34892071995859897  0.8658341444066622  0.6127528499018741  1.0000
  C   C43       1.0  0.7012594646422842  0.1730484074834422  0.46349013444217496  1.0000
  C   C44       1.0  0.2987396618745989  0.8269524520996541  0.5365099503252964  1.0000
  S   S1        1.0  0.8759017350279024  0.24677395137775454  0.05790890247656221  1.0000
  S   S2        1.0  0.1240978108667576  0.7532258802418212  0.9420907385301049  1.0000
  S   S3        1.0  0.943636077114739  0.1360386367524455  0.8385056282826114  1.0000
  S   S4        1.0  0.05636478844944286  0.8639601669036027  0.1614962112687763  1.0000
  S   S5        1.0  0.3435335509165255  0.4021907285087849  0.6619592492200896  1.0000
  S   S6        1.0  0.6564659949781343  0.5978091031107908  0.3380403917865778  1.0000
  S   S7        1.0  0.5679535440762464  0.3370322326180286  0.46478132551936113  1.0000
  S   S8        1.0  0.4320460633546261  0.6629696549285953  0.5352191991117365  1.0000
  N   N1        1.0  0.2907612560433392  0.265741934310519  0.4970128774223286  1.0000
  N   N2        1.0  0.709241471640581  0.7342589252725773  0.5029858686550883  1.0000
  N   N3        1.0  0.9481147411804186  0.07927037913923841  0.28713528907445623  1.0000
  N   N4        1.0  0.0518861243837704  0.9207284245168169  0.7128665504769317  1.0000
  N   N5        1.0  0.7169854557422822  0.05735522478504151  0.15205744240152094  1.0000
  N   N6        1.0  0.28301499044412987  0.9426446068345343  0.8479455024613431  1.0000
  N   N7        1.0  0.1506965467079411  0.21218606270776516  0.9631276167499012  1.0000
  N   N8        1.0  0.8493057615982096  0.7878158248388587  0.036870911537647516  1.0000
  N   N9        1.0  0.8704040729547983  0.46057288885364767  0.8540268627556175  1.0000
  N   N10       1.0  0.12959721198716076  0.53942488683888  0.14597453303496624  1.0000
  N   N11       1.0  0.5407460866521774  0.0884398137674722  0.6493723455330598  1.0000
  N   N12       1.0  0.45925387862025246  0.911558989888576  0.3506275132634755  1.0000
