data_image0
_chemical_formula_structural       AlH33C48O6
_chemical_formula_sum              "Al1 H33 C48 O6"
_cell_length_a       3.9387598386167406
_cell_length_b       23.467986867626205
_cell_length_c       23.555299152543174
_cell_angle_alpha    59.94823237712812
_cell_angle_beta     85.95068193478522
_cell_angle_gamma    85.49406274339663

_space_group_name_H-M_alt    "P 1"
_space_group_IT_number       1

loop_
  _space_group_symop_operation_xyz
  'x, y, z'

loop_
  _atom_site_type_symbol
  _atom_site_label
  _atom_site_symmetry_multiplicity
  _atom_site_fract_x
  _atom_site_fract_y
  _atom_site_fract_z
  _atom_site_occupancy
  Al  Al1       1.0  0.9840505628800712  0.4989058000769261  0.5011205019124461  1.0000
  H   H1        1.0  0.5283386772970005  0.3188812093438784  0.6821624580384691  1.0000
  H   H2        1.0  0.5301987743662055  0.25666477952833594  0.803832181327223  1.0000
  H   H3        1.0  0.8351498083836261  0.22574826810667054  0.8919100344297486  1.0000
  H   H4        1.0  0.8445576631030249  0.16515201100739327  0.012370360571374285  1.0000
  H   H5        1.0  0.47336111306046286  0.803255448280737  0.25629422377766514  1.0000
  H   H6        1.0  0.2470424785236958  0.8983152302240285  0.22378480240707416  1.0000
  H   H7        1.0  0.2551523113673396  0.0183856775125406  0.16438921498186684  1.0000
  H   H8        1.0  0.5258652297990379  0.10614592158247399  0.10541706292793405  1.0000
  H   H9        1.0  0.5684325239081647  0.6785116293362776  0.4972688648384248  1.0000
  H   H10       1.0  0.5713344997819547  0.800334681632016  0.43886481333444033  1.0000
  H   H11       1.0  0.7983635100160883  0.8906742715105481  0.37940777746214127  1.0000
  H   H12       1.0  0.8037298437033228  0.0107574185865715  0.3201589067850107  1.0000
  H   H13       1.0  0.5641091108099516  0.2559295358627267  0.43832420992145404  1.0000
  H   H14       1.0  0.2788349987942667  0.22857504683722857  0.38144671168409855  1.0000
  H   H15       1.0  0.2678188203916251  0.1682661201461997  0.3216645484602195  1.0000
  H   H16       1.0  0.5483074359157598  0.10583903068707204  0.2878540489571718  1.0000
  H   H17       1.0  0.6204971246294659  0.49863395100921815  0.3201187340904707  1.0000
  H   H18       1.0  0.6127727943349441  0.440533571122181  0.25665855133976817  1.0000
  H   H19       1.0  0.8644181180831297  0.37722568268291223  0.2213692349734514  1.0000
  H   H20       1.0  0.8512769272001748  0.31708384426583797  0.16147472362329998  1.0000
  H   H21       1.0  0.497214558228265  0.4404201220703925  0.8039938078575515  1.0000
  H   H22       1.0  0.19900058965739476  0.3805888347342759  0.8980939802236773  1.0000
  H   H23       1.0  0.21125737467638578  0.3201720097148026  0.01857247935761558  1.0000
  H   H24       1.0  0.5461709324457545  0.2889797354931218  0.10510415226087842  1.0000
  H   H25       1.0  0.2554185492396215  0.29808994645312487  0.5400009792175309  1.0000
  H   H26       1.0  0.6521102719213019  0.3249082387343734  0.5449817288964166  1.0000
  H   H27       1.0  0.6348524438108284  0.25200703626318705  0.5395225211051764  1.0000
  H   H28       1.0  0.23110528566665772  0.5432761519455624  0.6883670308106885  1.0000
  H   H29       1.0  0.4804766567675289  0.5461005509305039  0.6213813599015336  1.0000
  H   H30       1.0  0.6804848667924475  0.5396746629662346  0.6897936590379171  1.0000
  H   H31       1.0  0.14076181616630382  0.6692997123601004  0.2995574317791208  1.0000
  H   H32       1.0  0.5351937961424084  0.6251616447233984  0.3254939149661664  1.0000
  H   H33       1.0  0.5191174813523105  0.7042841277238027  0.25293342080430387  1.0000
  C   C1        1.0  0.47155840459366516  0.4479267244122341  0.6024053756173087  1.0000
  C   C2        1.0  0.5303175799969537  0.4491124563845404  0.44910247139588916  1.0000
  C   C3        1.0  0.46638771611174695  0.6004487484863645  0.45039451434075056  1.0000
  C   C4        1.0  0.5153145616322661  0.3450341036547543  0.7096859495269568  1.0000
  C   C5        1.0  0.5206533550336446  0.3103971499904148  0.7777005804451489  1.0000
  C   C6        1.0  0.6906593178562375  0.24611445411080268  0.9194446637613465  1.0000
  C   C7        1.0  0.6958192598361208  0.21181059779725334  0.9875687557213052  1.0000
  C   C8        1.0  0.4543142744362213  0.7082447824127983  0.34227804697704994  1.0000
  C   C9        1.0  0.47898069423299444  0.7765708720798231  0.3097663824662148  1.0000
  C   C10       1.0  0.3786717354965319  0.9223083383646514  0.24468039715301138  1.0000
  C   C11       1.0  0.3824615313623098  0.9906539309616565  0.21093081186823048  1.0000
  C   C12       1.0  0.4849438107743328  0.4141172515522413  0.675248754727235  1.0000
  C   C13       1.0  0.5085772891942495  0.344171969596502  0.8131388555883843  1.0000
  C   C14       1.0  0.5165948044959097  0.3080183766737719  0.8854169768544079  1.0000
  C   C15       1.0  0.5283454282933987  0.23792619881739804  0.024823379167486254  1.0000
  C   C16       1.0  0.5349943489832756  0.2015963225106603  0.09714309619953808  1.0000
  C   C17       1.0  0.5323306795098759  0.1326374585263679  0.13230921751862462  1.0000
  C   C18       1.0  0.5379065410481941  0.706966890339608  0.444370241492521  1.0000
  C   C19       1.0  0.5447833405590642  0.7751577403560221  0.4112586310208923  1.0000
  C   C20       1.0  0.6707141328865162  0.9182275457178476  0.33290141862198647  1.0000
  C   C21       1.0  0.6734645871655688  0.9865973522953765  0.29924262745112873  1.0000
  C   C22       1.0  0.54755339837169  0.3417676668083161  0.4483467980582032  1.0000
  C   C23       1.0  0.562819413564455  0.3096760229813853  0.41178173452644956  1.0000
  C   C24       1.0  0.41332742411915285  0.24752476784968283  0.33385448072399254  1.0000
  C   C25       1.0  0.4073176866112576  0.21327526770067354  0.30001693960626596  1.0000
  C   C26       1.0  0.48379603592751846  0.6731992836424894  0.4109811204756324  1.0000
  C   C27       1.0  0.5155289065021692  0.8116455147235514  0.3427021204076296  1.0000
  C   C28       1.0  0.5231263685092812  0.8842198286917765  0.30657588273827213  1.0000
  C   C29       1.0  0.5300768798472648  0.024590392098588196  0.23729522760479674  1.0000
  C   C30       1.0  0.5357341178195298  0.09724421565864821  0.20106823329994222  1.0000
  C   C31       1.0  0.5448106352386191  0.1325432810412437  0.23444305453563882  1.0000
  C   C32       1.0  0.6021705154770415  0.44528756436896794  0.34547317525170473  1.0000
  C   C33       1.0  0.6019980525416884  0.4124424119686695  0.3101266719223899  1.0000
  C   C34       1.0  0.7253890711087719  0.33216992634825004  0.24318492102319297  1.0000
  C   C35       1.0  0.7185823607309701  0.297994324744117  0.20925707851326075  1.0000
  C   C36       1.0  0.4738959822608562  0.4493445171807268  0.7092363594601564  1.0000
  C   C37       1.0  0.4905103956716558  0.41327882734256605  0.7776209174762766  1.0000
  C   C38       1.0  0.3485683639865726  0.3340542322944131  0.9227620353546299  1.0000
  C   C39       1.0  0.35486283783272643  0.2998413737007723  0.9908845323546129  1.0000
  C   C40       1.0  0.5648283017371512  0.41089658108032984  0.4140593801800135  1.0000
  C   C41       1.0  0.579736991822962  0.34362099976532084  0.34282153023916334  1.0000
  C   C42       1.0  0.5733184410303667  0.30774254178742677  0.30640825285293244  1.0000
  C   C43       1.0  0.5595750767506403  0.23768657527880077  0.23686288135032632  1.0000
  C   C44       1.0  0.5498981511785389  0.2015069659584796  0.20075302485649615  1.0000
  C   C45       1.0  0.543806371964159  0.2353262215427847  0.13205048222793883  1.0000
  C   C46       1.0  0.5228172425776308  0.3021207921350708  0.5221561799158534  1.0000
  C   C47       1.0  0.4657347466848804  0.5235354786264139  0.674849586097245  1.0000
  C   C48       1.0  0.4119091931501514  0.6747914250804713  0.3030446203652203  1.0000
  O   O1        1.0  0.23675953178054954  0.5730153036326017  0.438266113306021  1.0000
  O   O2        1.0  0.21853752172011545  0.48785268899263917  0.5750422819666098  1.0000
  O   O3        1.0  0.2795884933747033  0.4366203523513691  0.49039571718104463  1.0000
  O   O4        1.0  0.6836472245918728  0.5692704259133236  0.4953135101811624  1.0000
  O   O5        1.0  0.7464952948442941  0.4923476374403536  0.4356837254063563  1.0000
  O   O6        1.0  0.714936700378914  0.43408351093039255  0.5717005010921735  1.0000
