data_image0
_chemical_formula_structural       Zn4H16C24O12
_chemical_formula_sum              "Zn4 H16 C24 O12"
_cell_length_a       6.17381015779677
_cell_length_b       7.873377183074957
_cell_length_c       11.960239178764384
_cell_angle_alpha    90.00022545500241
_cell_angle_beta     91.0559665415175
_cell_angle_gamma    90.0004545995338

_space_group_name_H-M_alt    "P 1"
_space_group_IT_number       1

loop_
  _space_group_symop_operation_xyz
  'x, y, z'

loop_
  _atom_site_type_symbol
  _atom_site_label
  _atom_site_symmetry_multiplicity
  _atom_site_fract_x
  _atom_site_fract_y
  _atom_site_fract_z
  _atom_site_occupancy
  Zn  Zn1       1.0  0.7584764319261268  0.6652509427605298  0.5202624412625524  1.0000
  Zn  Zn2       1.0  0.258479766186305  0.8347433339671329  0.5202638774302599  1.0000
  Zn  Zn3       1.0  0.24153249518441558  0.33474297601991765  0.4797392831033988  1.0000
  Zn  Zn4       1.0  0.7415323915314714  0.16524931471287374  0.479735366118902  1.0000
  H   H1        1.0  0.2855703646705122  0.36484822743349815  0.845217945961508  1.0000
  H   H2        1.0  0.7855764708268823  0.13515676426509773  0.8452223673477234  1.0000
  H   H3        1.0  0.7144304528746516  0.6351342603862591  0.1547812010416223  1.0000
  H   H4        1.0  0.21440815303524363  0.8648676369071708  0.15477831406968787  1.0000
  H   H5        1.0  0.6763729097582639  0.5999033387091686  0.7548727340636316  1.0000
  H   H6        1.0  0.17638658760166237  0.9000791680574379  0.7548660612246393  1.0000
  H   H7        1.0  0.3236295341550743  0.40009312025398464  0.24512809901199964  1.0000
  H   H8        1.0  0.8236174574930785  0.09991856099831861  0.24512976885114302  1.0000
  H   H9        1.0  0.6034868809248194  0.6579639420008122  0.9539209871320508  1.0000
  H   H10       1.0  0.10346919347575317  0.8420358454776322  0.9539130654905533  1.0000
  H   H11       1.0  0.39651882184654147  0.3420287066792654  0.046084890311355785  1.0000
  H   H12       1.0  0.8965089440742346  0.15799617628675125  0.04608588851114349  1.0000
  H   H13       1.0  0.9137121162773878  0.9164107902956219  0.6163408453735285  1.0000
  H   H14       1.0  0.41370321634948937  0.5835850645901814  0.6163423831386792  1.0000
  H   H15       1.0  0.0863081352719917  0.0835869388170849  0.3836567948702977  1.0000
  H   H16       1.0  0.5863105613602143  0.41640250368298853  0.38365687419430117  1.0000
  C   C1        1.0  0.1367310297827515  0.42828947644257914  0.8696821690071984  1.0000
  C   C2        1.0  0.6367040777119328  0.07170329227245992  0.8696802970067946  1.0000
  C   C3        1.0  0.8632827730118888  0.571690471233353  0.1303237773717711  1.0000
  C   C4        1.0  0.3632691997668047  0.9283249191673876  0.13031861561874078  1.0000
  C   C5        1.0  0.985617485792261  0.47674126464379185  0.7885797135093354  1.0000
  C   C6        1.0  0.48563875842760496  0.023260834205530007  0.7885805206025152  1.0000
  C   C7        1.0  0.0143784654772432  0.5232526540822634  0.21141771987343105  1.0000
  C   C8        1.0  0.5143620592957632  0.9767572164982925  0.2114186264467648  1.0000
  C   C9        1.0  0.7916127406673751  0.5599921876947322  0.8197137106103509  1.0000
  C   C10       1.0  0.2916057646161363  0.9399990711020793  0.8197086343462839  1.0000
  C   C11       1.0  0.2083994672839253  0.439997920820808  0.18029891104726656  1.0000
  C   C12       1.0  0.7083836815752633  0.060017709436550604  0.18028205484865364  1.0000
  C   C13       1.0  0.751544155663211  0.5924727472598833  0.9304241668405947  1.0000
  C   C14       1.0  0.2515400847635973  0.9075329136352935  0.9304165254885814  1.0000
  C   C15       1.0  0.24846150623852034  0.40751101066541656  0.06957084087548539  1.0000
  C   C16       1.0  0.748434822172797  0.09249910812653182  0.06958490932825609  1.0000
  C   C17       1.0  0.09839608963027047  0.45815618177225315  0.9843529603016773  1.0000
  C   C18       1.0  0.5983915060212154  0.041859915309160604  0.9843478593611291  1.0000
  C   C19       1.0  0.901607977358104  0.5418237658596396  0.015648722674917796  1.0000
  C   C20       1.0  0.4015817746488253  0.9581784569573062  0.015651889409575397  1.0000
  C   C21       1.0  0.023437710584566698  0.43945397032926087  0.6684003323717318  1.0000
  C   C22       1.0  0.5234268279336902  0.06053556510180161  0.6683935525059183  1.0000
  C   C23       1.0  0.9765728459390742  0.5605348680521445  0.3316039141739892  1.0000
  C   C24       1.0  0.47655776751852136  0.9394596236780474  0.33159960368573127  1.0000
  O   O1        1.0  0.8645275175329132  0.4401867303383753  0.5990723705454712  1.0000
  O   O2        1.0  0.364549165932253  0.0598108885276716  0.5990757808928037  1.0000
  O   O3        1.0  0.1354635768248258  0.559807188374748  0.400925857598061  1.0000
  O   O4        1.0  0.6354629949131834  0.9401792199489308  0.40092429878504976  1.0000
  O   O5        1.0  0.21877687793990216  0.40499533590121933  0.6396748695340972  1.0000
  O   O6        1.0  0.7187987473011928  0.09499907021490371  0.6396701271715839  1.0000
  O   O7        1.0  0.7812158615583441  0.594998582837846  0.3603300614557198  1.0000
  O   O8        1.0  0.28121340728255717  0.9049948485655082  0.3603282802472447  1.0000
  O   O9        1.0  0.9770228729435644  0.8129889473843548  0.5852272122529527  1.0000
  O   O10       1.0  0.4770230970739177  0.6870058461718429  0.5852257428346517  1.0000
  O   O11       1.0  0.0229876584951398  0.18700751159428822  0.4147703452467794  1.0000
  O   O12       1.0  0.5229890637778851  0.31298553240775834  0.41477433684485004  1.0000
