data_image0
_chemical_formula_structural       Cu6H12C18O18
_chemical_formula_sum              "Cu6 H12 C18 O18"
_cell_length_a       3.685980668697806
_cell_length_b       10.77180615427389
_cell_length_c       14.106141591079647
_cell_angle_alpha    89.99994317209415
_cell_angle_beta     89.99964318345154
_cell_angle_gamma    96.29128462486754

_space_group_name_H-M_alt    "P 1"
_space_group_IT_number       1

loop_
  _space_group_symop_operation_xyz
  'x, y, z'

loop_
  _atom_site_type_symbol
  _atom_site_label
  _atom_site_symmetry_multiplicity
  _atom_site_fract_x
  _atom_site_fract_y
  _atom_site_fract_z
  _atom_site_occupancy
  Cu  Cu1       1.0  0.5563908749193444  0.2761092362330827  0.6312202672298425  1.0000
  Cu  Cu2       1.0  0.44361437313655466  0.7238879442489291  0.1312195397559819  1.0000
  Cu  Cu3       1.0  0.44360288144051196  0.7238867617976651  0.3687884014119973  1.0000
  Cu  Cu4       1.0  0.5563996501250159  0.27611172943250745  0.8687898377798007  1.0000
  Cu  Cu5       1.0  7.842669347671767e-06  0.5000081011913337  0.49999550825947375  1.0000
  Cu  Cu6       1.0  0.9999953401648582  0.49999381424550643  0.999993963379957  1.0000
  H   H1        1.0  0.6565213912975167  0.44588191912031033  0.7499988869503582  1.0000
  H   H2        1.0  0.3434845017892271  0.5541177803292  0.24999631237025  1.0000
  H   H3        1.0  0.10882470239618404  0.4224308003078931  0.6563535872679367  1.0000
  H   H4        1.0  0.8911835851683277  0.5775691153615977  0.1563536862237456  1.0000
  H   H5        1.0  0.8911923550765621  0.5775697987308986  0.34365011897654096  1.0000
  H   H6        1.0  0.10881320539364475  0.42242780802568086  0.8436500200378632  1.0000
  H   H7        1.0  0.6781493848224684  0.3607325629078629  0.2500067554775214  1.0000
  H   H8        1.0  0.32184663969530186  0.6392699726674634  0.7500004953380213  1.0000
  H   H9        1.0  0.13637220710972997  0.047805957164548774  0.4028315055796625  1.0000
  H   H10       1.0  0.863645832674699  0.9521849238993308  0.902830553250041  1.0000
  H   H11       1.0  0.863641286233978  0.9521843686006687  0.597165111560578  1.0000
  H   H12       1.0  0.13633522736483875  0.04782139893213609  0.0971646460875135  1.0000
  C   C1        1.0  0.5428616087471099  0.2738055801425786  0.42699575829420416  1.0000
  C   C2        1.0  0.45714376467604  0.7261974377790847  0.9269970219931665  1.0000
  C   C3        1.0  0.4571422221974259  0.7261959957545228  0.5730044034048518  1.0000
  C   C4        1.0  0.5428366472238578  0.27380701717397204  0.07300597536740129  1.0000
  C   C5        1.0  0.41968285206654327  0.21133934689524378  0.3360333702725455  1.0000
  C   C6        1.0  0.5803192210163814  0.7886554842306662  0.8360308519207321  1.0000
  C   C7        1.0  0.5803136145207688  0.7886566425614203  0.6639667914342836  1.0000
  C   C8        1.0  0.4196717074017896  0.2113480024578109  0.16396718305446  1.0000
  C   C9        1.0  0.5155400164223848  0.270246915862124  0.24999486367126172  1.0000
  C   C10       1.0  0.4844403955953354  0.7297575391015697  0.7499989178453319  1.0000
  C   C11       1.0  0.8679708260229617  0.9149390536759866  0.2500021524399401  1.0000
  C   C12       1.0  0.1320299706922725  0.08506159686212555  0.7500050983725686  1.0000
  C   C13       1.0  0.10595211394018379  0.03711584599462009  0.2500002301588395  1.0000
  C   C14       1.0  0.8940412005404635  0.9628866981719708  0.7500006404591346  1.0000
  C   C15       1.0  0.2142102608694216  0.09415888706659098  0.336146998852321  1.0000
  C   C16       1.0  0.7858079520755297  0.9058433723563792  0.8361433659586197  1.0000
  C   C17       1.0  0.7858060306225809  0.9058473241659755  0.6638552895685663  1.0000
  C   C18       1.0  0.21418721842284327  0.09414888136064542  0.16385750466165663  1.0000
  O   O1        1.0  0.4882357062307036  0.3693535843704935  0.750003299447151  1.0000
  O   O2        1.0  0.5117749588994227  0.6306442300278902  0.2500039513586927  1.0000
  O   O3        1.0  0.9970622710752863  0.3810905686710269  0.5999484001585529  1.0000
  O   O4        1.0  0.0029504929284484634  0.6189104025881914  0.0999470183131947  1.0000
  O   O5        1.0  0.002998678504553627  0.6189192409677701  0.40004538129330314  1.0000
  O   O6        1.0  0.9970087980865827  0.3810800948591363  0.9000460543138686  1.0000
  O   O7        1.0  0.6533310388225144  0.39113829685220475  0.4208734734504489  1.0000
  O   O8        1.0  0.34666029254708514  0.6088629102586224  0.9208721591160725  1.0000
  O   O9        1.0  0.3466435407813576  0.6088493472818753  0.57912456154326  1.0000
  O   O10       1.0  0.6533351721234832  0.39115365151327786  0.07912800258405639  1.0000
  O   O11       1.0  0.5247212372437531  0.20711701823289982  0.5011819228749133  1.0000
  O   O12       1.0  0.47529817638908856  0.792880428168338  0.0011796779983442001  1.0000
  O   O13       1.0  0.4753067787714969  0.7928760664185643  0.4988132764308517  1.0000
  O   O14       1.0  0.524685917789121  0.20712682001393287  0.9988155213365033  1.0000
  O   O15       1.0  0.7773566933794951  0.869360517313282  0.3310669300029759  1.0000
  O   O16       1.0  0.22264886481359267  0.13063618456179424  0.8310675747587695  1.0000
  O   O17       1.0  0.22259729529362451  0.13062251723457757  0.6689311050084612  1.0000
  O   O18       1.0  0.7774049263884847  0.8693764526254595  0.16893258689731278  1.0000
