data_image0
_chemical_formula_structural       Ni4H112C80N16O16
_chemical_formula_sum              "Ni4 H112 C80 N16 O16"
_cell_length_a       13.417294437634261
_cell_length_b       15.647718465679475
_cell_length_c       17.195173329104986
_cell_angle_alpha    92.53983307623369
_cell_angle_beta     81.90530280136416
_cell_angle_gamma    90.0276089331758

_space_group_name_H-M_alt    "P 1"
_space_group_IT_number       1

loop_
  _space_group_symop_operation_xyz
  'x, y, z'

loop_
  _atom_site_type_symbol
  _atom_site_label
  _atom_site_symmetry_multiplicity
  _atom_site_fract_x
  _atom_site_fract_y
  _atom_site_fract_z
  _atom_site_occupancy
  Ni  Ni1       1.0  2.3571448010999995e-06  2.1247252349000005e-06  3.772855194499999e-06  1.0000
  Ni  Ni2       1.0  0.4877227909865169  0.5055326386997906  0.7564384179515711  1.0000
  Ni  Ni3       1.0  0.512279222441201  0.49446250176823275  0.24355624264247666  1.0000
  Ni  Ni4       1.0  1.5435036004942065e-06  1.9235260566893463e-06  0.49999872951822494  1.0000
  H   H1        1.0  0.9669114539131911  0.7464056299135108  0.8691029232092755  1.0000
  H   H2        1.0  0.0330548597917542  0.2536156642406269  0.13090107367573714  1.0000
  H   H3        1.0  0.0995960423772644  0.7422983561429604  0.8386088406888417  1.0000
  H   H4        1.0  0.9003663710541191  0.25770802761594785  0.1614055394673172  1.0000
  H   H5        1.0  0.019821032609762302  0.7776446975218932  0.7726820963869583  1.0000
  H   H6        1.0  0.980158425887197  0.22236735142355712  0.22732541912799317  1.0000
  H   H7        1.0  0.13969462845473396  0.8997684082336833  0.7656847459480998  1.0000
  H   H8        1.0  0.8602854589978506  0.100242816942071  0.23431861063861698  1.0000
  H   H9        1.0  0.19932823185105522  0.1267535026387776  0.8087544113087046  1.0000
  H   H10       1.0  0.8006619890039206  0.8732517316966268  0.1912546069283748  1.0000
  H   H11       1.0  0.15271186631089512  0.07067945593672678  0.7288059370354814  1.0000
  H   H12       1.0  0.8472859805099873  0.9293246658124232  0.2712044177264587  1.0000
  H   H13       1.0  0.260686501256167  0.03165431386751289  0.7638336467507328  1.0000
  H   H14       1.0  0.7393090702864598  0.9683550124478945  0.23617934057974566  1.0000
  H   H15       1.0  0.763262989683021  0.05404889635709511  0.06847264301028835  1.0000
  H   H16       1.0  0.23674071027888027  0.9459556924420486  0.9315322936326423  1.0000
  H   H17       1.0  0.7322410832826379  0.11916947025109438  0.8366156410930328  1.0000
  H   H18       1.0  0.26775983292988315  0.8808144268546699  0.16338496805791175  1.0000
  H   H19       1.0  0.9274239428866551  0.05914298672475839  0.8418437131130501  1.0000
  H   H20       1.0  0.07257320647836708  0.9408421873587189  0.15815796970238688  1.0000
  H   H21       1.0  0.587899969174174  0.09424822707593712  0.04181198740053562  1.0000
  H   H22       1.0  0.41210072680298276  0.9057432305376736  0.9581863325599969  1.0000
  H   H23       1.0  0.567071348419617  0.10446984939981259  0.9431198388351231  1.0000
  H   H24       1.0  0.4329353361429683  0.895530791539102  0.056881792668292463  1.0000
  H   H25       1.0  0.6477625148775206  0.2509333671715908  0.9443731395885205  1.0000
  H   H26       1.0  0.3522467500459499  0.7490638096897159  0.055635721086410704  1.0000
  H   H27       1.0  0.6606430732460852  0.24097252023383936  0.04448277202520498  1.0000
  H   H28       1.0  0.3393556569783628  0.7590160511023641  0.9555227864222072  1.0000
  H   H29       1.0  0.4596325968841413  0.2383756536601851  0.9773703568480623  1.0000
  H   H30       1.0  0.5403715837224965  0.7616105913978689  0.022638565850797876  1.0000
  H   H31       1.0  0.47216746642315144  0.22699969488244426  0.07736033437398501  1.0000
  H   H32       1.0  0.5278371348266262  0.7730011737337537  0.9226468087098565  1.0000
  H   H33       1.0  0.4249432105287881  0.37423905840683597  0.05964796087474866  1.0000
  H   H34       1.0  0.5750647795614796  0.6257573785664975  0.9403453427585543  1.0000
  H   H35       1.0  0.5473065382622835  0.3725957672330225  0.08545123259712276  1.0000
  H   H36       1.0  0.45270219836248066  0.6274052579424707  0.9145443100214405  1.0000
  H   H37       1.0  0.4067263482978518  0.39978535911820506  0.9107693276524527  1.0000
  H   H38       1.0  0.5932748724786876  0.6002129983896226  0.08922602303645277  1.0000
  H   H39       1.0  0.6911647806145284  0.42809778475618293  0.987621321569115  1.0000
  H   H40       1.0  0.30884864047387584  0.5718792468932323  0.012365424493729914  1.0000
  H   H41       1.0  0.6940203768280356  0.5030870729810176  0.8424612724865594  1.0000
  H   H42       1.0  0.305989216411362  0.4968977082896231  0.15752831169839243  1.0000
  H   H43       1.0  0.5784491857668925  0.77743618073891  0.7898609837968492  1.0000
  H   H44       1.0  0.42154639766106783  0.22256398054339852  0.21014733002318298  1.0000
  H   H45       1.0  0.6774981509947864  0.7770835105937408  0.7084372916313837  1.0000
  H   H46       1.0  0.3225012216266805  0.22292589853508102  0.2915763664649375  1.0000
  H   H47       1.0  0.705376052623052  0.75349387218769  0.8025432970162284  1.0000
  H   H48       1.0  0.2946113696352626  0.24650638970897637  0.19746957112045038  1.0000
  H   H49       1.0  0.7748061663619766  0.6360102357628746  0.6798479175659509  1.0000
  H   H50       1.0  0.2251938620040548  0.363999043088164  0.3201627437212196  1.0000
  H   H51       1.0  0.7746749430064169  0.4101367760486881  0.6070690075895654  1.0000
  H   H52       1.0  0.2253309677329227  0.5898798290361145  0.3929187736144683  1.0000
  H   H53       1.0  0.8520962440970409  0.46884339156759586  0.6660980580737925  1.0000
  H   H54       1.0  0.1479148952893752  0.5311731989311285  0.333887879124802  1.0000
  H   H55       1.0  0.8230156980059746  0.5132902306174998  0.5791366384967772  1.0000
  H   H56       1.0  0.176978195426031  0.4867282823951912  0.4208544539604587  1.0000
  H   H57       1.0  0.20688526807309415  0.6045005791720045  0.9110062230586491  1.0000
  H   H58       1.0  0.7931225454363755  0.39548092144880803  0.08899581538030077  1.0000
  H   H59       1.0  0.16228013350593784  0.5016943571028207  0.9426106019509177  1.0000
  H   H60       1.0  0.8377290822638132  0.49828307551580764  0.05738600765710796  1.0000
  H   H61       1.0  0.12417287701796907  0.5440363377403586  0.8577372390864111  1.0000
  H   H62       1.0  0.8758264791813843  0.4559494381211451  0.1422629933068649  1.0000
  H   H63       1.0  0.19857780373117614  0.38023604653167814  0.8350228745088585  1.0000
  H   H64       1.0  0.8014261843538718  0.6197508434756644  0.16495870696195417  1.0000
  H   H65       1.0  0.3835474234046288  0.23521772169110017  0.7186052841884274  1.0000
  H   H66       1.0  0.6164549972248424  0.7647703807727454  0.28137533821346483  1.0000
  H   H67       1.0  0.2586417866365522  0.26663017293186186  0.707362453006638  1.0000
  H   H68       1.0  0.7413619097884947  0.7333681122225996  0.29261685429423057  1.0000
  H   H69       1.0  0.28535480030324584  0.23861280230534024  0.8007426891141092  1.0000
  H   H70       1.0  0.7146429492101306  0.7613783256141745  0.1992356333854558  1.0000
  H   H71       1.0  0.5699949771187675  0.6002196862409692  0.5937452969333562  1.0000
  H   H72       1.0  0.4300041023241832  0.39978734329265103  0.40625849691951277  1.0000
  H   H73       1.0  0.2853082012207153  0.5588039933281621  0.5202546597289908  1.0000
  H   H74       1.0  0.7146914669663147  0.4411883833080808  0.4797362255064569  1.0000
  H   H75       1.0  0.2814181813229055  0.5060989774114972  0.6739929451249294  1.0000
  H   H76       1.0  0.7185884793939222  0.49388588988741605  0.3259993493712371  1.0000
  H   H77       1.0  0.42798548945803105  0.5988895829674662  0.4158348409363198  1.0000
  H   H78       1.0  0.5720180691167941  0.4011108720729126  0.5841637027999409  1.0000
  H   H79       1.0  0.5515064701566815  0.597645849871391  0.4393058933794689  1.0000
  H   H80       1.0  0.44849645946251127  0.4023554289386909  0.5606968092850264  1.0000
  H   H81       1.0  0.5053214556072092  0.7390748348072407  0.3995775585005673  1.0000
  H   H82       1.0  0.4946845270753641  0.2609252157248747  0.6004253278850838  1.0000
  H   H83       1.0  0.5337085576413756  0.7450995136625169  0.49720548433609907  1.0000
  H   H84       1.0  0.46629120283532194  0.25490283026945093  0.5027935557602277  1.0000
  H   H85       1.0  0.3198355952940233  0.7399502076287947  0.4514939492694052  1.0000
  H   H86       1.0  0.6801719310359076  0.2600499086599087  0.5485099011919841  1.0000
  H   H87       1.0  0.34812187779561293  0.7430449287425559  0.5488330448453096  1.0000
  H   H88       1.0  0.6518803544052575  0.2569544542549522  0.4511703278867569  1.0000
  H   H89       1.0  0.43959839726277034  0.883500725160623  0.5231026800146167  1.0000
  H   H90       1.0  0.5604009559934083  0.11650013084897641  0.47690572726683184  1.0000
  H   H91       1.0  0.3999670310290639  0.8817809727130311  0.42903152543134127  1.0000
  H   H92       1.0  0.6000372710995379  0.1182220988245106  0.5709680901642712  1.0000
  H   H93       1.0  0.22319590691676439  0.9306594123196278  0.41777019061226633  1.0000
  H   H94       1.0  0.7768060440284755  0.06934547790267939  0.5822279863799691  1.0000
  H   H95       1.0  0.2888691527005847  0.8865260775858702  0.6467527344279489  1.0000
  H   H96       1.0  0.7111322228668869  0.1134810233899444  0.35325192573068875  1.0000
  H   H97       1.0  0.095618338804492  0.9557875974935827  0.6555859244190427  1.0000
  H   H98       1.0  0.9043840923044256  0.0442287207541341  0.344410460441125  1.0000
  H   H99       1.0  0.16480406097393543  0.16927345643731684  0.3215212544590002  1.0000
  H   H100      1.0  0.8351895814719085  0.8307319831571292  0.678477420698435  1.0000
  H   H101      1.0  0.1233632214583196  0.112389972186655  0.23930942256194493  1.0000
  H   H102      1.0  0.8766290410357058  0.8876130083811021  0.7606917573531289  1.0000
  H   H103      1.0  0.240338031119002  0.08574934906791751  0.2679671815445061  1.0000
  H   H104      1.0  0.759657174320722  0.914256183475793  0.7320330374965066  1.0000
  H   H105      1.0  0.1406275953118055  0.9440839586764583  0.2574987778742468  1.0000
  H   H106      1.0  0.8593625868501391  0.055921221273585786  0.7425090807471617  1.0000
  H   H107      1.0  0.006119309393127994  0.75871526511542  0.34501006210365387  1.0000
  H   H108      1.0  0.9938753325729338  0.24129183907525234  0.6549966376003551  1.0000
  H   H109      1.0  0.11244389053670291  0.7875704393457073  0.2757388362740015  1.0000
  H   H110      1.0  0.8875485371526111  0.21243539676771658  0.7242687315409169  1.0000
  H   H111      1.0  0.9896563740476764  0.8166432211534345  0.2605445479498342  1.0000
  H   H112      1.0  0.01033988597110639  0.18336208585954242  0.7394642679353535  1.0000
  C   C1        1.0  0.030136574359921984  0.7784375736299581  0.8349675471082489  1.0000
  C   C2        1.0  0.9698369074744876  0.22157317881018912  0.16504132536744004  1.0000
  C   C3        1.0  0.03917290283690989  0.8691988031053628  0.8683716992376203  1.0000
  C   C4        1.0  0.9608142247806839  0.1308108822334191  0.1316377276032057  1.0000
  C   C5        1.0  0.10289606700925447  0.925645365573317  0.8223788328188772  1.0000
  C   C6        1.0  0.8970910561466428  0.0743656251712466  0.17763117883660576  1.0000
  C   C7        1.0  0.12074654209868642  0.012207953761965493  0.8419059393942374  1.0000
  C   C8        1.0  0.8792481951190041  0.987802563502882  0.15810541128951883  1.0000
  C   C9        1.0  0.1874677712656165  0.0633492431828273  0.7823688156562482  1.0000
  C   C10       1.0  0.8125292680192686  0.936656763007669  0.2176410645780535  1.0000
  C   C11       1.0  0.7824873225694304  0.062077603777545724  0.005841633535816021  1.0000
  C   C12       1.0  0.2175088406979881  0.9379190413454882  0.9941596123031499  1.0000
  C   C13       1.0  0.7682507122171954  0.09635869860468918  0.8844246664960592  1.0000
  C   C14       1.0  0.23175227838473944  0.9036275816353339  0.11557160070377384  1.0000
  C   C15       1.0  0.8640274458465173  0.06699076597515588  0.8879637300382226  1.0000
  C   C16       1.0  0.13597641333046082  0.9330042090331077  0.11204058924570146  1.0000
  C   C17       1.0  0.6158942422862809  0.1250504280550686  0.9867382578933146  1.0000
  C   C18       1.0  0.38411102809314474  0.8749463940660223  0.013264133937404688  1.0000
  C   C19       1.0  0.6134594257365864  0.2223184171521312  0.9990770133580821  1.0000
  C   C20       1.0  0.386541462224791  0.777676589499052  0.0009288566213854128  1.0000
  C   C21       1.0  0.5066503057115881  0.25639291989721613  0.023122219884733397  1.0000
  C   C22       1.0  0.4933475559753546  0.743604008523839  0.9768846284926621  1.0000
  C   C23       1.0  0.502475011777257  0.35317559453461206  0.03904850115102218  1.0000
  C   C24       1.0  0.4975307432087704  0.6468228242795676  0.9609468427259312  1.0000
  C   C25       1.0  0.4849246427371909  0.41773882321660244  0.9104766615934988  1.0000
  C   C26       1.0  0.5150735130531032  0.5822528757491982  0.08951383687062985  1.0000
  C   C27       1.0  0.6342955109507143  0.433058969763607  0.9491364594081015  1.0000
  C   C28       1.0  0.3657119751676633  0.5669273173974076  0.05085864136410117  1.0000
  C   C29       1.0  0.6341001230353103  0.4699287071691317  0.877874791789324  1.0000
  C   C30       1.0  0.3659139731629467  0.5300567473217229  0.12211420827923544  1.0000
  C   C31       1.0  0.6483227971651785  0.745662985249709  0.7626930888079214  1.0000
  C   C32       1.0  0.3516728710912743  0.2543379511025563  0.23731812655470452  1.0000
  C   C33       1.0  0.6280215144953233  0.6518825949768967  0.7460202775906165  1.0000
  C   C34       1.0  0.37197556644454727  0.3481169113774173  0.2539872583782311  1.0000
  C   C35       1.0  0.7046623657805924  0.6030663361727518  0.6992563021813465  1.0000
  C   C36       1.0  0.29533904103750797  0.39694015288920076  0.3007489352817173  1.0000
  C   C37       1.0  0.6991718486664169  0.515906480809747  0.6756530887469621  1.0000
  C   C38       1.0  0.30082997281462553  0.48410216247379634  0.3243433638422317  1.0000
  C   C39       1.0  0.7924976960185718  0.47452109517048063  0.6287014261403171  1.0000
  C   C40       1.0  0.20750521225453158  0.5254961534710959  0.37128732845482654  1.0000
  C   C41       1.0  0.1878429189683999  0.5396986708404866  0.8913221706643026  1.0000
  C   C42       1.0  0.8121609729214114  0.4602838892165977  0.10867630297644837  1.0000
  C   C43       1.0  0.27831147881324375  0.4981568391518892  0.8405584487244864  1.0000
  C   C44       1.0  0.7216968371683733  0.50182956246546  0.15943887350909594  1.0000
  C   C45       1.0  0.26937685613133766  0.41190948273527545  0.8149585549508341  1.0000
  C   C46       1.0  0.730627242090158  0.5880821529446935  0.18502884212221452  1.0000
  C   C47       1.0  0.3427440917106708  0.3622131542495524  0.7656030092452821  1.0000
  C   C48       1.0  0.657254661784627  0.6377783328604071  0.23438275298619263  1.0000
  C   C49       1.0  0.31636782595535357  0.2701115987060377  0.7469050311597625  1.0000
  C   C50       1.0  0.6836351656089548  0.7298841243366212  0.2530743638974186  1.0000
  C   C51       1.0  0.4915668155013506  0.5820823020374917  0.5960764268148038  1.0000
  C   C52       1.0  0.5084175030776734  0.41791124693178017  0.4039304294814199  1.0000
  C   C53       1.0  0.3424716195110662  0.5595797629963785  0.5589270770716721  1.0000
  C   C54       1.0  0.657533448479775  0.44041939800946034  0.44107068630999885  1.0000
  C   C55       1.0  0.34172929852771017  0.5341954597144608  0.6347263342610957  1.0000
  C   C56       1.0  0.6582778988926138  0.4657956683721239  0.36526298846002436  1.0000
  C   C57       1.0  0.4757230681559649  0.6237273074018292  0.4584582244718121  1.0000
  C   C58       1.0  0.5242810672963714  0.3762761857008173  0.5415367551645146  1.0000
  C   C59       1.0  0.478045467724357  0.721271583734449  0.46009237584568297  1.0000
  C   C60       1.0  0.5219611632603574  0.278727670220654  0.5399069314195655  1.0000
  C   C61       1.0  0.3757498943614053  0.7623809617066614  0.48886404673682876  1.0000
  C   C62       1.0  0.6242553284015884  0.23761841684061843  0.5111383551075335  1.0000
  C   C63       1.0  0.38072670413780685  0.8599064177198416  0.48915114454572955  1.0000
  C   C64       1.0  0.6192777839948107  0.14008773351873324  0.510849015809967  1.0000
  C   C65       1.0  0.2139904218449189  0.9293597232817917  0.4814746269523127  1.0000
  C   C66       1.0  0.7860129953615955  0.07064512392638281  0.518522194884319  1.0000
  C   C67       1.0  0.24635184372827718  0.9065457743043696  0.6015244268212498  1.0000
  C   C68       1.0  0.7536560838795054  0.09346041242324789  0.3984723932102411  1.0000
  C   C69       1.0  0.15126514359864976  0.9406063436900922  0.6048563229199998  1.0000
  C   C70       1.0  0.8487388757933374  0.0594055121830195  0.3951398488763472  1.0000
  C   C71       1.0  0.1630844616192135  0.10669804361144491  0.29062419817513063  1.0000
  C   C72       1.0  0.8369122532365195  0.8933061948977185  0.7093752405112921  1.0000
  C   C73       1.0  0.1106530395451273  0.04312053682084379  0.34631891508883667  1.0000
  C   C74       1.0  0.8893444679805569  0.9568890105750614  0.6536845045097619  1.0000
  C   C75       1.0  0.10324578286918042  0.9579767637003159  0.31690824741945517  1.0000
  C   C76       1.0  0.8967487192095547  0.04203145554736659  0.6830949784443516  1.0000
  C   C77       1.0  0.038302110958035505  0.8083695921447858  0.306182806523175  1.0000
  C   C78       1.0  0.961693334082341  0.19163693301031515  0.6938249525231226  1.0000
  C   C79       1.0  0.04505295490235281  0.8918676986921384  0.3536772056539305  1.0000
  C   C80       1.0  0.9549408958935146  0.10813934542756702  0.6463284322043705  1.0000
  N   N1        1.0  0.8716536517824522  0.04583089139440229  0.9636595358285688  1.0000
  N   N2        1.0  0.128348622092183  0.954170517693463  0.0363461636450779  1.0000
  N   N3        1.0  0.717005945461615  0.0925120325319071  0.9598119663091534  1.0000
  N   N4        1.0  0.28299684723219803  0.9074838071136427  0.04018375863401499  1.0000
  N   N5        1.0  0.538943047919588  0.400229585260476  0.9690979361526854  1.0000
  N   N6        1.0  0.46106726208464727  0.599757119015415  0.0308915577725344  1.0000
  N   N7        1.0  0.5402648089960849  0.46017573565380593  0.8546326142918728  1.0000
  N   N8        1.0  0.45974307245747786  0.539821204462669  0.1453577928056617  1.0000
  N   N9        1.0  0.4353477132686693  0.548201998056854  0.6569450578360472  1.0000
  N   N10       1.0  0.5646521349984681  0.45179456672351404  0.3430533799217414  1.0000
  N   N11       1.0  0.438258512888872  0.5896939185084734  0.5350655242394352  1.0000
  N   N12       1.0  0.561752760942042  0.41030489360983324  0.46493667274962275  1.0000
  N   N13       1.0  0.28559414543678946  0.9000887248710185  0.5226183970590126  1.0000
  N   N14       1.0  0.7144107782050284  0.09991285659759801  0.47737647729712046  1.0000
  N   N15       1.0  0.1323329352937179  0.9544359419816006  0.5298162883125028  1.0000
  N   N16       1.0  0.8676702854856517  0.0455751875213153  0.4701782393268913  1.0000
  O   O1        1.0  0.9890379712506316  0.8867986114084944  0.9355360156402807  1.0000
  O   O2        1.0  0.010951507550323899  0.11320925524552913  0.06447484980392199  1.0000
  O   O3        1.0  0.0857028642020836  0.05300755380317669  0.9059243867887685  1.0000
  O   O4        1.0  0.9143003615763448  0.9469980763071038  0.09408934724509518  1.0000
  O   O5        1.0  0.5423529905760205  0.624665835600439  0.7760886132106176  1.0000
  O   O6        1.0  0.4576406622741872  0.37533371607168686  0.22390714037693718  1.0000
  O   O7        1.0  0.6223645957124262  0.4678237788579979  0.6899275627349297  1.0000
  O   O8        1.0  0.37764244399256347  0.5321822118352415  0.3100652964116718  1.0000
  O   O9        1.0  0.3558783682747304  0.5450453384306116  0.8252302844651139  1.0000
  O   O10       1.0  0.6441297602031284  0.45494473466993673  0.1747635739419166  1.0000
  O   O11       1.0  0.42945923315442514  0.3871080325004002  0.7351355013565807  1.0000
  O   O12       1.0  0.5705450942445934  0.6128819577867334  0.2648576862846069  1.0000
  O   O13       1.0  0.07619763523547361  0.07235354482500611  0.41510856726000606  1.0000
  O   O14       1.0  0.9238029327959936  0.9276554405921617  0.584895618370993  1.0000
  O   O15       1.0  0.9953435198842228  0.8962887280945823  0.422448717126251  1.0000
  O   O16       1.0  0.004656286746701694  0.1037228624485209  0.5775567359040392  1.0000
